0:0:0
     RDKit          3D

 38 40  0  0  1  0  0  0  0  0999 V2000
    5.1049   -0.7401    0.0923 O   0  0  0  0  0  0  0  0  0  0  0  0
    5.3339   -1.7921   -0.4991 C   0  0  0  0  0  0  0  0  0  0  0  0
    5.9929   -2.9243    0.3049 C   0  0  2  0  0  0  0  0  0  0  0  0
    7.4449   -3.2126   -0.1377 C   0  0  0  0  0  0  0  0  0  0  0  0
    8.0640   -4.3377    0.6865 C   0  0  0  0  0  0  0  0  0  0  0  0
    7.0982   -5.5573    0.9832 C   0  0  0  0  0  0  0  0  0  0  0  0
    7.6070   -6.6172    1.2760 O   0  0  0  0  0  0  0  0  0  0  0  0
    5.7742   -5.3600    0.9431 N   0  0  0  0  0  0  0  0  0  0  0  0
    4.8994   -6.3520    1.5562 C   0  0  0  0  0  0  0  0  0  0  0  0
    4.3996   -7.5157    0.7435 C   0  0  0  0  0  0  0  0  0  0  0  0
    3.4264   -6.4664    1.2229 C   0  0  0  0  0  0  0  0  0  0  0  0
    5.0813   -4.1793    0.4073 C   0  0  0  0  0  0  0  0  0  0  0  0
    5.0002   -1.9938   -1.7920 N   0  0  0  0  0  0  0  0  0  0  0  0
    4.2815   -0.9494   -2.5511 C   0  0  0  0  0  0  0  0  0  0  0  0
    3.2346   -1.5720   -3.4942 C   0  0  0  0  0  0  0  0  0  0  0  0
    3.8743   -2.5096   -4.3220 O   0  0  0  0  0  0  0  0  0  0  0  0
    4.4536   -3.5804   -3.6048 C   0  0  0  0  0  0  0  0  0  0  0  0
    5.5290   -3.0713   -2.6539 C   0  0  0  0  0  0  0  0  0  0  0  0
    6.0441   -2.5659    1.3282 H   0  0  0  0  0  0  0  0  0  0  0  0
    7.5236   -3.4875   -1.1767 H   0  0  0  0  0  0  0  0  0  0  0  0
    8.0433   -2.2856   -0.0184 H   0  0  0  0  0  0  0  0  0  0  0  0
    8.9369   -4.6958    0.1480 H   0  0  0  0  0  0  0  0  0  0  0  0
    8.4041   -3.9547    1.6486 H   0  0  0  0  0  0  0  0  0  0  0  0
    5.1620   -6.5796    2.5907 H   0  0  0  0  0  0  0  0  0  0  0  0
    4.6018   -7.5466   -0.3295 H   0  0  0  0  0  0  0  0  0  0  0  0
    4.3822   -8.4804    1.2414 H   0  0  0  0  0  0  0  0  0  0  0  0
    2.7781   -6.7218    2.0531 H   0  0  0  0  0  0  0  0  0  0  0  0
    2.9643   -5.8472    0.4494 H   0  0  0  0  0  0  0  0  0  0  0  0
    4.2253   -3.9085    1.0381 H   0  0  0  0  0  0  0  0  0  0  0  0
    4.6526   -4.4863   -0.5497 H   0  0  0  0  0  0  0  0  0  0  0  0
    3.7434   -0.2726   -1.9004 H   0  0  0  0  0  0  0  0  0  0  0  0
    4.9968   -0.3593   -3.1142 H   0  0  0  0  0  0  0  0  0  0  0  0
    2.4207   -2.0610   -2.9424 H   0  0  0  0  0  0  0  0  0  0  0  0
    2.7963   -0.8071   -4.1400 H   0  0  0  0  0  0  0  0  0  0  0  0
    3.6802   -4.1000   -3.0469 H   0  0  0  0  0  0  0  0  0  0  0  0
    4.8988   -4.2976   -4.2909 H   0  0  0  0  0  0  0  0  0  0  0  0
    6.3813   -2.6778   -3.2215 H   0  0  0  0  0  0  0  0  0  0  0  0
    5.8649   -3.9576   -2.1308 H   0  0  0  0  0  0  0  0  0  0  0  0
  1  2  2  0
  2  3  1  0
  2 13  1  0
  3 12  1  0
  3  4  1  0
  3 19  1  1
  4  5  1  0
  4 20  1  0
  4 21  1  0
  5  6  1  0
  5 22  1  0
  5 23  1  0
  6  7  2  0
  6  8  1  0
  8  9  1  0
  8 12  1  0
  9 11  1  0
  9 10  1  0
  9 24  1  0
 10 11  1  0
 10 25  1  0
 10 26  1  0
 11 27  1  0
 11 28  1  0
 12 29  1  0
 12 30  1  0
 13 18  1  0
 13 14  1  0
 14 15  1  0
 14 31  1  0
 14 32  1  0
 15 16  1  0
 15 33  1  0
 15 34  1  0
 16 17  1  0
 17 18  1  0
 17 35  1  0
 17 36  1  0
 18 37  1  0
 18 38  1  0
M  END
>  <i_m_ct_stereo_status>  (1) 
1

>  <s_m_source_file>  (1) 
/var/tmp/pbs.5076255.sched01/tmp25ygy55i/01wbi4d2b.sdf

>  <i_m_source_file_index>  (1) 
1

>  <i_lp_mmshare_version>  (1) 
48012

>  <i_f3d_flags>  (1) 
0

>  <s_epik_input>  (1) 
W0NIMl0xW0NIMl1PW0NIMl1bQ0gyXU4xQyg9TylbQ0BASF0yW0NIMl1bQ0gyXUMoPU8pTihbQ0gyXTIpW0NIXTNbQ0gyXVtDSDJdMw==

>  <s_epik_cmdline>  (1) 
J2VwaWtfcHl0aG9uJywgJy1waHQnLCAnMi4wJywgJy1waCcsICc3LjAnLCAnLXRuJywgJzgnLCAnLW1hJywgJzIwMCcsICctaW1hZScsICc8aW5maWxlLm1hZT4nLCAnLW9tYWUnLCAnPG91dGZpbGUubWFlPic=

>  <r_lp_tautomer_probability>  (1) 
1

>  <r_epik_Ionization_Penalty>  (1) 
1.10168e-08

>  <r_epik_Ionization_Penalty_Charging>  (1) 
0

>  <r_epik_Ionization_Penalty_Neutral>  (1) 
1.10168e-08

>  <r_epik_State_Penalty>  (1) 
-0

>  <r_epik_Charging_Adjusted_Penalty>  (1) 
0

>  <i_epik_Tot_Q>  (1) 
0

>  <i_epik_Tot_abs_Q>  (1) 
0

>  <s_lp_Force_Field>  (1) 
OPLS3e

>  <r_lp_Energy>  (1) 
41.4881

>  <b_lp_Chiralities_Consistent>  (1) 
1

>  <s_lp_Variant>  (1) 
0:0-1

>  <s_i_glide_gridfile>  (1) 
pfpi4k_grid

>  <i_i_glide_lignum>  (1) 
1

>  <i_i_glide_rotatable_bonds>  (1) 
3

>  <r_i_docking_score>  (1) 
-4.42666

>  <r_i_glide_ligand_efficiency>  (1) 
-0.245926

>  <r_i_glide_ligand_efficiency_sa>  (1) 
-0.644508

>  <r_i_glide_ligand_efficiency_ln>  (1) 
-1.13785

>  <r_i_glide_gscore>  (1) 
-4.42666

>  <r_i_glide_lipo>  (1) 
-1.17687

>  <r_i_glide_hbond>  (1) 
-0.32

>  <r_i_glide_metal>  (1) 
-0

>  <r_i_glide_rewards>  (1) 
-1.93986

>  <r_i_glide_evdw>  (1) 
-29.1175

>  <r_i_glide_ecoul>  (1) 
-2.0934

>  <r_i_glide_erotb>  (1) 
0.826855

>  <r_i_glide_esite>  (1) 
-0.0469046

>  <r_i_glide_emodel>  (1) 
-36.2474

>  <r_i_glide_energy>  (1) 
-31.2109

>  <r_i_glide_einternal>  (1) 
7.38977

>  <r_i_glide_intrahb_reward>  (1) 
-0

>  <i_i_glide_confnum>  (1) 
3

>  <i_i_glide_posenum>  (1) 
2

>  <r_i_glide_eff_state_penalty>  (1) 
0

>  <ligand_id>  (1) 
0

>  <original_smiles>  (1) 
O=C(C1CCC(=O)N(C2CC2)C1)N1CCOCC1

>  <smiles>  (1) 
[H]C1([H])OC([H])([H])C([H])([H])N(C(=O)C2([H])C([H])([H])N(C3([H])C([H])([H])C3([H])[H])C(=O)C([H])([H])C2([H])[H])C1([H])[H]

$$$$
0:0:1
     RDKit          3D

 38 40  0  0  1  0  0  0  0  0999 V2000
    1.8107   -5.3457    1.2298 O   0  0  0  0  0  0  0  0  0  0  0  0
    2.9414   -5.7147    0.9608 C   0  0  0  0  0  0  0  0  0  0  0  0
    3.8274   -4.7670    0.1283 C   0  0  2  0  0  0  0  0  0  0  0  0
    4.9269   -4.1361    1.0014 C   0  0  0  0  0  0  0  0  0  0  0  0
    5.8926   -3.3036    0.1839 C   0  0  0  0  0  0  0  0  0  0  0  0
    5.1698   -2.3670   -0.8071 C   0  0  0  0  0  0  0  0  0  0  0  0
    5.8023   -1.3904   -1.2017 O   0  0  0  0  0  0  0  0  0  0  0  0
    3.9519   -2.6980   -1.2893 N   0  0  0  0  0  0  0  0  0  0  0  0
    3.3978   -2.0042   -2.4104 C   0  0  0  0  0  0  0  0  0  0  0  0
    2.7980   -2.7791   -3.5692 C   0  0  0  0  0  0  0  0  0  0  0  0
    4.1629   -2.1461   -3.7298 C   0  0  0  0  0  0  0  0  0  0  0  0
    3.0560   -3.6215   -0.5751 C   0  0  0  0  0  0  0  0  0  0  0  0
    3.4184   -6.9127    1.3793 N   0  0  0  0  0  0  0  0  0  0  0  0
    4.8293   -7.3035    1.2880 C   0  0  0  0  0  0  0  0  0  0  0  0
    4.9651   -8.8212    1.0796 C   0  0  0  0  0  0  0  0  0  0  0  0
    4.2808   -9.5236    2.1115 O   0  0  0  0  0  0  0  0  0  0  0  0
    2.8866   -9.2543    2.0706 C   0  0  0  0  0  0  0  0  0  0  0  0
    2.6457   -7.7509    2.3236 C   0  0  0  0  0  0  0  0  0  0  0  0
    4.2514   -5.3708   -0.6562 H   0  0  0  0  0  0  0  0  0  0  0  0
    4.4576   -3.4911    1.7517 H   0  0  0  0  0  0  0  0  0  0  0  0
    5.5145   -4.8947    1.5019 H   0  0  0  0  0  0  0  0  0  0  0  0
    6.5966   -2.7506    0.8208 H   0  0  0  0  0  0  0  0  0  0  0  0
    6.4869   -3.9662   -0.4367 H   0  0  0  0  0  0  0  0  0  0  0  0
    2.9578   -1.0356   -2.1919 H   0  0  0  0  0  0  0  0  0  0  0  0
    2.7785   -3.8570   -3.5295 H   0  0  0  0  0  0  0  0  0  0  0  0
    1.9802   -2.3250   -4.1102 H   0  0  0  0  0  0  0  0  0  0  0  0
    4.2595   -1.2254   -4.3128 H   0  0  0  0  0  0  0  0  0  0  0  0
    5.0412   -2.7974   -3.6863 H   0  0  0  0  0  0  0  0  0  0  0  0
    2.3530   -4.0625   -1.2781 H   0  0  0  0  0  0  0  0  0  0  0  0
    2.4612   -3.0314    0.1312 H   0  0  0  0  0  0  0  0  0  0  0  0
    5.3499   -6.7910    0.4687 H   0  0  0  0  0  0  0  0  0  0  0  0
    5.3443   -7.0428    2.2313 H   0  0  0  0  0  0  0  0  0  0  0  0
    4.5839   -9.1196    0.1025 H   0  0  0  0  0  0  0  0  0  0  0  0
    6.0190   -9.0988    1.1030 H   0  0  0  0  0  0  0  0  0  0  0  0
    2.4737   -9.5545    1.1014 H   0  0  0  0  0  0  0  0  0  0  0  0
    2.3921   -9.8523    2.8399 H   0  0  0  0  0  0  0  0  0  0  0  0
    2.9200   -7.5001    3.3557 H   0  0  0  0  0  0  0  0  0  0  0  0
    1.5694   -7.5809    2.2491 H   0  0  0  0  0  0  0  0  0  0  0  0
  1  2  2  0
  2  3  1  0
  2 13  1  0
  3 12  1  0
  3  4  1  0
  3 19  1  6
  4  5  1  0
  4 20  1  0
  4 21  1  0
  5  6  1  0
  5 22  1  0
  5 23  1  0
  6  7  2  0
  6  8  1  0
  8  9  1  0
  8 12  1  0
  9 11  1  0
  9 10  1  0
  9 24  1  0
 10 11  1  0
 10 25  1  0
 10 26  1  0
 11 27  1  0
 11 28  1  0
 12 29  1  0
 12 30  1  0
 13 18  1  0
 13 14  1  0
 14 15  1  0
 14 31  1  0
 14 32  1  0
 15 16  1  0
 15 33  1  0
 15 34  1  0
 16 17  1  0
 17 18  1  0
 17 35  1  0
 17 36  1  0
 18 37  1  0
 18 38  1  0
M  END
>  <i_m_ct_stereo_status>  (2) 
1

>  <s_m_source_file>  (2) 
/var/tmp/pbs.5076255.sched01/tmp25ygy55i/01wbi4d2b.sdf

>  <i_m_source_file_index>  (2) 
1

>  <i_lp_mmshare_version>  (2) 
48012

>  <i_f3d_flags>  (2) 
0

>  <s_epik_input>  (2) 
W0NIMl0xW0NIMl1PW0NIMl1bQ0gyXU4xQyg9TylbQ0BASF0yW0NIMl1bQ0gyXUMoPU8pTihbQ0gyXTIpW0NIXTNbQ0gyXVtDSDJdMw==

>  <s_epik_cmdline>  (2) 
J2VwaWtfcHl0aG9uJywgJy1waHQnLCAnMi4wJywgJy1waCcsICc3LjAnLCAnLXRuJywgJzgnLCAnLW1hJywgJzIwMCcsICctaW1hZScsICc8aW5maWxlLm1hZT4nLCAnLW9tYWUnLCAnPG91dGZpbGUubWFlPic=

>  <r_lp_tautomer_probability>  (2) 
1

>  <r_epik_Ionization_Penalty>  (2) 
1.10168e-08

>  <r_epik_Ionization_Penalty_Charging>  (2) 
0

>  <r_epik_Ionization_Penalty_Neutral>  (2) 
1.10168e-08

>  <r_epik_State_Penalty>  (2) 
-0

>  <r_epik_Charging_Adjusted_Penalty>  (2) 
0

>  <i_epik_Tot_Q>  (2) 
0

>  <i_epik_Tot_abs_Q>  (2) 
0

>  <s_lp_Force_Field>  (2) 
OPLS3e

>  <r_lp_Energy>  (2) 
41.4881

>  <b_lp_Chiralities_Consistent>  (2) 
1

>  <s_lp_Variant>  (2) 
0:0-1

>  <s_i_glide_gridfile>  (2) 
pfpi4k_grid

>  <i_i_glide_lignum>  (2) 
1

>  <i_i_glide_rotatable_bonds>  (2) 
3

>  <r_i_docking_score>  (2) 
-3.55026

>  <r_i_glide_ligand_efficiency>  (2) 
-0.197237

>  <r_i_glide_ligand_efficiency_sa>  (2) 
-0.516906

>  <r_i_glide_ligand_efficiency_ln>  (2) 
-0.912576

>  <r_i_glide_gscore>  (2) 
-3.55026

>  <r_i_glide_lipo>  (2) 
-0.568862

>  <r_i_glide_hbond>  (2) 
-0.152213

>  <r_i_glide_metal>  (2) 
-0

>  <r_i_glide_rewards>  (2) 
-1.78229

>  <r_i_glide_evdw>  (2) 
-27.2798

>  <r_i_glide_ecoul>  (2) 
-3.07771

>  <r_i_glide_erotb>  (2) 
0.826855

>  <r_i_glide_esite>  (2) 
-0.0480989

>  <r_i_glide_emodel>  (2) 
-34.2349

>  <r_i_glide_energy>  (2) 
-30.3575

>  <r_i_glide_einternal>  (2) 
5.48552

>  <r_i_glide_intrahb_reward>  (2) 
-0

>  <i_i_glide_confnum>  (2) 
6

>  <i_i_glide_posenum>  (2) 
26

>  <r_i_glide_eff_state_penalty>  (2) 
0

>  <ligand_id>  (2) 
0

>  <original_smiles>  (2) 
O=C(C1CCC(=O)N(C2CC2)C1)N1CCOCC1

>  <smiles>  (2) 
[H]C1([H])OC([H])([H])C([H])([H])N(C(=O)C2([H])C([H])([H])N(C3([H])C([H])([H])C3([H])[H])C(=O)C([H])([H])C2([H])[H])C1([H])[H]

$$$$
0:0:2
     RDKit          3D

 38 40  0  0  1  0  0  0  0  0999 V2000
    2.1947   -4.8022    1.3501 O   0  0  0  0  0  0  0  0  0  0  0  0
    3.2026   -5.4404    1.0703 C   0  0  0  0  0  0  0  0  0  0  0  0
    4.3226   -4.7245    0.2893 C   0  0  2  0  0  0  0  0  0  0  0  0
    5.2635   -4.0647    1.3012 C   0  0  0  0  0  0  0  0  0  0  0  0
    6.4573   -3.4109    0.6056 C   0  0  0  0  0  0  0  0  0  0  0  0
    6.0922   -2.6298   -0.6697 C   0  0  0  0  0  0  0  0  0  0  0  0
    6.9407   -1.8711   -1.1348 O   0  0  0  0  0  0  0  0  0  0  0  0
    4.9069   -2.8506   -1.2868 N   0  0  0  0  0  0  0  0  0  0  0  0
    4.7133   -2.3892   -2.6318 C   0  0  0  0  0  0  0  0  0  0  0  0
    4.1690   -0.9982   -2.8415 C   0  0  0  0  0  0  0  0  0  0  0  0
    3.3357   -2.1948   -3.2313 C   0  0  0  0  0  0  0  0  0  0  0  0
    3.8179   -3.6646   -0.7129 C   0  0  0  0  0  0  0  0  0  0  0  0
    3.3526   -6.7320    1.4576 N   0  0  0  0  0  0  0  0  0  0  0  0
    4.6387   -7.4400    1.4626 C   0  0  0  0  0  0  0  0  0  0  0  0
    4.4401   -8.9190    1.1204 C   0  0  0  0  0  0  0  0  0  0  0  0
    3.5171   -9.4925    2.0310 O   0  0  0  0  0  0  0  0  0  0  0  0
    2.2337   -8.8967    1.9283 C   0  0  0  0  0  0  0  0  0  0  0  0
    2.3271   -7.4009    2.2746 C   0  0  0  0  0  0  0  0  0  0  0  0
    4.8547   -5.4332   -0.3398 H   0  0  0  0  0  0  0  0  0  0  0  0
    4.7231   -3.3172    1.8881 H   0  0  0  0  0  0  0  0  0  0  0  0
    5.6287   -4.7904    2.0293 H   0  0  0  0  0  0  0  0  0  0  0  0
    6.9840   -2.7685    1.3141 H   0  0  0  0  0  0  0  0  0  0  0  0
    7.1545   -4.1989    0.3124 H   0  0  0  0  0  0  0  0  0  0  0  0
    5.4883   -2.7001   -3.3235 H   0  0  0  0  0  0  0  0  0  0  0  0
    3.8730   -0.4300   -1.9641 H   0  0  0  0  0  0  0  0  0  0  0  0
    4.6062   -0.4140   -3.6495 H   0  0  0  0  0  0  0  0  0  0  0  0
    3.2426   -2.4204   -4.2921 H   0  0  0  0  0  0  0  0  0  0  0  0
    2.4444   -2.3840   -2.6410 H   0  0  0  0  0  0  0  0  0  0  0  0
    3.3158   -4.2110   -1.5055 H   0  0  0  0  0  0  0  0  0  0  0  0
    3.0694   -3.0007   -0.2711 H   0  0  0  0  0  0  0  0  0  0  0  0
    5.3834   -7.0638    0.7623 H   0  0  0  0  0  0  0  0  0  0  0  0
    5.0630   -7.3354    2.4667 H   0  0  0  0  0  0  0  0  0  0  0  0
    4.0943   -9.0432    0.0957 H   0  0  0  0  0  0  0  0  0  0  0  0
    5.3942   -9.4356    1.1965 H   0  0  0  0  0  0  0  0  0  0  0  0
    1.8279   -9.0478    0.9258 H   0  0  0  0  0  0  0  0  0  0  0  0
    1.5639   -9.4058    2.6241 H   0  0  0  0  0  0  0  0  0  0  0  0
    2.5893   -7.2793    3.3262 H   0  0  0  0  0  0  0  0  0  0  0  0
    1.3344   -6.9626    2.1525 H   0  0  0  0  0  0  0  0  0  0  0  0
  1  2  2  0
  2  3  1  0
  2 13  1  0
  3 12  1  0
  3  4  1  0
  3 19  1  6
  4  5  1  0
  4 20  1  0
  4 21  1  0
  5  6  1  0
  5 22  1  0
  5 23  1  0
  6  7  2  0
  6  8  1  0
  8  9  1  0
  8 12  1  0
  9 11  1  0
  9 10  1  0
  9 24  1  0
 10 11  1  0
 10 25  1  0
 10 26  1  0
 11 27  1  0
 11 28  1  0
 12 29  1  0
 12 30  1  0
 13 18  1  0
 13 14  1  0
 14 15  1  0
 14 31  1  0
 14 32  1  0
 15 16  1  0
 15 33  1  0
 15 34  1  0
 16 17  1  0
 17 18  1  0
 17 35  1  0
 17 36  1  0
 18 37  1  0
 18 38  1  0
M  END
>  <i_m_ct_stereo_status>  (3) 
1

>  <s_m_source_file>  (3) 
/var/tmp/pbs.5076255.sched01/tmp25ygy55i/01wbi4d2b.sdf

>  <i_m_source_file_index>  (3) 
1

>  <i_lp_mmshare_version>  (3) 
48012

>  <i_f3d_flags>  (3) 
0

>  <s_epik_input>  (3) 
W0NIMl0xW0NIMl1PW0NIMl1bQ0gyXU4xQyg9TylbQ0BASF0yW0NIMl1bQ0gyXUMoPU8pTihbQ0gyXTIpW0NIXTNbQ0gyXVtDSDJdMw==

>  <s_epik_cmdline>  (3) 
J2VwaWtfcHl0aG9uJywgJy1waHQnLCAnMi4wJywgJy1waCcsICc3LjAnLCAnLXRuJywgJzgnLCAnLW1hJywgJzIwMCcsICctaW1hZScsICc8aW5maWxlLm1hZT4nLCAnLW9tYWUnLCAnPG91dGZpbGUubWFlPic=

>  <r_lp_tautomer_probability>  (3) 
1

>  <r_epik_Ionization_Penalty>  (3) 
1.10168e-08

>  <r_epik_Ionization_Penalty_Charging>  (3) 
0

>  <r_epik_Ionization_Penalty_Neutral>  (3) 
1.10168e-08

>  <r_epik_State_Penalty>  (3) 
-0

>  <r_epik_Charging_Adjusted_Penalty>  (3) 
0

>  <i_epik_Tot_Q>  (3) 
0

>  <i_epik_Tot_abs_Q>  (3) 
0

>  <s_lp_Force_Field>  (3) 
OPLS3e

>  <r_lp_Energy>  (3) 
41.4881

>  <b_lp_Chiralities_Consistent>  (3) 
1

>  <s_lp_Variant>  (3) 
0:0-1

>  <s_i_glide_gridfile>  (3) 
pfpi4k_grid

>  <i_i_glide_lignum>  (3) 
1

>  <i_i_glide_rotatable_bonds>  (3) 
3

>  <r_i_docking_score>  (3) 
-3.49759

>  <r_i_glide_ligand_efficiency>  (3) 
-0.194311

>  <r_i_glide_ligand_efficiency_sa>  (3) 
-0.509238

>  <r_i_glide_ligand_efficiency_ln>  (3) 
-0.899038

>  <r_i_glide_gscore>  (3) 
-3.49759

>  <r_i_glide_lipo>  (3) 
-0.551777

>  <r_i_glide_hbond>  (3) 
-0.170143

>  <r_i_glide_metal>  (3) 
-0

>  <r_i_glide_rewards>  (3) 
-1.76944

>  <r_i_glide_evdw>  (3) 
-24.5175

>  <r_i_glide_ecoul>  (3) 
-3.93107

>  <r_i_glide_erotb>  (3) 
0.826855

>  <r_i_glide_esite>  (3) 
-0.0175503

>  <r_i_glide_emodel>  (3) 
-34.2885

>  <r_i_glide_energy>  (3) 
-28.4486

>  <r_i_glide_einternal>  (3) 
1.99251

>  <r_i_glide_intrahb_reward>  (3) 
-0

>  <i_i_glide_confnum>  (3) 
6

>  <i_i_glide_posenum>  (3) 
37

>  <r_i_glide_eff_state_penalty>  (3) 
0

>  <ligand_id>  (3) 
0

>  <original_smiles>  (3) 
O=C(C1CCC(=O)N(C2CC2)C1)N1CCOCC1

>  <smiles>  (3) 
[H]C1([H])OC([H])([H])C([H])([H])N(C(=O)C2([H])C([H])([H])N(C3([H])C([H])([H])C3([H])[H])C(=O)C([H])([H])C2([H])[H])C1([H])[H]

$$$$
1:0:0
     RDKit          3D

 68 73  0  0  1  0  0  0  0  0999 V2000
    1.5815   -1.5430    7.1537 C   0  0  0  0  0  0  0  0  0  0  0  0
    1.2022   -2.7914    7.4735 C   0  0  0  0  0  0  0  0  0  0  0  0
    1.5433   -4.0346    6.6630 C   0  0  0  0  0  0  0  0  0  0  0  0
    1.9507   -5.2926    7.4858 C   0  0  1  0  0  0  0  0  0  0  0  0
    3.0866   -5.0399    8.5173 C   0  0  0  0  0  0  0  0  0  0  0  0
    2.8897   -6.1560    9.5736 C   0  0  1  0  0  0  0  0  0  0  0  0
    2.5984   -5.6286   10.9993 C   0  0  0  0  0  0  0  0  0  0  0  0
    1.7813   -7.0346    8.9030 C   0  0  1  0  0  0  0  0  0  0  0  0
    0.8507   -5.9436    8.3361 C   0  0  1  0  0  0  0  0  0  0  0  0
    0.1875   -5.1536    9.3006 O   0  0  0  0  0  0  0  0  0  0  0  0
    2.3279   -7.7333    7.5799 C   0  0  2  0  0  0  0  0  0  0  0  0
    3.8344   -8.1292    7.7189 C   0  0  0  0  0  0  0  0  0  0  0  0
    2.2568   -6.5404    6.6346 C   0  0  0  0  0  0  0  0  0  0  0  0
    2.0871   -6.6064    5.2980 C   0  0  0  0  0  0  0  0  0  0  0  0
    1.8648   -7.8294    4.4037 C   0  0  1  0  0  0  0  0  0  0  0  0
    2.6181   -9.1501    4.6776 C   0  0  1  0  0  0  0  0  0  0  0  0
    2.1330   -9.8802    5.9691 C   0  0  1  0  0  0  0  0  0  0  0  0
    3.1818  -10.6868    6.4720 O   0  0  0  0  0  0  0  0  0  0  0  0
    1.4951   -9.0084    7.1019 C   0  0  1  0  0  0  0  0  0  0  0  0
    1.3942   -9.8410    8.2525 O   0  0  0  0  0  0  0  0  0  0  0  0
   -0.0039   -8.8140    6.7244 C   0  0  0  0  0  0  0  0  0  0  0  0
   -0.4091   -7.9691    5.4824 C   0  0  0  0  0  0  0  0  0  0  0  0
    0.3792   -8.1116    4.1660 C   0  0  1  0  0  0  0  0  0  0  0  0
   -0.2725   -7.2965    3.0199 C   0  0  0  0  0  0  0  0  0  0  0  0
   -0.1614   -8.4853    2.0780 C   0  0  0  0  0  0  0  0  0  0  0  0
    0.0809   -9.3657    3.3050 C   0  0  1  0  0  0  0  0  0  0  0  0
    1.0966  -10.3563    3.1308 O   0  0  0  0  0  0  0  0  0  0  0  0
    2.4725  -10.0746    3.4114 C   0  0  0  0  0  0  0  0  0  0  0  0
    3.1644   -9.5180    2.1373 C   0  0  0  0  0  0  0  0  0  0  0  0
    3.0850  -11.4845    3.6137 C   0  0  0  0  0  0  0  0  0  0  0  0
    2.1739   -1.3389    6.2725 H   0  0  0  0  0  0  0  0  0  0  0  0
    1.2969   -0.7034    7.7753 H   0  0  0  0  0  0  0  0  0  0  0  0
    0.6027   -2.9186    8.3590 H   0  0  0  0  0  0  0  0  0  0  0  0
    0.6728   -4.2626    6.0515 H   0  0  0  0  0  0  0  0  0  0  0  0
    2.3511   -3.7672    5.9802 H   0  0  0  0  0  0  0  0  0  0  0  0
    4.0674   -5.0997    8.0402 H   0  0  0  0  0  0  0  0  0  0  0  0
    3.0277   -4.0553    8.9804 H   0  0  0  0  0  0  0  0  0  0  0  0
    3.8022   -6.7234    9.7384 H   0  0  0  0  0  0  0  0  0  0  0  0
    1.8528   -4.8395   11.0491 H   0  0  0  0  0  0  0  0  0  0  0  0
    3.5057   -5.2045   11.4327 H   0  0  0  0  0  0  0  0  0  0  0  0
    2.2766   -6.4386   11.6552 H   0  0  0  0  0  0  0  0  0  0  0  0
    1.3019   -7.7116    9.6041 H   0  0  0  0  0  0  0  0  0  0  0  0
    0.0522   -6.3412    7.7245 H   0  0  0  0  0  0  0  0  0  0  0  0
    0.8398   -4.7873    9.8701 H   0  0  0  0  0  0  0  0  0  0  0  0
    3.9870   -8.8561    8.5188 H   0  0  0  0  0  0  0  0  0  0  0  0
    4.5093   -7.2914    7.8826 H   0  0  0  0  0  0  0  0  0  0  0  0
    4.2558   -8.5480    6.8109 H   0  0  0  0  0  0  0  0  0  0  0  0
    1.9292   -5.6860    4.7533 H   0  0  0  0  0  0  0  0  0  0  0  0
    2.2832   -7.4357    3.4813 H   0  0  0  0  0  0  0  0  0  0  0  0
    3.6725   -8.8985    4.7770 H   0  0  0  0  0  0  0  0  0  0  0  0
    1.3773  -10.6025    5.6654 H   0  0  0  0  0  0  0  0  0  0  0  0
    2.7769  -11.4173    6.9267 H   0  0  0  0  0  0  0  0  0  0  0  0
    1.3688  -10.7762    7.9889 H   0  0  0  0  0  0  0  0  0  0  0  0
   -0.4515   -9.7974    6.5730 H   0  0  0  0  0  0  0  0  0  0  0  0
   -0.5407   -8.4383    7.5944 H   0  0  0  0  0  0  0  0  0  0  0  0
   -1.4474   -8.2369    5.2814 H   0  0  0  0  0  0  0  0  0  0  0  0
   -0.4782   -6.9134    5.7431 H   0  0  0  0  0  0  0  0  0  0  0  0
   -1.3152   -7.0417    3.2143 H   0  0  0  0  0  0  0  0  0  0  0  0
    0.2997   -6.4263    2.6961 H   0  0  0  0  0  0  0  0  0  0  0  0
   -1.0874   -8.7167    1.5544 H   0  0  0  0  0  0  0  0  0  0  0  0
    0.6811   -8.4007    1.3997 H   0  0  0  0  0  0  0  0  0  0  0  0
   -0.8558   -9.8334    3.6070 H   0  0  0  0  0  0  0  0  0  0  0  0
    4.2328   -9.3674    2.2990 H   0  0  0  0  0  0  0  0  0  0  0  0
    2.7648   -8.5716    1.7855 H   0  0  0  0  0  0  0  0  0  0  0  0
    3.0603  -10.2151    1.3044 H   0  0  0  0  0  0  0  0  0  0  0  0
    4.1232  -11.4375    3.9512 H   0  0  0  0  0  0  0  0  0  0  0  0
    3.0662  -12.0700    2.6924 H   0  0  0  0  0  0  0  0  0  0  0  0
    2.5243  -12.0729    4.3443 H   0  0  0  0  0  0  0  0  0  0  0  0
  1  2  2  0
  1 31  1  0
  1 32  1  0
  2  3  1  0
  2 33  1  0
  4  3  1  6
  3 34  1  0
  3 35  1  0
  4  9  1  0
  4 13  1  0
  4  5  1  0
  5  6  1  0
  5 36  1  0
  5 37  1  0
  6  7  1  0
  6  8  1  0
  6 38  1  1
  7 39  1  0
  7 40  1  0
  7 41  1  0
  8  9  1  0
  8 11  1  0
  8 42  1  1
  9 10  1  0
  9 43  1  6
 10 44  1  0
 11 19  1  0
 11 12  1  1
 11 13  1  0
 12 45  1  0
 12 46  1  0
 12 47  1  0
 13 14  2  0
 14 15  1  0
 14 48  1  0
 15 23  1  0
 15 16  1  0
 15 49  1  6
 16 28  1  0
 16 17  1  0
 16 50  1  1
 17 18  1  0
 17 19  1  0
 17 51  1  6
 18 52  1  0
 19 20  1  1
 19 21  1  0
 20 53  1  0
 21 22  1  0
 21 54  1  0
 21 55  1  0
 23 22  1  1
 22 56  1  0
 22 57  1  0
 23 26  1  0
 23 24  1  0
 24 25  1  0
 24 58  1  0
 24 59  1  0
 25 26  1  0
 25 60  1  0
 25 61  1  0
 26 27  1  0
 26 62  1  1
 27 28  1  0
 28 29  1  0
 28 30  1  0
 29 63  1  0
 29 64  1  0
 29 65  1  0
 30 66  1  0
 30 67  1  0
 30 68  1  0
M  END
>  <i_m_ct_stereo_status>  (4) 
1

>  <s_m_source_file>  (4) 
/var/tmp/pbs.5076255.sched01/tmp25ygy55i/01wbi4d2b.sdf

>  <i_m_source_file_index>  (4) 
2

>  <i_lp_mmshare_version>  (4) 
48012

>  <i_f3d_flags>  (4) 
0

>  <s_epik_input>  (4) 
W0NIMl09W0NIXVtDSDJdW0NAQF0oW0NAQEhdMVtPSF0pKEMyPVtDSF0zKVtDSDJdW0NAQEhdKFtDSDNdKVtDQEBIXTFbQ0BAXTIoW0NIM10pW0NAQF0oW09IXSkoW0NIMl1bQ0gyXTQpW0NASF0oW09IXSlbQ0BIXShbQ0BIXTNbQ0BAXTQ1NilDKFtDSDNdKShbQ0gzXSlPW0NAQEhdNltDSDJdW0NIMl01

>  <s_epik_cmdline>  (4) 
J2VwaWtfcHl0aG9uJywgJy1waHQnLCAnMi4wJywgJy1waCcsICc3LjAnLCAnLXRuJywgJzgnLCAnLW1hJywgJzIwMCcsICctaW1hZScsICc8aW5maWxlLm1hZT4nLCAnLW9tYWUnLCAnPG91dGZpbGUubWFlPic=

>  <r_lp_tautomer_probability>  (4) 
1

>  <r_epik_Ionization_Penalty>  (4) 
1.16345e-06

>  <r_epik_Ionization_Penalty_Charging>  (4) 
0

>  <r_epik_Ionization_Penalty_Neutral>  (4) 
1.16345e-06

>  <r_epik_State_Penalty>  (4) 
-0

>  <r_epik_Charging_Adjusted_Penalty>  (4) 
0

>  <i_epik_Tot_Q>  (4) 
0

>  <i_epik_Tot_abs_Q>  (4) 
0

>  <s_lp_Force_Field>  (4) 
OPLS3e

>  <r_lp_Energy>  (4) 
99.1312

>  <b_lp_Chiralities_Consistent>  (4) 
1

>  <s_lp_Variant>  (4) 
1:0-1

>  <s_i_glide_gridfile>  (4) 
pfpi4k_grid

>  <i_i_glide_lignum>  (4) 
2

>  <i_i_glide_rotatable_bonds>  (4) 
5

>  <r_i_docking_score>  (4) 
-2.49824

>  <r_i_glide_ligand_efficiency>  (4) 
-0.0832746

>  <r_i_glide_ligand_efficiency_sa>  (4) 
-0.258754

>  <r_i_glide_ligand_efficiency_ln>  (4) 
-0.567627

>  <r_i_glide_gscore>  (4) 
-2.49824

>  <r_i_glide_lipo>  (4) 
0

>  <r_i_glide_hbond>  (4) 
0

>  <r_i_glide_metal>  (4) 
-0

>  <r_i_glide_rewards>  (4) 
-0.582426

>  <r_i_glide_evdw>  (4) 
-13.4962

>  <r_i_glide_ecoul>  (4) 
-9.80462

>  <r_i_glide_erotb>  (4) 
0.229689

>  <r_i_glide_esite>  (4) 
0

>  <r_i_glide_emodel>  (4) 
-26.4969

>  <r_i_glide_energy>  (4) 
-23.3008

>  <r_i_glide_einternal>  (4) 
1.83054

>  <r_i_glide_intrahb_reward>  (4) 
-0

>  <i_i_glide_confnum>  (4) 
3

>  <i_i_glide_posenum>  (4) 
8

>  <r_i_glide_eff_state_penalty>  (4) 
0

>  <ligand_id>  (4) 
1

>  <original_smiles>  (4) 
C=CCC12CC(C)C(C1O)C1(C)C2=CC2C3C(O)C1(O)CCC21CCC1OC3(C)C

>  <smiles>  (4) 
[H]OC1([H])C2([H])C3([H])C([H])=C4C5(C([H])([H])C([H])=C([H])[H])C([H])([H])C([H])(C([H])([H])[H])C([H])(C5([H])O[H])C4(C([H])([H])[H])C1(O[H])C([H])([H])C([H])([H])C31C([H])([H])C([H])([H])C1([H])OC2(C([H])([H])[H])C([H])([H])[H]

$$$$
1:0:1
     RDKit          3D

 68 73  0  0  1  0  0  0  0  0999 V2000
    1.6058    0.8827    1.6777 C   0  0  0  0  0  0  0  0  0  0  0  0
    2.4251   -0.0062    2.2698 C   0  0  0  0  0  0  0  0  0  0  0  0
    2.1930   -1.5081    2.3000 C   0  0  0  0  0  0  0  0  0  0  0  0
    3.2628   -2.3719    1.5730 C   0  0  1  0  0  0  0  0  0  0  0  0
    3.5401   -1.9368    0.1057 C   0  0  0  0  0  0  0  0  0  0  0  0
    4.9683   -2.4630   -0.1795 C   0  0  1  0  0  0  0  0  0  0  0  0
    5.9939   -1.3615   -0.5247 C   0  0  0  0  0  0  0  0  0  0  0  0
    5.2460   -3.3126    1.1031 C   0  0  1  0  0  0  0  0  0  0  0  0
    4.6668   -2.3955    2.1952 C   0  0  1  0  0  0  0  0  0  0  0  0
    5.3170   -1.1553    2.3777 O   0  0  0  0  0  0  0  0  0  0  0  0
    4.2873   -4.5808    1.1663 C   0  0  2  0  0  0  0  0  0  0  0  0
    3.9982   -5.1627   -0.2531 C   0  0  0  0  0  0  0  0  0  0  0  0
    3.0193   -3.8964    1.6565 C   0  0  0  0  0  0  0  0  0  0  0  0
    2.0364   -4.4679    2.3827 C   0  0  0  0  0  0  0  0  0  0  0  0
    1.9469   -5.8851    2.9483 C   0  0  1  0  0  0  0  0  0  0  0  0
    2.4716   -7.0913    2.1342 C   0  0  1  0  0  0  0  0  0  0  0  0
    4.0290   -7.1283    2.0160 C   0  0  1  0  0  0  0  0  0  0  0  0
    4.4165   -7.8671    0.8649 O   0  0  0  0  0  0  0  0  0  0  0  0
    4.7895   -5.7579    2.1194 C   0  0  1  0  0  0  0  0  0  0  0  0
    6.1245   -6.0168    1.7099 O   0  0  0  0  0  0  0  0  0  0  0  0
    4.9838   -5.4540    3.6391 C   0  0  0  0  0  0  0  0  0  0  0  0
    3.7677   -5.1374    4.5495 C   0  0  0  0  0  0  0  0  0  0  0  0
    2.4627   -5.9579    4.3939 C   0  0  1  0  0  0  0  0  0  0  0  0
    1.4205   -5.5855    5.4769 C   0  0  0  0  0  0  0  0  0  0  0  0
    1.1554   -7.0580    5.7692 C   0  0  0  0  0  0  0  0  0  0  0  0
    2.4456   -7.3753    5.0180 C   0  0  1  0  0  0  0  0  0  0  0  0
    2.3699   -8.5183    4.1575 O   0  0  0  0  0  0  0  0  0  0  0  0
    1.9210   -8.4130    2.7971 C   0  0  0  0  0  0  0  0  0  0  0  0
    0.3773   -8.5556    2.7255 C   0  0  0  0  0  0  0  0  0  0  0  0
    2.4782   -9.7012    2.1418 C   0  0  0  0  0  0  0  0  0  0  0  0
    0.7097    0.5654    1.1606 H   0  0  0  0  0  0  0  0  0  0  0  0
    1.8215    1.9413    1.6993 H   0  0  0  0  0  0  0  0  0  0  0  0
    3.3060    0.3624    2.7699 H   0  0  0  0  0  0  0  0  0  0  0  0
    2.1266   -1.7981    3.3480 H   0  0  0  0  0  0  0  0  0  0  0  0
    1.2138   -1.6998    1.8586 H   0  0  0  0  0  0  0  0  0  0  0  0
    2.8012   -2.3586   -0.5746 H   0  0  0  0  0  0  0  0  0  0  0  0
    3.4962   -0.8555   -0.0278 H   0  0  0  0  0  0  0  0  0  0  0  0
    5.0008   -3.0726   -1.0796 H   0  0  0  0  0  0  0  0  0  0  0  0
    5.9690   -0.4964    0.1358 H   0  0  0  0  0  0  0  0  0  0  0  0
    5.7952   -0.9768   -1.5263 H   0  0  0  0  0  0  0  0  0  0  0  0
    7.0079   -1.7682   -0.5143 H   0  0  0  0  0  0  0  0  0  0  0  0
    6.3052   -3.5453    1.2296 H   0  0  0  0  0  0  0  0  0  0  0  0
    4.6667   -2.8518    3.1769 H   0  0  0  0  0  0  0  0  0  0  0  0
    5.2924   -0.6959    1.5534 H   0  0  0  0  0  0  0  0  0  0  0  0
    4.9085   -5.5109   -0.7404 H   0  0  0  0  0  0  0  0  0  0  0  0
    3.4930   -4.4700   -0.9188 H   0  0  0  0  0  0  0  0  0  0  0  0
    3.2983   -5.9863   -0.2427 H   0  0  0  0  0  0  0  0  0  0  0  0
    1.2632   -3.8311    2.7790 H   0  0  0  0  0  0  0  0  0  0  0  0
    0.8660   -5.9893    2.9719 H   0  0  0  0  0  0  0  0  0  0  0  0
    2.0331   -7.0175    1.1409 H   0  0  0  0  0  0  0  0  0  0  0  0
    4.3992   -7.7450    2.8356 H   0  0  0  0  0  0  0  0  0  0  0  0
    4.1049   -8.7558    0.9558 H   0  0  0  0  0  0  0  0  0  0  0  0
    6.4441   -6.7530    2.2072 H   0  0  0  0  0  0  0  0  0  0  0  0
    5.4746   -6.3178    4.0929 H   0  0  0  0  0  0  0  0  0  0  0  0
    5.7172   -4.6572    3.7595 H   0  0  0  0  0  0  0  0  0  0  0  0
    4.1269   -5.2511    5.5760 H   0  0  0  0  0  0  0  0  0  0  0  0
    3.5277   -4.0784    4.4937 H   0  0  0  0  0  0  0  0  0  0  0  0
    1.8622   -5.0805    6.3383 H   0  0  0  0  0  0  0  0  0  0  0  0
    0.5492   -5.0419    5.1100 H   0  0  0  0  0  0  0  0  0  0  0  0
    1.1895   -7.3131    6.8275 H   0  0  0  0  0  0  0  0  0  0  0  0
    0.2424   -7.4271    5.3108 H   0  0  0  0  0  0  0  0  0  0  0  0
    3.2599   -7.5047    5.7314 H   0  0  0  0  0  0  0  0  0  0  0  0
    0.0288   -8.5538    1.6921 H   0  0  0  0  0  0  0  0  0  0  0  0
   -0.1744   -7.7806    3.2479 H   0  0  0  0  0  0  0  0  0  0  0  0
    0.0583   -9.5017    3.1663 H   0  0  0  0  0  0  0  0  0  0  0  0
    2.3163   -9.7156    1.0630 H   0  0  0  0  0  0  0  0  0  0  0  0
    1.9983  -10.5909    2.5526 H   0  0  0  0  0  0  0  0  0  0  0  0
    3.5422   -9.8327    2.3366 H   0  0  0  0  0  0  0  0  0  0  0  0
  1  2  2  0
  1 31  1  0
  1 32  1  0
  2  3  1  0
  2 33  1  0
  4  3  1  1
  3 34  1  0
  3 35  1  0
  4  9  1  0
  4 13  1  0
  4  5  1  0
  5  6  1  0
  5 36  1  0
  5 37  1  0
  6  7  1  0
  6  8  1  0
  6 38  1  6
  7 39  1  0
  7 40  1  0
  7 41  1  0
  8  9  1  0
  8 11  1  0
  8 42  1  1
  9 10  1  0
  9 43  1  1
 10 44  1  0
 11 19  1  0
 11 12  1  6
 11 13  1  0
 12 45  1  0
 12 46  1  0
 12 47  1  0
 13 14  2  0
 14 15  1  0
 14 48  1  0
 15 23  1  0
 15 16  1  0
 15 49  1  1
 16 28  1  0
 16 17  1  0
 16 50  1  6
 17 18  1  0
 17 19  1  0
 17 51  1  1
 18 52  1  0
 19 20  1  6
 19 21  1  0
 20 53  1  0
 21 22  1  0
 21 54  1  0
 21 55  1  0
 23 22  1  6
 22 56  1  0
 22 57  1  0
 23 26  1  0
 23 24  1  0
 24 25  1  0
 24 58  1  0
 24 59  1  0
 25 26  1  0
 25 60  1  0
 25 61  1  0
 26 27  1  0
 26 62  1  1
 27 28  1  0
 28 29  1  0
 28 30  1  0
 29 63  1  0
 29 64  1  0
 29 65  1  0
 30 66  1  0
 30 67  1  0
 30 68  1  0
M  END
>  <i_m_ct_stereo_status>  (5) 
1

>  <s_m_source_file>  (5) 
/var/tmp/pbs.5076255.sched01/tmp25ygy55i/01wbi4d2b.sdf

>  <i_m_source_file_index>  (5) 
2

>  <i_lp_mmshare_version>  (5) 
48012

>  <i_f3d_flags>  (5) 
0

>  <s_epik_input>  (5) 
W0NIMl09W0NIXVtDSDJdW0NAQF0oW0NAQEhdMVtPSF0pKEMyPVtDSF0zKVtDSDJdW0NAQEhdKFtDSDNdKVtDQEBIXTFbQ0BAXTIoW0NIM10pW0NAQF0oW09IXSkoW0NIMl1bQ0gyXTQpW0NASF0oW09IXSlbQ0BIXShbQ0BIXTNbQ0BAXTQ1NilDKFtDSDNdKShbQ0gzXSlPW0NAQEhdNltDSDJdW0NIMl01

>  <s_epik_cmdline>  (5) 
J2VwaWtfcHl0aG9uJywgJy1waHQnLCAnMi4wJywgJy1waCcsICc3LjAnLCAnLXRuJywgJzgnLCAnLW1hJywgJzIwMCcsICctaW1hZScsICc8aW5maWxlLm1hZT4nLCAnLW9tYWUnLCAnPG91dGZpbGUubWFlPic=

>  <r_lp_tautomer_probability>  (5) 
1

>  <r_epik_Ionization_Penalty>  (5) 
1.16345e-06

>  <r_epik_Ionization_Penalty_Charging>  (5) 
0

>  <r_epik_Ionization_Penalty_Neutral>  (5) 
1.16345e-06

>  <r_epik_State_Penalty>  (5) 
-0

>  <r_epik_Charging_Adjusted_Penalty>  (5) 
0

>  <i_epik_Tot_Q>  (5) 
0

>  <i_epik_Tot_abs_Q>  (5) 
0

>  <s_lp_Force_Field>  (5) 
OPLS3e

>  <r_lp_Energy>  (5) 
99.1312

>  <b_lp_Chiralities_Consistent>  (5) 
1

>  <s_lp_Variant>  (5) 
1:0-1

>  <s_i_glide_gridfile>  (5) 
pfpi4k_grid

>  <i_i_glide_lignum>  (5) 
2

>  <i_i_glide_rotatable_bonds>  (5) 
5

>  <r_i_docking_score>  (5) 
-1.84513

>  <r_i_glide_ligand_efficiency>  (5) 
-0.0615044

>  <r_i_glide_ligand_efficiency_sa>  (5) 
-0.191109

>  <r_i_glide_ligand_efficiency_ln>  (5) 
-0.419234

>  <r_i_glide_gscore>  (5) 
-1.84513

>  <r_i_glide_lipo>  (5) 
-0.144513

>  <r_i_glide_hbond>  (5) 
0

>  <r_i_glide_metal>  (5) 
-0

>  <r_i_glide_rewards>  (5) 
-0.582426

>  <r_i_glide_evdw>  (5) 
-22.2091

>  <r_i_glide_ecoul>  (5) 
-1.58286

>  <r_i_glide_erotb>  (5) 
0.229689

>  <r_i_glide_esite>  (5) 
0

>  <r_i_glide_emodel>  (5) 
-26.822

>  <r_i_glide_energy>  (5) 
-23.7919

>  <r_i_glide_einternal>  (5) 
0.495402

>  <r_i_glide_intrahb_reward>  (5) 
-0

>  <i_i_glide_confnum>  (5) 
3

>  <i_i_glide_posenum>  (5) 
3

>  <r_i_glide_eff_state_penalty>  (5) 
0

>  <ligand_id>  (5) 
1

>  <original_smiles>  (5) 
C=CCC12CC(C)C(C1O)C1(C)C2=CC2C3C(O)C1(O)CCC21CCC1OC3(C)C

>  <smiles>  (5) 
[H]OC1([H])C2([H])C3([H])C([H])=C4C5(C([H])([H])C([H])=C([H])[H])C([H])([H])C([H])(C([H])([H])[H])C([H])(C5([H])O[H])C4(C([H])([H])[H])C1(O[H])C([H])([H])C([H])([H])C31C([H])([H])C([H])([H])C1([H])OC2(C([H])([H])[H])C([H])([H])[H]

$$$$
1:0:2
     RDKit          3D

 68 73  0  0  1  0  0  0  0  0999 V2000
    1.7020    0.8678    1.6764 C   0  0  0  0  0  0  0  0  0  0  0  0
    2.5447   -0.0549    2.1677 C   0  0  0  0  0  0  0  0  0  0  0  0
    2.2860   -1.5540    2.1753 C   0  0  0  0  0  0  0  0  0  0  0  0
    3.3643   -2.4340    1.4816 C   0  0  1  0  0  0  0  0  0  0  0  0
    3.6672   -2.0280    0.0131 C   0  0  0  0  0  0  0  0  0  0  0  0
    5.0976   -2.5683   -0.2403 C   0  0  1  0  0  0  0  0  0  0  0  0
    6.1288   -1.4748   -0.5883 C   0  0  0  0  0  0  0  0  0  0  0  0
    5.3506   -3.3940    1.0630 C   0  0  1  0  0  0  0  0  0  0  0  0
    4.7585   -2.4515    2.1250 C   0  0  1  0  0  0  0  0  0  0  0  0
    5.4178   -1.2132    2.2953 O   0  0  0  0  0  0  0  0  0  0  0  0
    4.3857   -4.6551    1.1334 C   0  0  2  0  0  0  0  0  0  0  0  0
    4.1203   -5.2631   -0.2800 C   0  0  0  0  0  0  0  0  0  0  0  0
    3.1134   -3.9575    1.5881 C   0  0  0  0  0  0  0  0  0  0  0  0
    2.1169   -4.5113    2.3082 C   0  0  0  0  0  0  0  0  0  0  0  0
    2.0128   -5.9175    2.9006 C   0  0  1  0  0  0  0  0  0  0  0  0
    2.5475   -7.1396    2.1195 C   0  0  1  0  0  0  0  0  0  0  0  0
    4.1068   -7.1809    2.0249 C   0  0  1  0  0  0  0  0  0  0  0  0
    4.5171   -7.9249    0.8808 O   0  0  0  0  0  0  0  0  0  0  0  0
    4.8645   -5.8123    2.1242 C   0  0  1  0  0  0  0  0  0  0  0  0
    6.1933   -6.0972    1.7274 O   0  0  0  0  0  0  0  0  0  0  0  0
    5.0375   -5.4800    3.6364 C   0  0  0  0  0  0  0  0  0  0  0  0
    3.8076   -5.1441    4.5201 C   0  0  0  0  0  0  0  0  0  0  0  0
    2.5029   -5.9639    4.3566 C   0  0  1  0  0  0  0  0  0  0  0  0
    1.4435   -5.5681    5.4138 C   0  0  0  0  0  0  0  0  0  0  0  0
    1.1684   -7.0332    5.7312 C   0  0  0  0  0  0  0  0  0  0  0  0
    2.4706   -7.3677    5.0094 C   0  0  1  0  0  0  0  0  0  0  0  0
    2.4074   -8.5273    4.1699 O   0  0  0  0  0  0  0  0  0  0  0  0
    1.9815   -8.4471    2.8012 C   0  0  0  0  0  0  0  0  0  0  0  0
    0.4400   -8.5852    2.7146 C   0  0  0  0  0  0  0  0  0  0  0  0
    2.5436   -9.7481    2.1774 C   0  0  0  0  0  0  0  0  0  0  0  0
    0.7559    0.5901    1.2272 H   0  0  0  0  0  0  0  0  0  0  0  0
    1.9491    1.9195    1.7132 H   0  0  0  0  0  0  0  0  0  0  0  0
    3.4699    0.2842    2.6053 H   0  0  0  0  0  0  0  0  0  0  0  0
    2.1780   -1.8467    3.2190 H   0  0  0  0  0  0  0  0  0  0  0  0
    1.3199   -1.7262    1.6994 H   0  0  0  0  0  0  0  0  0  0  0  0
    2.9367   -2.4554   -0.6718 H   0  0  0  0  0  0  0  0  0  0  0  0
    3.6330   -0.9472   -0.1322 H   0  0  0  0  0  0  0  0  0  0  0  0
    5.1426   -3.1926   -1.1285 H   0  0  0  0  0  0  0  0  0  0  0  0
    6.0881   -0.6024    0.0641 H   0  0  0  0  0  0  0  0  0  0  0  0
    5.9331   -1.1054   -1.5962 H   0  0  0  0  0  0  0  0  0  0  0  0
    7.1455   -1.8754   -0.5581 H   0  0  0  0  0  0  0  0  0  0  0  0
    6.4070   -3.6298    1.2118 H   0  0  0  0  0  0  0  0  0  0  0  0
    4.7362   -2.8846    3.1162 H   0  0  0  0  0  0  0  0  0  0  0  0
    6.2730   -1.3821    2.6562 H   0  0  0  0  0  0  0  0  0  0  0  0
    5.0348   -5.6219   -0.7506 H   0  0  0  0  0  0  0  0  0  0  0  0
    3.6277   -4.5798   -0.9655 H   0  0  0  0  0  0  0  0  0  0  0  0
    3.4148   -6.0805   -0.2666 H   0  0  0  0  0  0  0  0  0  0  0  0
    1.3416   -3.8646    2.6796 H   0  0  0  0  0  0  0  0  0  0  0  0
    0.9309   -6.0178    2.9061 H   0  0  0  0  0  0  0  0  0  0  0  0
    2.1259   -7.0830    1.1175 H   0  0  0  0  0  0  0  0  0  0  0  0
    4.4658   -7.7856    2.8581 H   0  0  0  0  0  0  0  0  0  0  0  0
    4.2039   -8.8132    0.9783 H   0  0  0  0  0  0  0  0  0  0  0  0
    6.1256   -6.5094    0.8786 H   0  0  0  0  0  0  0  0  0  0  0  0
    5.5182   -6.3416    4.1046 H   0  0  0  0  0  0  0  0  0  0  0  0
    5.7736   -4.6857    3.7499 H   0  0  0  0  0  0  0  0  0  0  0  0
    4.1507   -5.2406    5.5537 H   0  0  0  0  0  0  0  0  0  0  0  0
    3.5693   -4.0868    4.4382 H   0  0  0  0  0  0  0  0  0  0  0  0
    1.8729   -5.0499    6.2740 H   0  0  0  0  0  0  0  0  0  0  0  0
    0.5795   -5.0300    5.0223 H   0  0  0  0  0  0  0  0  0  0  0  0
    1.1838   -7.2667    6.7942 H   0  0  0  0  0  0  0  0  0  0  0  0
    0.2616   -7.4085    5.2669 H   0  0  0  0  0  0  0  0  0  0  0  0
    3.2708   -7.4844    5.7413 H   0  0  0  0  0  0  0  0  0  0  0  0
    0.1038   -8.6041    1.6793 H   0  0  0  0  0  0  0  0  0  0  0  0
   -0.1193   -7.7977    3.2049 H   0  0  0  0  0  0  0  0  0  0  0  0
    0.1102   -9.5232    3.1608 H   0  0  0  0  0  0  0  0  0  0  0  0
    2.3968   -9.7827    1.0970 H   0  0  0  0  0  0  0  0  0  0  0  0
    2.0513  -10.6266    2.5987 H   0  0  0  0  0  0  0  0  0  0  0  0
    3.6041   -9.8791    2.3910 H   0  0  0  0  0  0  0  0  0  0  0  0
  1  2  2  0
  1 31  1  0
  1 32  1  0
  2  3  1  0
  2 33  1  0
  4  3  1  1
  3 34  1  0
  3 35  1  0
  4  9  1  0
  4 13  1  0
  4  5  1  0
  5  6  1  0
  5 36  1  0
  5 37  1  0
  6  7  1  0
  6  8  1  0
  6 38  1  6
  7 39  1  0
  7 40  1  0
  7 41  1  0
  8  9  1  0
  8 11  1  0
  8 42  1  1
  9 10  1  0
  9 43  1  1
 10 44  1  0
 11 19  1  0
 11 12  1  6
 11 13  1  0
 12 45  1  0
 12 46  1  0
 12 47  1  0
 13 14  2  0
 14 15  1  0
 14 48  1  0
 15 23  1  0
 15 16  1  0
 15 49  1  1
 16 28  1  0
 16 17  1  0
 16 50  1  6
 17 18  1  0
 17 19  1  0
 17 51  1  1
 18 52  1  0
 19 20  1  6
 19 21  1  0
 20 53  1  0
 21 22  1  0
 21 54  1  0
 21 55  1  0
 23 22  1  6
 22 56  1  0
 22 57  1  0
 23 26  1  0
 23 24  1  0
 24 25  1  0
 24 58  1  0
 24 59  1  0
 25 26  1  0
 25 60  1  0
 25 61  1  0
 26 27  1  0
 26 62  1  1
 27 28  1  0
 28 29  1  0
 28 30  1  0
 29 63  1  0
 29 64  1  0
 29 65  1  0
 30 66  1  0
 30 67  1  0
 30 68  1  0
M  END
>  <i_m_ct_stereo_status>  (6) 
1

>  <s_m_source_file>  (6) 
/var/tmp/pbs.5076255.sched01/tmp25ygy55i/01wbi4d2b.sdf

>  <i_m_source_file_index>  (6) 
2

>  <i_lp_mmshare_version>  (6) 
48012

>  <i_f3d_flags>  (6) 
0

>  <s_epik_input>  (6) 
W0NIMl09W0NIXVtDSDJdW0NAQF0oW0NAQEhdMVtPSF0pKEMyPVtDSF0zKVtDSDJdW0NAQEhdKFtDSDNdKVtDQEBIXTFbQ0BAXTIoW0NIM10pW0NAQF0oW09IXSkoW0NIMl1bQ0gyXTQpW0NASF0oW09IXSlbQ0BIXShbQ0BIXTNbQ0BAXTQ1NilDKFtDSDNdKShbQ0gzXSlPW0NAQEhdNltDSDJdW0NIMl01

>  <s_epik_cmdline>  (6) 
J2VwaWtfcHl0aG9uJywgJy1waHQnLCAnMi4wJywgJy1waCcsICc3LjAnLCAnLXRuJywgJzgnLCAnLW1hJywgJzIwMCcsICctaW1hZScsICc8aW5maWxlLm1hZT4nLCAnLW9tYWUnLCAnPG91dGZpbGUubWFlPic=

>  <r_lp_tautomer_probability>  (6) 
1

>  <r_epik_Ionization_Penalty>  (6) 
1.16345e-06

>  <r_epik_Ionization_Penalty_Charging>  (6) 
0

>  <r_epik_Ionization_Penalty_Neutral>  (6) 
1.16345e-06

>  <r_epik_State_Penalty>  (6) 
-0

>  <r_epik_Charging_Adjusted_Penalty>  (6) 
0

>  <i_epik_Tot_Q>  (6) 
0

>  <i_epik_Tot_abs_Q>  (6) 
0

>  <s_lp_Force_Field>  (6) 
OPLS3e

>  <r_lp_Energy>  (6) 
99.1312

>  <b_lp_Chiralities_Consistent>  (6) 
1

>  <s_lp_Variant>  (6) 
1:0-1

>  <s_i_glide_gridfile>  (6) 
pfpi4k_grid

>  <i_i_glide_lignum>  (6) 
2

>  <i_i_glide_rotatable_bonds>  (6) 
5

>  <r_i_docking_score>  (6) 
-1.77882

>  <r_i_glide_ligand_efficiency>  (6) 
-0.0592939

>  <r_i_glide_ligand_efficiency_sa>  (6) 
-0.18424

>  <r_i_glide_ligand_efficiency_ln>  (6) 
-0.404167

>  <r_i_glide_gscore>  (6) 
-1.77882

>  <r_i_glide_lipo>  (6) 
-0.158679

>  <r_i_glide_hbond>  (6) 
0

>  <r_i_glide_metal>  (6) 
-0

>  <r_i_glide_rewards>  (6) 
-0.582426

>  <r_i_glide_evdw>  (6) 
-22.3354

>  <r_i_glide_ecoul>  (6) 
-1.00421

>  <r_i_glide_erotb>  (6) 
0.229689

>  <r_i_glide_esite>  (6) 
0

>  <r_i_glide_emodel>  (6) 
-26.029

>  <r_i_glide_energy>  (6) 
-23.3396

>  <r_i_glide_einternal>  (6) 
0.754299

>  <r_i_glide_intrahb_reward>  (6) 
-0

>  <i_i_glide_confnum>  (6) 
2

>  <i_i_glide_posenum>  (6) 
12

>  <r_i_glide_eff_state_penalty>  (6) 
0

>  <ligand_id>  (6) 
1

>  <original_smiles>  (6) 
C=CCC12CC(C)C(C1O)C1(C)C2=CC2C3C(O)C1(O)CCC21CCC1OC3(C)C

>  <smiles>  (6) 
[H]OC1([H])C2([H])C3([H])C([H])=C4C5(C([H])([H])C([H])=C([H])[H])C([H])([H])C([H])(C([H])([H])[H])C([H])(C5([H])O[H])C4(C([H])([H])[H])C1(O[H])C([H])([H])C([H])([H])C31C([H])([H])C([H])([H])C1([H])OC2(C([H])([H])[H])C([H])([H])[H]

$$$$
2:0:0
     RDKit          3D

 57 60  0  0  1  0  0  0  0  0999 V2000
    2.8674    7.0356    3.9555 C   0  0  0  0  0  0  0  0  0  0  0  0
    2.3532    5.7994    3.7973 C   0  0  0  0  0  0  0  0  0  0  0  0
    3.1479    4.5167    3.9052 C   0  0  0  0  0  0  0  0  0  0  0  0
    2.0664    3.4261    3.8981 C   0  0  1  0  0  0  0  0  0  0  0  0
    2.3667    2.0444    4.5392 C   0  0  2  0  0  0  0  0  0  0  0  0
    3.6611    1.4395    3.9852 C   0  0  0  0  0  0  0  0  0  0  0  0
    3.7715   -0.0693    4.1450 C   0  0  0  0  0  0  0  0  0  0  0  0
    2.7832   -0.8680    4.5669 C   0  0  0  0  0  0  0  0  0  0  0  0
    3.0590   -2.3622    4.7702 C   0  0  0  0  0  0  0  0  0  0  0  0
    1.9240   -3.2146    4.2311 C   0  0  0  0  0  0  0  0  0  0  0  0
    2.1381   -4.2551    3.5873 O   0  0  0  0  0  0  0  0  0  0  0  0
    0.5200   -2.8052    4.6024 C   0  0  0  0  0  0  0  0  0  0  0  0
    0.3031   -1.3244    4.2617 C   0  0  0  0  0  0  0  0  0  0  0  0
    1.3682   -0.3566    4.8735 C   0  0  1  0  0  0  0  0  0  0  0  0
    1.2118   -0.3399    6.4098 C   0  0  0  0  0  0  0  0  0  0  0  0
    1.1756    1.0915    4.2699 C   0  0  1  0  0  0  0  0  0  0  0  0
   -0.1689    1.7499    4.6454 C   0  0  0  0  0  0  0  0  0  0  0  0
   -0.4071    3.1724    4.0560 C   0  0  1  0  0  0  0  0  0  0  0  0
   -1.6148    3.7348    4.5776 O   0  0  0  0  0  0  0  0  0  0  0  0
   -2.8431    3.1001    4.2340 C   0  0  0  0  0  0  0  0  0  0  0  0
   -3.3368    3.4624    2.8374 C   0  0  0  0  0  0  0  0  0  0  0  0
    0.7810    4.1054    4.4280 C   0  0  1  0  0  0  0  0  0  0  0  0
    0.8256    4.3561    5.9690 C   0  0  0  0  0  0  0  0  0  0  0  0
    0.8861    5.4610    3.6687 C   0  0  1  0  0  0  0  0  0  0  0  0
    0.0495    6.5264    4.0880 O   0  0  0  0  0  0  0  0  0  0  0  0
    2.2304    7.9077    3.9290 H   0  0  0  0  0  0  0  0  0  0  0  0
    3.9234    7.1830    4.1004 H   0  0  0  0  0  0  0  0  0  0  0  0
    3.8149    4.4280    3.0485 H   0  0  0  0  0  0  0  0  0  0  0  0
    3.7376    4.5197    4.8222 H   0  0  0  0  0  0  0  0  0  0  0  0
    1.8922    3.2315    2.8371 H   0  0  0  0  0  0  0  0  0  0  0  0
    2.4893    2.1629    5.6139 H   0  0  0  0  0  0  0  0  0  0  0  0
    3.7446    1.6427    2.9219 H   0  0  0  0  0  0  0  0  0  0  0  0
    4.5116    1.8983    4.4893 H   0  0  0  0  0  0  0  0  0  0  0  0
    4.7465   -0.4722    3.9264 H   0  0  0  0  0  0  0  0  0  0  0  0
    3.9899   -2.6402    4.2796 H   0  0  0  0  0  0  0  0  0  0  0  0
    3.1681   -2.5579    5.8365 H   0  0  0  0  0  0  0  0  0  0  0  0
   -0.1884   -3.4332    4.0731 H   0  0  0  0  0  0  0  0  0  0  0  0
    0.3647   -2.9884    5.6662 H   0  0  0  0  0  0  0  0  0  0  0  0
    0.3010   -1.2266    3.1751 H   0  0  0  0  0  0  0  0  0  0  0  0
   -0.7045   -1.0627    4.5856 H   0  0  0  0  0  0  0  0  0  0  0  0
    0.1973   -0.0975    6.7258 H   0  0  0  0  0  0  0  0  0  0  0  0
    1.8880    0.3822    6.8665 H   0  0  0  0  0  0  0  0  0  0  0  0
    1.4515   -1.3081    6.8477 H   0  0  0  0  0  0  0  0  0  0  0  0
    1.1367    0.9598    3.1857 H   0  0  0  0  0  0  0  0  0  0  0  0
   -0.9180    1.0640    4.2767 H   0  0  0  0  0  0  0  0  0  0  0  0
   -0.2945    1.8014    5.7246 H   0  0  0  0  0  0  0  0  0  0  0  0
   -0.4651    3.1057    2.9672 H   0  0  0  0  0  0  0  0  0  0  0  0
   -2.8279    2.0237    4.3330 H   0  0  0  0  0  0  0  0  0  0  0  0
   -3.5545    3.4115    4.9911 H   0  0  0  0  0  0  0  0  0  0  0  0
   -4.2501    2.9206    2.6135 H   0  0  0  0  0  0  0  0  0  0  0  0
   -2.6103    3.1757    2.0837 H   0  0  0  0  0  0  0  0  0  0  0  0
   -3.5377    4.5235    2.7248 H   0  0  0  0  0  0  0  0  0  0  0  0
   -0.0719    4.8736    6.3087 H   0  0  0  0  0  0  0  0  0  0  0  0
    1.6740    4.9741    6.2641 H   0  0  0  0  0  0  0  0  0  0  0  0
    0.8958    3.4407    6.5539 H   0  0  0  0  0  0  0  0  0  0  0  0
    0.6990    5.3203    2.6084 H   0  0  0  0  0  0  0  0  0  0  0  0
    0.1036    7.1998    3.4100 H   0  0  0  0  0  0  0  0  0  0  0  0
  1  2  2  0
  1 26  1  0
  1 27  1  0
  2 24  1  0
  2  3  1  0
  3  4  1  0
  3 28  1  0
  3 29  1  0
  4 22  1  0
  4  5  1  0
  4 30  1  6
  5 16  1  0
  5  6  1  0
  5 31  1  1
  6  7  1  0
  6 32  1  0
  6 33  1  0
  7  8  2  0
  7 34  1  0
  8 14  1  0
  8  9  1  0
  9 10  1  0
  9 35  1  0
  9 36  1  0
 10 11  2  0
 10 12  1  0
 12 13  1  0
 12 37  1  0
 12 38  1  0
 13 14  1  0
 13 39  1  0
 13 40  1  0
 14 15  1  1
 14 16  1  0
 15 41  1  0
 15 42  1  0
 15 43  1  0
 16 17  1  0
 16 44  1  6
 17 18  1  0
 17 45  1  0
 17 46  1  0
 18 19  1  0
 18 22  1  0
 18 47  1  6
 19 20  1  0
 20 21  1  0
 20 48  1  0
 20 49  1  0
 21 50  1  0
 21 51  1  0
 21 52  1  0
 22 23  1  1
 22 24  1  0
 23 53  1  0
 23 54  1  0
 23 55  1  0
 24 25  1  0
 24 56  1  6
 25 57  1  0
M  END
>  <i_m_ct_stereo_status>  (7) 
1

>  <s_m_source_file>  (7) 
/var/tmp/pbs.5076255.sched01/tmp25ygy55i/01wbi4d2b.sdf

>  <i_m_source_file_index>  (7) 
3

>  <i_lp_mmshare_version>  (7) 
48012

>  <i_f3d_flags>  (7) 
0

>  <s_epik_input>  (7) 
W0NIM11bQ0gyXU9bQ0BIXShbQ0gyXVtDQEBIXTEyKVtDQF0oW0NIM10pKFtDQEBIXShbT0hdKUMoPVtDSDJdKVtDSDJdMylbQ0BASF0zW0NAQEhdMVtDSDJdW0NIXT1DKFtDQEBdMjRbQ0gzXSlbQ0gyXUMoPU8pW0NIMl1bQ0gyXTQ=

>  <s_epik_cmdline>  (7) 
J2VwaWtfcHl0aG9uJywgJy1waHQnLCAnMi4wJywgJy1waCcsICc3LjAnLCAnLXRuJywgJzgnLCAnLW1hJywgJzIwMCcsICctaW1hZScsICc8aW5maWxlLm1hZT4nLCAnLW9tYWUnLCAnPG91dGZpbGUubWFlPic=

>  <r_lp_tautomer_probability>  (7) 
1

>  <r_epik_Ionization_Penalty>  (7) 
8.31119e-08

>  <r_epik_Ionization_Penalty_Charging>  (7) 
0

>  <r_epik_Ionization_Penalty_Neutral>  (7) 
8.31119e-08

>  <r_epik_State_Penalty>  (7) 
-0

>  <r_epik_Charging_Adjusted_Penalty>  (7) 
0

>  <i_epik_Tot_Q>  (7) 
0

>  <i_epik_Tot_abs_Q>  (7) 
0

>  <s_lp_Force_Field>  (7) 
OPLS3e

>  <r_lp_Energy>  (7) 
40.1691

>  <b_lp_Chiralities_Consistent>  (7) 
1

>  <s_lp_Variant>  (7) 
2:0-1

>  <s_i_glide_gridfile>  (7) 
pfpi4k_grid

>  <i_i_glide_lignum>  (7) 
3

>  <i_i_glide_rotatable_bonds>  (7) 
3

>  <r_i_docking_score>  (7) 
-2.96936

>  <r_i_glide_ligand_efficiency>  (7) 
-0.118774

>  <r_i_glide_ligand_efficiency_sa>  (7) 
-0.347298

>  <r_i_glide_ligand_efficiency_ln>  (7) 
-0.703827

>  <r_i_glide_gscore>  (7) 
-2.96936

>  <r_i_glide_lipo>  (7) 
-0.0578185

>  <r_i_glide_hbond>  (7) 
0

>  <r_i_glide_metal>  (7) 
-0

>  <r_i_glide_rewards>  (7) 
-1.06801

>  <r_i_glide_evdw>  (7) 
-15.4737

>  <r_i_glide_ecoul>  (7) 
-7.87901

>  <r_i_glide_erotb>  (7) 
0.112003

>  <r_i_glide_esite>  (7) 
0

>  <r_i_glide_emodel>  (7) 
-26.7933

>  <r_i_glide_energy>  (7) 
-23.3527

>  <r_i_glide_einternal>  (7) 
2.35778

>  <r_i_glide_intrahb_reward>  (7) 
-0

>  <i_i_glide_confnum>  (7) 
5

>  <i_i_glide_posenum>  (7) 
16

>  <r_i_glide_eff_state_penalty>  (7) 
0

>  <ligand_id>  (7) 
2

>  <original_smiles>  (7) 
C=C1CC2C3CC=C4CC(=O)CCC4(C)C3CC(OCC)C2(C)C1O

>  <smiles>  (7) 
[H]OC1([H])C(=C([H])[H])C([H])([H])C2([H])C3([H])C([H])([H])C([H])=C4C([H])([H])C(=O)C([H])([H])C([H])([H])C4(C([H])([H])[H])C3([H])C([H])([H])C([H])(OC([H])([H])C([H])([H])[H])C12C([H])([H])[H]

$$$$
2:0:1
     RDKit          3D

 57 60  0  0  1  0  0  0  0  0999 V2000
   -1.9594    3.1364    5.1251 C   0  0  0  0  0  0  0  0  0  0  0  0
   -1.3359    2.0275    4.6958 C   0  0  0  0  0  0  0  0  0  0  0  0
   -0.1677    2.0202    3.7290 C   0  0  0  0  0  0  0  0  0  0  0  0
    0.3158    0.5602    3.7706 C   0  0  1  0  0  0  0  0  0  0  0  0
    1.7718    0.2152    3.3830 C   0  0  2  0  0  0  0  0  0  0  0  0
    2.1393    0.8083    2.0080 C   0  0  0  0  0  0  0  0  0  0  0  0
    3.3247    0.1370    1.3470 C   0  0  0  0  0  0  0  0  0  0  0  0
    3.9141   -0.9931    1.7772 C   0  0  0  0  0  0  0  0  0  0  0  0
    5.1593   -1.5069    1.0574 C   0  0  0  0  0  0  0  0  0  0  0  0
    5.1290   -3.0173    0.8573 C   0  0  0  0  0  0  0  0  0  0  0  0
    5.4723   -3.5365   -0.2005 O   0  0  0  0  0  0  0  0  0  0  0  0
    4.7155   -3.8456    2.0648 C   0  0  0  0  0  0  0  0  0  0  0  0
    3.4037   -3.3106    2.6638 C   0  0  0  0  0  0  0  0  0  0  0  0
    3.4113   -1.7855    2.9969 C   0  0  1  0  0  0  0  0  0  0  0  0
    4.4054   -1.5199    4.1490 C   0  0  0  0  0  0  0  0  0  0  0  0
    1.9515   -1.3338    3.3873 C   0  0  1  0  0  0  0  0  0  0  0  0
    1.4091   -1.9780    4.6984 C   0  0  0  0  0  0  0  0  0  0  0  0
   -0.0320   -1.5255    5.0810 C   0  0  1  0  0  0  0  0  0  0  0  0
   -0.4838   -2.0503    6.3286 O   0  0  0  0  0  0  0  0  0  0  0  0
   -0.3764   -3.4580    6.4769 C   0  0  0  0  0  0  0  0  0  0  0  0
   -1.3448   -3.9168    7.5673 C   0  0  0  0  0  0  0  0  0  0  0  0
   -0.1152    0.0173    5.1498 C   0  0  1  0  0  0  0  0  0  0  0  0
    0.7585    0.5719    6.3180 C   0  0  0  0  0  0  0  0  0  0  0  0
   -1.5444    0.6179    5.2146 C   0  0  1  0  0  0  0  0  0  0  0  0
   -2.1579    0.5912    6.4913 O   0  0  0  0  0  0  0  0  0  0  0  0
   -2.7454    3.0903    5.8693 H   0  0  0  0  0  0  0  0  0  0  0  0
   -1.6843    4.1029    4.7326 H   0  0  0  0  0  0  0  0  0  0  0  0
   -0.5004    2.3134    2.7318 H   0  0  0  0  0  0  0  0  0  0  0  0
    0.5943    2.7244    4.0582 H   0  0  0  0  0  0  0  0  0  0  0  0
   -0.3048    0.0573    3.0284 H   0  0  0  0  0  0  0  0  0  0  0  0
    2.4533    0.6479    4.1130 H   0  0  0  0  0  0  0  0  0  0  0  0
    1.2976    0.7466    1.3160 H   0  0  0  0  0  0  0  0  0  0  0  0
    2.3841    1.8645    2.1340 H   0  0  0  0  0  0  0  0  0  0  0  0
    3.7236    0.6436    0.4822 H   0  0  0  0  0  0  0  0  0  0  0  0
    5.2545   -1.0220    0.0854 H   0  0  0  0  0  0  0  0  0  0  0  0
    6.0502   -1.2600    1.6291 H   0  0  0  0  0  0  0  0  0  0  0  0
    4.6067   -4.8887    1.7780 H   0  0  0  0  0  0  0  0  0  0  0  0
    5.5183   -3.8008    2.7965 H   0  0  0  0  0  0  0  0  0  0  0  0
    2.5995   -3.5292    1.9583 H   0  0  0  0  0  0  0  0  0  0  0  0
    3.1823   -3.8990    3.5570 H   0  0  0  0  0  0  0  0  0  0  0  0
    4.1960   -2.1355    5.0267 H   0  0  0  0  0  0  0  0  0  0  0  0
    4.3818   -0.4733    4.4519 H   0  0  0  0  0  0  0  0  0  0  0  0
    5.4291   -1.7381    3.8511 H   0  0  0  0  0  0  0  0  0  0  0  0
    1.3060   -1.6988    2.5828 H   0  0  0  0  0  0  0  0  0  0  0  0
    1.4072   -3.0569    4.5678 H   0  0  0  0  0  0  0  0  0  0  0  0
    2.0743   -1.7715    5.5329 H   0  0  0  0  0  0  0  0  0  0  0  0
   -0.7190   -1.8856    4.3129 H   0  0  0  0  0  0  0  0  0  0  0  0
   -0.5927   -3.9776    5.5449 H   0  0  0  0  0  0  0  0  0  0  0  0
    0.6483   -3.7097    6.7584 H   0  0  0  0  0  0  0  0  0  0  0  0
   -1.2855   -4.9934    7.7218 H   0  0  0  0  0  0  0  0  0  0  0  0
   -2.3739   -3.6797    7.2937 H   0  0  0  0  0  0  0  0  0  0  0  0
   -1.1149   -3.4410    8.5193 H   0  0  0  0  0  0  0  0  0  0  0  0
    0.4079    0.2025    7.2839 H   0  0  0  0  0  0  0  0  0  0  0  0
    0.7442    1.6609    6.3692 H   0  0  0  0  0  0  0  0  0  0  0  0
    1.8054    0.2829    6.2418 H   0  0  0  0  0  0  0  0  0  0  0  0
   -2.1953    0.1034    4.5063 H   0  0  0  0  0  0  0  0  0  0  0  0
   -1.8328    1.3425    6.9691 H   0  0  0  0  0  0  0  0  0  0  0  0
  1  2  2  0
  1 26  1  0
  1 27  1  0
  2 24  1  0
  2  3  1  0
  3  4  1  0
  3 28  1  0
  3 29  1  0
  4 22  1  0
  4  5  1  0
  4 30  1  6
  5 16  1  0
  5  6  1  0
  5 31  1  1
  6  7  1  0
  6 32  1  0
  6 33  1  0
  7  8  2  0
  7 34  1  0
  8 14  1  0
  8  9  1  0
  9 10  1  0
  9 35  1  0
  9 36  1  0
 10 11  2  0
 10 12  1  0
 12 13  1  0
 12 37  1  0
 12 38  1  0
 13 14  1  0
 13 39  1  0
 13 40  1  0
 14 15  1  1
 14 16  1  0
 15 41  1  0
 15 42  1  0
 15 43  1  0
 16 17  1  0
 16 44  1  6
 17 18  1  0
 17 45  1  0
 17 46  1  0
 18 19  1  0
 18 22  1  0
 18 47  1  6
 19 20  1  0
 20 21  1  0
 20 48  1  0
 20 49  1  0
 21 50  1  0
 21 51  1  0
 21 52  1  0
 22 23  1  1
 22 24  1  0
 23 53  1  0
 23 54  1  0
 23 55  1  0
 24 25  1  0
 24 56  1  6
 25 57  1  0
M  END
>  <i_m_ct_stereo_status>  (8) 
1

>  <s_m_source_file>  (8) 
/var/tmp/pbs.5076255.sched01/tmp25ygy55i/01wbi4d2b.sdf

>  <i_m_source_file_index>  (8) 
3

>  <i_lp_mmshare_version>  (8) 
48012

>  <i_f3d_flags>  (8) 
0

>  <s_epik_input>  (8) 
W0NIM11bQ0gyXU9bQ0BIXShbQ0gyXVtDQEBIXTEyKVtDQF0oW0NIM10pKFtDQEBIXShbT0hdKUMoPVtDSDJdKVtDSDJdMylbQ0BASF0zW0NAQEhdMVtDSDJdW0NIXT1DKFtDQEBdMjRbQ0gzXSlbQ0gyXUMoPU8pW0NIMl1bQ0gyXTQ=

>  <s_epik_cmdline>  (8) 
J2VwaWtfcHl0aG9uJywgJy1waHQnLCAnMi4wJywgJy1waCcsICc3LjAnLCAnLXRuJywgJzgnLCAnLW1hJywgJzIwMCcsICctaW1hZScsICc8aW5maWxlLm1hZT4nLCAnLW9tYWUnLCAnPG91dGZpbGUubWFlPic=

>  <r_lp_tautomer_probability>  (8) 
1

>  <r_epik_Ionization_Penalty>  (8) 
8.31119e-08

>  <r_epik_Ionization_Penalty_Charging>  (8) 
0

>  <r_epik_Ionization_Penalty_Neutral>  (8) 
8.31119e-08

>  <r_epik_State_Penalty>  (8) 
-0

>  <r_epik_Charging_Adjusted_Penalty>  (8) 
0

>  <i_epik_Tot_Q>  (8) 
0

>  <i_epik_Tot_abs_Q>  (8) 
0

>  <s_lp_Force_Field>  (8) 
OPLS3e

>  <r_lp_Energy>  (8) 
40.1691

>  <b_lp_Chiralities_Consistent>  (8) 
1

>  <s_lp_Variant>  (8) 
2:0-1

>  <s_i_glide_gridfile>  (8) 
pfpi4k_grid

>  <i_i_glide_lignum>  (8) 
3

>  <i_i_glide_rotatable_bonds>  (8) 
3

>  <r_i_docking_score>  (8) 
-2.88085

>  <r_i_glide_ligand_efficiency>  (8) 
-0.115234

>  <r_i_glide_ligand_efficiency_sa>  (8) 
-0.336947

>  <r_i_glide_ligand_efficiency_ln>  (8) 
-0.682849

>  <r_i_glide_gscore>  (8) 
-2.88085

>  <r_i_glide_lipo>  (8) 
-0.158454

>  <r_i_glide_hbond>  (8) 
0

>  <r_i_glide_metal>  (8) 
-0

>  <r_i_glide_rewards>  (8) 
-1.10739

>  <r_i_glide_evdw>  (8) 
-20.485

>  <r_i_glide_ecoul>  (8) 
-5.0051

>  <r_i_glide_erotb>  (8) 
0.160005

>  <r_i_glide_esite>  (8) 
0

>  <r_i_glide_emodel>  (8) 
-29.115

>  <r_i_glide_energy>  (8) 
-25.4901

>  <r_i_glide_einternal>  (8) 
2.09204

>  <r_i_glide_intrahb_reward>  (8) 
-0

>  <i_i_glide_confnum>  (8) 
5

>  <i_i_glide_posenum>  (8) 
19

>  <r_i_glide_eff_state_penalty>  (8) 
0

>  <ligand_id>  (8) 
2

>  <original_smiles>  (8) 
C=C1CC2C3CC=C4CC(=O)CCC4(C)C3CC(OCC)C2(C)C1O

>  <smiles>  (8) 
[H]OC1([H])C(=C([H])[H])C([H])([H])C2([H])C3([H])C([H])([H])C([H])=C4C([H])([H])C(=O)C([H])([H])C([H])([H])C4(C([H])([H])[H])C3([H])C([H])([H])C([H])(OC([H])([H])C([H])([H])[H])C12C([H])([H])[H]

$$$$
2:0:2
     RDKit          3D

 57 60  0  0  1  0  0  0  0  0999 V2000
   -3.0110    3.3120    2.7483 C   0  0  0  0  0  0  0  0  0  0  0  0
   -2.1205    2.5184    3.3571 C   0  0  0  0  0  0  0  0  0  0  0  0
   -1.1772    1.5854    2.6372 C   0  0  0  0  0  0  0  0  0  0  0  0
   -0.2635    1.0609    3.7575 C   0  0  1  0  0  0  0  0  0  0  0  0
    1.1606    0.5541    3.4349 C   0  0  2  0  0  0  0  0  0  0  0  0
    1.1193   -0.5029    2.3217 C   0  0  0  0  0  0  0  0  0  0  0  0
    2.3365   -1.3989    2.2671 C   0  0  0  0  0  0  0  0  0  0  0  0
    3.3141   -1.4293    3.1959 C   0  0  0  0  0  0  0  0  0  0  0  0
    4.5370   -2.3141    2.9711 C   0  0  0  0  0  0  0  0  0  0  0  0
    4.9428   -3.0537    4.2394 C   0  0  0  0  0  0  0  0  0  0  0  0
    5.2769   -4.2344    4.2224 O   0  0  0  0  0  0  0  0  0  0  0  0
    4.9989   -2.2286    5.5152 C   0  0  0  0  0  0  0  0  0  0  0  0
    3.6887   -1.4526    5.7062 C   0  0  0  0  0  0  0  0  0  0  0  0
    3.2645   -0.5823    4.4826 C   0  0  1  0  0  0  0  0  0  0  0  0
    4.2787    0.5687    4.2991 C   0  0  0  0  0  0  0  0  0  0  0  0
    1.8118   -0.0236    4.7281 C   0  0  1  0  0  0  0  0  0  0  0  0
    1.6834    0.9611    5.9328 C   0  0  0  0  0  0  0  0  0  0  0  0
    0.2411    1.5029    6.1504 C   0  0  1  0  0  0  0  0  0  0  0  0
    0.1672    2.4779    7.1862 O   0  0  0  0  0  0  0  0  0  0  0  0
    0.3035    1.9748    8.5068 C   0  0  0  0  0  0  0  0  0  0  0  0
    0.0140    3.1144    9.4854 C   0  0  0  0  0  0  0  0  0  0  0  0
   -0.2925    2.1462    4.8505 C   0  0  1  0  0  0  0  0  0  0  0  0
    0.5217    3.4215    4.4679 C   0  0  0  0  0  0  0  0  0  0  0  0
   -1.8001    2.4723    4.8363 C   0  0  1  0  0  0  0  0  0  0  0  0
   -2.1537    3.6467    5.5338 O   0  0  0  0  0  0  0  0  0  0  0  0
   -3.6287    4.0097    3.2762 H   0  0  0  0  0  0  0  0  0  0  0  0
   -3.1390    3.2701    1.6837 H   0  0  0  0  0  0  0  0  0  0  0  0
   -1.7386    0.7820    2.1610 H   0  0  0  0  0  0  0  0  0  0  0  0
   -0.6289    2.1307    1.8693 H   0  0  0  0  0  0  0  0  0  0  0  0
   -0.7982    0.1974    4.1614 H   0  0  0  0  0  0  0  0  0  0  0  0
    1.7639    1.3827    3.0684 H   0  0  0  0  0  0  0  0  0  0  0  0
    0.2481   -1.1423    2.4415 H   0  0  0  0  0  0  0  0  0  0  0  0
    1.0322    0.0015    1.3566 H   0  0  0  0  0  0  0  0  0  0  0  0
    2.4052   -2.0148    1.3829 H   0  0  0  0  0  0  0  0  0  0  0  0
    4.3397   -3.0418    2.1834 H   0  0  0  0  0  0  0  0  0  0  0  0
    5.3768   -1.7033    2.6497 H   0  0  0  0  0  0  0  0  0  0  0  0
    5.1929   -2.8786    6.3668 H   0  0  0  0  0  0  0  0  0  0  0  0
    5.8411   -1.5444    5.4484 H   0  0  0  0  0  0  0  0  0  0  0  0
    2.9054   -2.1770    5.9322 H   0  0  0  0  0  0  0  0  0  0  0  0
    3.7960   -0.8361    6.5998 H   0  0  0  0  0  0  0  0  0  0  0  0
    4.4029    1.1633    5.2066 H   0  0  0  0  0  0  0  0  0  0  0  0
    3.9659    1.2389    3.4972 H   0  0  0  0  0  0  0  0  0  0  0  0
    5.2685    0.1994    4.0277 H   0  0  0  0  0  0  0  0  0  0  0  0
    1.2073   -0.8930    4.9943 H   0  0  0  0  0  0  0  0  0  0  0  0
    2.0007    0.4596    6.8428 H   0  0  0  0  0  0  0  0  0  0  0  0
    2.3561    1.8071    5.8092 H   0  0  0  0  0  0  0  0  0  0  0  0
   -0.4104    0.6686    6.4133 H   0  0  0  0  0  0  0  0  0  0  0  0
   -0.3931    1.1548    8.6825 H   0  0  0  0  0  0  0  0  0  0  0  0
    1.3136    1.5966    8.6719 H   0  0  0  0  0  0  0  0  0  0  0  0
    0.1059    2.7799   10.5186 H   0  0  0  0  0  0  0  0  0  0  0  0
   -0.9977    3.4976    9.3491 H   0  0  0  0  0  0  0  0  0  0  0  0
    0.7090    3.9416    9.3365 H   0  0  0  0  0  0  0  0  0  0  0  0
    0.4387    4.1902    5.2391 H   0  0  0  0  0  0  0  0  0  0  0  0
    0.1679    3.8711    3.5382 H   0  0  0  0  0  0  0  0  0  0  0  0
    1.5839    3.2299    4.3314 H   0  0  0  0  0  0  0  0  0  0  0  0
   -2.3539    1.6391    5.2626 H   0  0  0  0  0  0  0  0  0  0  0  0
   -1.8571    3.5336    6.4292 H   0  0  0  0  0  0  0  0  0  0  0  0
  1  2  2  0
  1 26  1  0
  1 27  1  0
  2 24  1  0
  2  3  1  0
  3  4  1  0
  3 28  1  0
  3 29  1  0
  4 22  1  0
  4  5  1  0
  4 30  1  1
  5 16  1  0
  5  6  1  0
  5 31  1  6
  6  7  1  0
  6 32  1  0
  6 33  1  0
  7  8  2  0
  7 34  1  0
  8 14  1  0
  8  9  1  0
  9 10  1  0
  9 35  1  0
  9 36  1  0
 10 11  2  0
 10 12  1  0
 12 13  1  0
 12 37  1  0
 12 38  1  0
 13 14  1  0
 13 39  1  0
 13 40  1  0
 14 15  1  6
 14 16  1  0
 15 41  1  0
 15 42  1  0
 15 43  1  0
 16 17  1  0
 16 44  1  1
 17 18  1  0
 17 45  1  0
 17 46  1  0
 18 19  1  0
 18 22  1  0
 18 47  1  1
 19 20  1  0
 20 21  1  0
 20 48  1  0
 20 49  1  0
 21 50  1  0
 21 51  1  0
 21 52  1  0
 22 23  1  6
 22 24  1  0
 23 53  1  0
 23 54  1  0
 23 55  1  0
 24 25  1  0
 24 56  1  1
 25 57  1  0
M  END
>  <i_m_ct_stereo_status>  (9) 
1

>  <s_m_source_file>  (9) 
/var/tmp/pbs.5076255.sched01/tmp25ygy55i/01wbi4d2b.sdf

>  <i_m_source_file_index>  (9) 
3

>  <i_lp_mmshare_version>  (9) 
48012

>  <i_f3d_flags>  (9) 
0

>  <s_epik_input>  (9) 
W0NIM11bQ0gyXU9bQ0BIXShbQ0gyXVtDQEBIXTEyKVtDQF0oW0NIM10pKFtDQEBIXShbT0hdKUMoPVtDSDJdKVtDSDJdMylbQ0BASF0zW0NAQEhdMVtDSDJdW0NIXT1DKFtDQEBdMjRbQ0gzXSlbQ0gyXUMoPU8pW0NIMl1bQ0gyXTQ=

>  <s_epik_cmdline>  (9) 
J2VwaWtfcHl0aG9uJywgJy1waHQnLCAnMi4wJywgJy1waCcsICc3LjAnLCAnLXRuJywgJzgnLCAnLW1hJywgJzIwMCcsICctaW1hZScsICc8aW5maWxlLm1hZT4nLCAnLW9tYWUnLCAnPG91dGZpbGUubWFlPic=

>  <r_lp_tautomer_probability>  (9) 
1

>  <r_epik_Ionization_Penalty>  (9) 
8.31119e-08

>  <r_epik_Ionization_Penalty_Charging>  (9) 
0

>  <r_epik_Ionization_Penalty_Neutral>  (9) 
8.31119e-08

>  <r_epik_State_Penalty>  (9) 
-0

>  <r_epik_Charging_Adjusted_Penalty>  (9) 
0

>  <i_epik_Tot_Q>  (9) 
0

>  <i_epik_Tot_abs_Q>  (9) 
0

>  <s_lp_Force_Field>  (9) 
OPLS3e

>  <r_lp_Energy>  (9) 
40.1691

>  <b_lp_Chiralities_Consistent>  (9) 
1

>  <s_lp_Variant>  (9) 
2:0-1

>  <s_i_glide_gridfile>  (9) 
pfpi4k_grid

>  <i_i_glide_lignum>  (9) 
3

>  <i_i_glide_rotatable_bonds>  (9) 
3

>  <r_i_docking_score>  (9) 
-2.50834

>  <r_i_glide_ligand_efficiency>  (9) 
-0.100334

>  <r_i_glide_ligand_efficiency_sa>  (9) 
-0.293377

>  <r_i_glide_ligand_efficiency_ln>  (9) 
-0.594552

>  <r_i_glide_gscore>  (9) 
-2.50834

>  <r_i_glide_lipo>  (9) 
-0.0719585

>  <r_i_glide_hbond>  (9) 
0

>  <r_i_glide_metal>  (9) 
-0

>  <r_i_glide_rewards>  (9) 
-1.60858

>  <r_i_glide_evdw>  (9) 
-15.5153

>  <r_i_glide_ecoul>  (9) 
-1.41362

>  <r_i_glide_erotb>  (9) 
0.160005

>  <r_i_glide_esite>  (9) 
0

>  <r_i_glide_emodel>  (9) 
-25.8171

>  <r_i_glide_energy>  (9) 
-16.9289

>  <r_i_glide_einternal>  (9) 
0.538186

>  <r_i_glide_intrahb_reward>  (9) 
-0.5

>  <i_i_glide_confnum>  (9) 
4

>  <i_i_glide_posenum>  (9) 
10

>  <r_i_glide_eff_state_penalty>  (9) 
0

>  <ligand_id>  (9) 
2

>  <original_smiles>  (9) 
C=C1CC2C3CC=C4CC(=O)CCC4(C)C3CC(OCC)C2(C)C1O

>  <smiles>  (9) 
[H]OC1([H])C(=C([H])[H])C([H])([H])C2([H])C3([H])C([H])([H])C([H])=C4C([H])([H])C(=O)C([H])([H])C([H])([H])C4(C([H])([H])[H])C3([H])C([H])([H])C([H])(OC([H])([H])C([H])([H])[H])C12C([H])([H])[H]

$$$$
3:0:0
     RDKit          3D

 53 57  0  0  1  0  0  0  0  0999 V2000
    3.3993   -1.0707   -2.7510 C   0  0  0  0  0  0  0  0  0  0  0  0
    4.1579   -1.7527   -1.6002 C   0  0  2  0  0  0  0  0  0  0  0  0
    4.2616   -0.9063   -0.3095 C   0  0  0  0  0  0  0  0  0  0  0  0
    5.4870   -1.4951    0.3991 C   0  0  0  0  0  0  0  0  0  0  0  0
    5.9191   -2.6506   -0.5426 C   0  0  2  0  0  0  0  0  0  0  0  0
    7.3689   -3.1108   -0.3311 C   0  0  0  0  0  0  0  0  0  0  0  0
    5.6298   -2.0283   -1.8998 C   0  0  0  0  0  0  0  0  0  0  0  0
    4.8803   -3.7986   -0.5320 C   0  0  1  0  0  0  0  0  0  0  0  0
    4.5619   -4.2209    0.8391 N   0  0  0  0  0  0  0  0  0  0  0  0
    4.9943   -5.5709    1.2713 C   0  0  2  0  0  0  0  0  0  0  0  0
    4.0149   -6.6460    0.7374 C   0  0  1  0  0  0  0  0  0  0  0  0
    4.4861   -8.0486    1.1787 C   0  0  0  0  0  0  0  0  0  0  0  0
    4.5015   -8.1238    2.7163 C   0  0  2  0  0  0  0  0  0  0  0  0
    3.0865   -7.8423    3.2738 C   0  0  0  0  0  0  0  0  0  0  0  0
    2.6279   -6.4374    2.8359 C   0  0  2  0  0  0  0  0  0  0  0  0
    2.5905   -6.3865    1.2920 C   0  0  0  0  0  0  0  0  0  0  0  0
    3.6196   -5.3856    3.3943 C   0  0  0  0  0  0  0  0  0  0  0  0
    5.0325   -5.6548    2.8189 C   0  0  1  0  0  0  0  0  0  0  0  0
    5.4903   -7.0676    3.2571 C   0  0  0  0  0  0  0  0  0  0  0  0
    3.6594   -3.1715   -1.2565 C   0  0  1  0  0  0  0  0  0  0  0  0
    2.4797   -3.1414   -0.4685 O   0  0  0  0  0  0  0  0  0  0  0  0
    2.3513   -0.9286   -2.4892 H   0  0  0  0  0  0  0  0  0  0  0  0
    3.4289   -1.6574   -3.6697 H   0  0  0  0  0  0  0  0  0  0  0  0
    3.8092   -0.0855   -2.9748 H   0  0  0  0  0  0  0  0  0  0  0  0
    4.4515    0.1388   -0.5418 H   0  0  0  0  0  0  0  0  0  0  0  0
    3.3635   -0.9315    0.3098 H   0  0  0  0  0  0  0  0  0  0  0  0
    6.2659   -0.7358    0.4653 H   0  0  0  0  0  0  0  0  0  0  0  0
    5.2630   -1.7966    1.4240 H   0  0  0  0  0  0  0  0  0  0  0  0
    7.6645   -3.8544   -1.0721 H   0  0  0  0  0  0  0  0  0  0  0  0
    7.4941   -3.5601    0.6546 H   0  0  0  0  0  0  0  0  0  0  0  0
    8.0698   -2.2789   -0.3990 H   0  0  0  0  0  0  0  0  0  0  0  0
    5.7859   -2.7074   -2.7420 H   0  0  0  0  0  0  0  0  0  0  0  0
    6.1853   -1.1083   -2.0668 H   0  0  0  0  0  0  0  0  0  0  0  0
    5.2330   -4.6419   -1.1290 H   0  0  0  0  0  0  0  0  0  0  0  0
    4.9456   -3.5322    1.4683 H   0  0  0  0  0  0  0  0  0  0  0  0
    6.0052   -5.7488    0.8945 H   0  0  0  0  0  0  0  0  0  0  0  0
    3.9997   -6.6165   -0.3504 H   0  0  0  0  0  0  0  0  0  0  0  0
    3.8313   -8.8189    0.7721 H   0  0  0  0  0  0  0  0  0  0  0  0
    5.4836   -8.2526    0.7908 H   0  0  0  0  0  0  0  0  0  0  0  0
    4.8193   -9.1233    3.0267 H   0  0  0  0  0  0  0  0  0  0  0  0
    2.3808   -8.5944    2.9215 H   0  0  0  0  0  0  0  0  0  0  0  0
    3.1003   -7.9073    4.3636 H   0  0  0  0  0  0  0  0  0  0  0  0
    1.6286   -6.2417    3.2291 H   0  0  0  0  0  0  0  0  0  0  0  0
    2.2003   -5.4233    0.9631 H   0  0  0  0  0  0  0  0  0  0  0  0
    1.8967   -7.1325    0.9015 H   0  0  0  0  0  0  0  0  0  0  0  0
    3.2768   -4.3779    3.1526 H   0  0  0  0  0  0  0  0  0  0  0  0
    3.6524   -5.4333    4.4837 H   0  0  0  0  0  0  0  0  0  0  0  0
    5.7410   -4.9222    3.2075 H   0  0  0  0  0  0  0  0  0  0  0  0
    5.5250   -7.1286    4.3441 H   0  0  0  0  0  0  0  0  0  0  0  0
    6.4965   -7.2837    2.8979 H   0  0  0  0  0  0  0  0  0  0  0  0
    3.4531   -3.7296   -2.1691 H   0  0  0  0  0  0  0  0  0  0  0  0
    1.9491   -2.3875   -0.7285 H   0  0  0  0  0  0  0  0  0  0  0  0
    3.5531   -4.1716    0.8978 H   0  0  0  0  0  0  0  0  0  0  0  0
  2  1  1  6
  1 22  1  0
  1 23  1  0
  1 24  1  0
  2  7  1  0
  2 20  1  0
  2  3  1  0
  3  4  1  0
  3 25  1  0
  3 26  1  0
  4  5  1  0
  4 27  1  0
  4 28  1  0
  5  6  1  6
  5  7  1  0
  5  8  1  0
  6 29  1  0
  6 30  1  0
  6 31  1  0
  7 32  1  0
  7 33  1  0
  8  9  1  0
  8 20  1  0
  8 34  1  6
  9 10  1  0
  9 35  1  0
  9 53  1  0
 10 18  1  0
 10 11  1  0
 10 36  1  6
 11 16  1  0
 11 12  1  0
 11 37  1  6
 12 13  1  0
 12 38  1  0
 12 39  1  0
 13 19  1  0
 13 14  1  0
 13 40  1  6
 14 15  1  0
 14 41  1  0
 14 42  1  0
 15 16  1  0
 15 17  1  0
 15 43  1  1
 16 44  1  0
 16 45  1  0
 17 18  1  0
 17 46  1  0
 17 47  1  0
 18 19  1  0
 18 48  1  1
 19 49  1  0
 19 50  1  0
 20 21  1  0
 20 51  1  6
 21 52  1  0
M  CHG  1   9   1
M  END
>  <i_m_ct_stereo_status>  (10) 
1

>  <s_m_source_file>  (10) 
/var/tmp/pbs.5076255.sched01/tmp25ygy55i/01wbi4d2b.sdf

>  <i_m_source_file_index>  (10) 
4

>  <i_lp_mmshare_version>  (10) 
48012

>  <i_f3d_flags>  (10) 
0

>  <s_epik_input>  (10) 
W0NIM11bQ0BdMTJbQ0gyXVtDSDJdW0NAXShbQ0gzXSkoW0NIMl0xKVtDQEhdKFtDQEhdMltPSF0pW05IXVtDQEhdKFtDQEhdMzQpW0NAQEhdNVtDSDJdW0NASF0oW0NIMl00KVtDSDJdW0NASF0oW0NIMl0zKVtDSDJdNQ==

>  <s_epik_cmdline>  (10) 
J2VwaWtfcHl0aG9uJywgJy1waHQnLCAnMi4wJywgJy1waCcsICc3LjAnLCAnLXRuJywgJzgnLCAnLW1hJywgJzIwMCcsICctaW1hZScsICc8aW5maWxlLm1hZT4nLCAnLW9tYWUnLCAnPG91dGZpbGUubWFlPic=

>  <r_epik_Ionization_Penalty>  (10) 
0.000847014

>  <r_epik_Ionization_Penalty_Charging>  (10) 
0.000847008

>  <r_epik_Ionization_Penalty_Neutral>  (10) 
6.02372e-09

>  <r_epik_State_Penalty>  (10) 
0.000545996

>  <r_epik_Charging_Adjusted_Penalty>  (10) 
0.001393

>  <i_epik_Tot_Q>  (10) 
1

>  <i_epik_Tot_abs_Q>  (10) 
1

>  <s_lp_Force_Field>  (10) 
OPLS3e

>  <r_lp_Energy>  (10) 
33.1026

>  <b_lp_Chiralities_Consistent>  (10) 
1

>  <s_lp_Variant>  (10) 
3:0-1

>  <s_i_glide_gridfile>  (10) 
pfpi4k_grid

>  <i_i_glide_lignum>  (10) 
4

>  <i_i_glide_rotatable_bonds>  (10) 
3

>  <r_i_docking_score>  (10) 
-3.46645

>  <r_i_glide_ligand_efficiency>  (10) 
-0.165069

>  <r_i_glide_ligand_efficiency_sa>  (10) 
-0.455413

>  <r_i_glide_ligand_efficiency_ln>  (10) 
-0.857072

>  <r_i_glide_gscore>  (10) 
-3.46645

>  <r_i_glide_lipo>  (10) 
-0.430575

>  <r_i_glide_hbond>  (10) 
-0.16

>  <r_i_glide_metal>  (10) 
-0

>  <r_i_glide_rewards>  (10) 
-1.42866

>  <r_i_glide_evdw>  (10) 
-23.4145

>  <r_i_glide_ecoul>  (10) 
-4.72353

>  <r_i_glide_erotb>  (10) 
0.43204

>  <r_i_glide_esite>  (10) 
0

>  <r_i_glide_emodel>  (10) 
-32.6471

>  <r_i_glide_energy>  (10) 
-28.138

>  <r_i_glide_einternal>  (10) 
2.99597

>  <r_i_glide_intrahb_reward>  (10) 
-0

>  <i_i_glide_confnum>  (10) 
6

>  <i_i_glide_posenum>  (10) 
37

>  <r_i_glide_eff_state_penalty>  (10) 
0

>  <ligand_id>  (10) 
3

>  <original_smiles>  (10) 
CC12CCC(C)(C1)C(NC1C3CC4CC(C3)CC1C4)C2O

>  <smiles>  (10) 
[H]OC1([H])C2(C([H])([H])[H])C([H])([H])C([H])([H])C(C([H])([H])[H])(C2([H])[H])C1([H])[N+]([H])([H])C1([H])C2([H])C([H])([H])C3([H])C([H])([H])C([H])(C2([H])[H])C([H])([H])C1([H])C3([H])[H]

$$$$
3:0:1
     RDKit          3D

 53 57  0  0  1  0  0  0  0  0999 V2000
    2.2511   -6.3920    3.5044 C   0  0  0  0  0  0  0  0  0  0  0  0
    3.1649   -5.8195    2.4144 C   0  0  2  0  0  0  0  0  0  0  0  0
    3.9266   -6.8892    1.6016 C   0  0  0  0  0  0  0  0  0  0  0  0
    5.1131   -6.1033    1.0206 C   0  0  0  0  0  0  0  0  0  0  0  0
    4.8707   -4.6661    1.5364 C   0  0  2  0  0  0  0  0  0  0  0  0
    6.1218   -3.7780    1.5178 C   0  0  0  0  0  0  0  0  0  0  0  0
    4.3155   -4.9567    2.9296 C   0  0  0  0  0  0  0  0  0  0  0  0
    3.6352   -4.0285    0.8371 C   0  0  1  0  0  0  0  0  0  0  0  0
    3.6884   -4.1023   -0.6262 N   0  0  0  0  0  0  0  0  0  0  0  0
    3.0278   -2.9954   -1.3909 C   0  0  2  0  0  0  0  0  0  0  0  0
    2.8695   -3.4476   -2.8567 C   0  0  1  0  0  0  0  0  0  0  0  0
    2.2090   -2.4050   -3.7496 C   0  0  0  0  0  0  0  0  0  0  0  0
    3.0483   -1.1433   -3.7669 C   0  0  2  0  0  0  0  0  0  0  0  0
    4.4216   -1.4864   -4.2979 C   0  0  0  0  0  0  0  0  0  0  0  0
    5.0745   -2.6073   -3.4535 C   0  0  2  0  0  0  0  0  0  0  0  0
    4.2203   -3.8515   -3.4805 C   0  0  0  0  0  0  0  0  0  0  0  0
    5.2850   -2.0876   -2.0048 C   0  0  0  0  0  0  0  0  0  0  0  0
    3.9009   -1.7367   -1.4050 C   0  0  1  0  0  0  0  0  0  0  0  0
    3.2218   -0.6793   -2.3107 C   0  0  0  0  0  0  0  0  0  0  0  0
    2.4614   -4.8295    1.4571 C   0  0  1  0  0  0  0  0  0  0  0  0
    1.6487   -5.4637    0.4826 O   0  0  0  0  0  0  0  0  0  0  0  0
    1.4346   -6.9645    3.0683 H   0  0  0  0  0  0  0  0  0  0  0  0
    1.8150   -5.6058    4.1184 H   0  0  0  0  0  0  0  0  0  0  0  0
    2.7991   -7.0573    4.1701 H   0  0  0  0  0  0  0  0  0  0  0  0
    4.2857   -7.6936    2.2459 H   0  0  0  0  0  0  0  0  0  0  0  0
    3.3160   -7.3526    0.8281 H   0  0  0  0  0  0  0  0  0  0  0  0
    6.0468   -6.4983    1.4230 H   0  0  0  0  0  0  0  0  0  0  0  0
    5.1791   -6.1783   -0.0636 H   0  0  0  0  0  0  0  0  0  0  0  0
    5.9324   -2.8031    1.9710 H   0  0  0  0  0  0  0  0  0  0  0  0
    6.4776   -3.6104    0.5047 H   0  0  0  0  0  0  0  0  0  0  0  0
    6.9390   -4.2432    2.0673 H   0  0  0  0  0  0  0  0  0  0  0  0
    3.9898   -4.0608    3.4671 H   0  0  0  0  0  0  0  0  0  0  0  0
    5.0142   -5.5038    3.5625 H   0  0  0  0  0  0  0  0  0  0  0  0
    3.5510   -2.9896    1.1596 H   0  0  0  0  0  0  0  0  0  0  0  0
    4.6617   -4.1188   -0.9059 H   0  0  0  0  0  0  0  0  0  0  0  0
    2.0415   -2.8333   -0.9524 H   0  0  0  0  0  0  0  0  0  0  0  0
    2.1345   -4.2414   -2.8322 H   0  0  0  0  0  0  0  0  0  0  0  0
    2.0442   -2.8642   -4.6954 H   0  0  0  0  0  0  0  0  0  0  0  0
    1.2261   -2.2575   -3.3125 H   0  0  0  0  0  0  0  0  0  0  0  0
    2.5388   -0.3946   -4.3781 H   0  0  0  0  0  0  0  0  0  0  0  0
    4.2579   -1.7941   -5.3317 H   0  0  0  0  0  0  0  0  0  0  0  0
    5.0114   -0.6192   -4.2913 H   0  0  0  0  0  0  0  0  0  0  0  0
    6.0534   -2.9209   -3.8289 H   0  0  0  0  0  0  0  0  0  0  0  0
    4.6867   -4.6343   -2.9087 H   0  0  0  0  0  0  0  0  0  0  0  0
    4.0857   -4.2088   -4.5004 H   0  0  0  0  0  0  0  0  0  0  0  0
    5.8194   -2.8486   -1.4205 H   0  0  0  0  0  0  0  0  0  0  0  0
    5.9036   -1.1988   -2.0058 H   0  0  0  0  0  0  0  0  0  0  0  0
    4.0083   -1.3430   -0.3850 H   0  0  0  0  0  0  0  0  0  0  0  0
    3.8402    0.1974   -2.3510 H   0  0  0  0  0  0  0  0  0  0  0  0
    2.2582   -0.3966   -1.9101 H   0  0  0  0  0  0  0  0  0  0  0  0
    1.8260   -4.1488    2.0324 H   0  0  0  0  0  0  0  0  0  0  0  0
    2.1855   -6.0661   -0.0405 H   0  0  0  0  0  0  0  0  0  0  0  0
    3.2893   -4.9759   -0.9394 H   0  0  0  0  0  0  0  0  0  0  0  0
  2  1  1  1
  1 22  1  0
  1 23  1  0
  1 24  1  0
  2  7  1  0
  2 20  1  0
  2  3  1  0
  3  4  1  0
  3 25  1  0
  3 26  1  0
  4  5  1  0
  4 27  1  0
  4 28  1  0
  5  6  1  1
  5  7  1  0
  5  8  1  0
  6 29  1  0
  6 30  1  0
  6 31  1  0
  7 32  1  0
  7 33  1  0
  8  9  1  0
  8 20  1  0
  8 34  1  6
  9 10  1  0
  9 35  1  0
  9 53  1  0
 10 18  1  0
 10 11  1  0
 10 36  1  1
 11 16  1  0
 11 12  1  0
 11 37  1  1
 12 13  1  0
 12 38  1  0
 12 39  1  0
 13 19  1  0
 13 14  1  0
 13 40  1  6
 14 15  1  0
 14 41  1  0
 14 42  1  0
 15 16  1  0
 15 17  1  0
 15 43  1  6
 16 44  1  0
 16 45  1  0
 17 18  1  0
 17 46  1  0
 17 47  1  0
 18 19  1  0
 18 48  1  1
 19 49  1  0
 19 50  1  0
 20 21  1  0
 20 51  1  1
 21 52  1  0
M  CHG  1   9   1
M  END
>  <i_m_ct_stereo_status>  (11) 
1

>  <s_m_source_file>  (11) 
/var/tmp/pbs.5076255.sched01/tmp25ygy55i/01wbi4d2b.sdf

>  <i_m_source_file_index>  (11) 
4

>  <i_lp_mmshare_version>  (11) 
48012

>  <i_f3d_flags>  (11) 
0

>  <s_epik_input>  (11) 
W0NIM11bQ0BdMTJbQ0gyXVtDSDJdW0NAXShbQ0gzXSkoW0NIMl0xKVtDQEhdKFtDQEhdMltPSF0pW05IXVtDQEhdKFtDQEhdMzQpW0NAQEhdNVtDSDJdW0NASF0oW0NIMl00KVtDSDJdW0NASF0oW0NIMl0zKVtDSDJdNQ==

>  <s_epik_cmdline>  (11) 
J2VwaWtfcHl0aG9uJywgJy1waHQnLCAnMi4wJywgJy1waCcsICc3LjAnLCAnLXRuJywgJzgnLCAnLW1hJywgJzIwMCcsICctaW1hZScsICc8aW5maWxlLm1hZT4nLCAnLW9tYWUnLCAnPG91dGZpbGUubWFlPic=

>  <r_epik_Ionization_Penalty>  (11) 
0.000847014

>  <r_epik_Ionization_Penalty_Charging>  (11) 
0.000847008

>  <r_epik_Ionization_Penalty_Neutral>  (11) 
6.02372e-09

>  <r_epik_State_Penalty>  (11) 
0.000545996

>  <r_epik_Charging_Adjusted_Penalty>  (11) 
0.001393

>  <i_epik_Tot_Q>  (11) 
1

>  <i_epik_Tot_abs_Q>  (11) 
1

>  <s_lp_Force_Field>  (11) 
OPLS3e

>  <r_lp_Energy>  (11) 
33.1026

>  <b_lp_Chiralities_Consistent>  (11) 
1

>  <s_lp_Variant>  (11) 
3:0-1

>  <s_i_glide_gridfile>  (11) 
pfpi4k_grid

>  <i_i_glide_lignum>  (11) 
4

>  <i_i_glide_rotatable_bonds>  (11) 
3

>  <r_i_docking_score>  (11) 
-2.76086

>  <r_i_glide_ligand_efficiency>  (11) 
-0.13147

>  <r_i_glide_ligand_efficiency_sa>  (11) 
-0.362715

>  <r_i_glide_ligand_efficiency_ln>  (11) 
-0.682618

>  <r_i_glide_gscore>  (11) 
-2.76086

>  <r_i_glide_lipo>  (11) 
-0.787731

>  <r_i_glide_hbond>  (11) 
-0.113778

>  <r_i_glide_metal>  (11) 
-0

>  <r_i_glide_rewards>  (11) 
-1.42866

>  <r_i_glide_evdw>  (11) 
5.24729

>  <r_i_glide_ecoul>  (11) 
-7.33463

>  <r_i_glide_erotb>  (11) 
0.43204

>  <r_i_glide_esite>  (11) 
-0.0249074

>  <r_i_glide_emodel>  (11) 
-6.08057

>  <r_i_glide_energy>  (11) 
-2.08734

>  <r_i_glide_einternal>  (11) 
0.554211

>  <r_i_glide_intrahb_reward>  (11) 
-0

>  <i_i_glide_confnum>  (11) 
3

>  <i_i_glide_posenum>  (11) 
2

>  <r_i_glide_eff_state_penalty>  (11) 
0

>  <ligand_id>  (11) 
3

>  <original_smiles>  (11) 
CC12CCC(C)(C1)C(NC1C3CC4CC(C3)CC1C4)C2O

>  <smiles>  (11) 
[H]OC1([H])C2(C([H])([H])[H])C([H])([H])C([H])([H])C(C([H])([H])[H])(C2([H])[H])C1([H])[N+]([H])([H])C1([H])C2([H])C([H])([H])C3([H])C([H])([H])C([H])(C2([H])[H])C([H])([H])C1([H])C3([H])[H]

$$$$
3:0:2
     RDKit          3D

 53 57  0  0  1  0  0  0  0  0999 V2000
    3.6026   -5.4442    4.5200 C   0  0  0  0  0  0  0  0  0  0  0  0
    4.2571   -5.2987    3.1377 C   0  0  2  0  0  0  0  0  0  0  0  0
    4.0904   -6.5389    2.2264 C   0  0  0  0  0  0  0  0  0  0  0  0
    5.2494   -6.3913    1.2264 C   0  0  0  0  0  0  0  0  0  0  0  0
    5.9222   -5.0656    1.6634 C   0  0  2  0  0  0  0  0  0  0  0  0
    7.3647   -4.9051    1.1538 C   0  0  0  0  0  0  0  0  0  0  0  0
    5.7808   -5.1671    3.1727 C   0  0  0  0  0  0  0  0  0  0  0  0
    5.0166   -3.8492    1.3804 C   0  0  1  0  0  0  0  0  0  0  0  0
    4.5243   -3.8327   -0.0185 N   0  0  0  0  0  0  0  0  0  0  0  0
    4.1673   -2.5514   -0.6317 C   0  0  2  0  0  0  0  0  0  0  0  0
    3.1750   -2.7923   -1.7955 C   0  0  1  0  0  0  0  0  0  0  0  0
    2.7496   -1.4963   -2.4905 C   0  0  0  0  0  0  0  0  0  0  0  0
    3.9459   -0.7890   -3.0620 C   0  0  2  0  0  0  0  0  0  0  0  0
    4.4994   -1.6508   -4.1768 C   0  0  0  0  0  0  0  0  0  0  0  0
    5.0392   -2.9509   -3.5042 C   0  0  2  0  0  0  0  0  0  0  0  0
    3.8703   -3.6684   -2.8602 C   0  0  0  0  0  0  0  0  0  0  0  0
    6.0634   -2.7396   -2.3369 C   0  0  0  0  0  0  0  0  0  0  0  0
    5.4145   -1.8497   -1.2407 C   0  0  1  0  0  0  0  0  0  0  0  0
    4.9467   -0.5533   -1.9019 C   0  0  0  0  0  0  0  0  0  0  0  0
    3.8683   -4.0037    2.3951 C   0  0  1  0  0  0  0  0  0  0  0  0
    2.5797   -4.0745    1.7900 O   0  0  0  0  0  0  0  0  0  0  0  0
    2.5157   -5.5041    4.4402 H   0  0  0  0  0  0  0  0  0  0  0  0
    3.8371   -4.5977    5.1689 H   0  0  0  0  0  0  0  0  0  0  0  0
    3.9444   -6.3456    5.0332 H   0  0  0  0  0  0  0  0  0  0  0  0
    4.2167   -7.4671    2.7934 H   0  0  0  0  0  0  0  0  0  0  0  0
    3.1202   -6.5919    1.7291 H   0  0  0  0  0  0  0  0  0  0  0  0
    5.9445   -7.2251    1.3434 H   0  0  0  0  0  0  0  0  0  0  0  0
    4.9090   -6.4170    0.1896 H   0  0  0  0  0  0  0  0  0  0  0  0
    7.8442   -4.0080    1.5527 H   0  0  0  0  0  0  0  0  0  0  0  0
    7.4057   -4.8322    0.0659 H   0  0  0  0  0  0  0  0  0  0  0  0
    7.9846   -5.7544    1.4403 H   0  0  0  0  0  0  0  0  0  0  0  0
    6.1142   -4.2760    3.7112 H   0  0  0  0  0  0  0  0  0  0  0  0
    6.2813   -6.0430    3.5867 H   0  0  0  0  0  0  0  0  0  0  0  0
    5.5653   -2.9273    1.5744 H   0  0  0  0  0  0  0  0  0  0  0  0
    5.2342   -4.2574   -0.6106 H   0  0  0  0  0  0  0  0  0  0  0  0
    3.6778   -1.9109    0.1408 H   0  0  0  0  0  0  0  0  0  0  0  0
    2.2748   -3.2671   -1.3954 H   0  0  0  0  0  0  0  0  0  0  0  0
    2.0438   -1.7906   -3.2806 H   0  0  0  0  0  0  0  0  0  0  0  0
    2.3884   -0.6902   -1.8385 H   0  0  0  0  0  0  0  0  0  0  0  0
    3.6149    0.1636   -3.4787 H   0  0  0  0  0  0  0  0  0  0  0  0
    3.6640   -1.8887   -4.8543 H   0  0  0  0  0  0  0  0  0  0  0  0
    5.2031   -1.0295   -4.7445 H   0  0  0  0  0  0  0  0  0  0  0  0
    5.4526   -3.6358   -4.2532 H   0  0  0  0  0  0  0  0  0  0  0  0
    4.2927   -4.6125   -2.4781 H   0  0  0  0  0  0  0  0  0  0  0  0
    3.1206   -3.9182   -3.6016 H   0  0  0  0  0  0  0  0  0  0  0  0
    6.3550   -3.7169   -1.9238 H   0  0  0  0  0  0  0  0  0  0  0  0
    6.9714   -2.2701   -2.6998 H   0  0  0  0  0  0  0  0  0  0  0  0
    6.1156   -1.6441   -0.4296 H   0  0  0  0  0  0  0  0  0  0  0  0
    5.8090   -0.0513   -2.3066 H   0  0  0  0  0  0  0  0  0  0  0  0
    4.5047    0.1415   -1.1589 H   0  0  0  0  0  0  0  0  0  0  0  0
    3.8789   -3.1559    3.0734 H   0  0  0  0  0  0  0  0  0  0  0  0
    2.3268   -3.2342    1.4499 H   0  0  0  0  0  0  0  0  0  0  0  0
    3.7191   -4.4669   -0.0220 H   0  0  0  0  0  0  0  0  0  0  0  0
  2  1  1  1
  1 22  1  0
  1 23  1  0
  1 24  1  0
  2  7  1  0
  2 20  1  0
  2  3  1  0
  3  4  1  0
  3 25  1  0
  3 26  1  0
  4  5  1  0
  4 27  1  0
  4 28  1  0
  5  6  1  1
  5  7  1  0
  5  8  1  0
  6 29  1  0
  6 30  1  0
  6 31  1  0
  7 32  1  0
  7 33  1  0
  8  9  1  0
  8 20  1  0
  8 34  1  1
  9 10  1  0
  9 35  1  0
  9 53  1  0
 10 18  1  0
 10 11  1  0
 10 36  1  1
 11 16  1  0
 11 12  1  0
 11 37  1  1
 12 13  1  0
 12 38  1  0
 12 39  1  0
 13 19  1  0
 13 14  1  0
 13 40  1  6
 14 15  1  0
 14 41  1  0
 14 42  1  0
 15 16  1  0
 15 17  1  0
 15 43  1  6
 16 44  1  0
 16 45  1  0
 17 18  1  0
 17 46  1  0
 17 47  1  0
 18 19  1  0
 18 48  1  1
 19 49  1  0
 19 50  1  0
 20 21  1  0
 20 51  1  1
 21 52  1  0
M  CHG  1   9   1
M  END
>  <i_m_ct_stereo_status>  (12) 
1

>  <s_m_source_file>  (12) 
/var/tmp/pbs.5076255.sched01/tmp25ygy55i/01wbi4d2b.sdf

>  <i_m_source_file_index>  (12) 
4

>  <i_lp_mmshare_version>  (12) 
48012

>  <i_f3d_flags>  (12) 
0

>  <s_epik_input>  (12) 
W0NIM11bQ0BdMTJbQ0gyXVtDSDJdW0NAXShbQ0gzXSkoW0NIMl0xKVtDQEhdKFtDQEhdMltPSF0pW05IXVtDQEhdKFtDQEhdMzQpW0NAQEhdNVtDSDJdW0NASF0oW0NIMl00KVtDSDJdW0NASF0oW0NIMl0zKVtDSDJdNQ==

>  <s_epik_cmdline>  (12) 
J2VwaWtfcHl0aG9uJywgJy1waHQnLCAnMi4wJywgJy1waCcsICc3LjAnLCAnLXRuJywgJzgnLCAnLW1hJywgJzIwMCcsICctaW1hZScsICc8aW5maWxlLm1hZT4nLCAnLW9tYWUnLCAnPG91dGZpbGUubWFlPic=

>  <r_epik_Ionization_Penalty>  (12) 
0.000847014

>  <r_epik_Ionization_Penalty_Charging>  (12) 
0.000847008

>  <r_epik_Ionization_Penalty_Neutral>  (12) 
6.02372e-09

>  <r_epik_State_Penalty>  (12) 
0.000545996

>  <r_epik_Charging_Adjusted_Penalty>  (12) 
0.001393

>  <i_epik_Tot_Q>  (12) 
1

>  <i_epik_Tot_abs_Q>  (12) 
1

>  <s_lp_Force_Field>  (12) 
OPLS3e

>  <r_lp_Energy>  (12) 
33.1026

>  <b_lp_Chiralities_Consistent>  (12) 
1

>  <s_lp_Variant>  (12) 
3:0-1

>  <s_i_glide_gridfile>  (12) 
pfpi4k_grid

>  <i_i_glide_lignum>  (12) 
4

>  <i_i_glide_rotatable_bonds>  (12) 
3

>  <r_i_docking_score>  (12) 
-2.06147

>  <r_i_glide_ligand_efficiency>  (12) 
-0.0981651

>  <r_i_glide_ligand_efficiency_sa>  (12) 
-0.27083

>  <r_i_glide_ligand_efficiency_ln>  (12) 
-0.509693

>  <r_i_glide_gscore>  (12) 
-2.06147

>  <r_i_glide_lipo>  (12) 
-0.652523

>  <r_i_glide_hbond>  (12) 
0

>  <r_i_glide_metal>  (12) 
-0

>  <r_i_glide_rewards>  (12) 
-1.42866

>  <r_i_glide_evdw>  (12) 
1.02467

>  <r_i_glide_ecoul>  (12) 
-3.09039

>  <r_i_glide_erotb>  (12) 
0.43204

>  <r_i_glide_esite>  (12) 
0

>  <r_i_glide_emodel>  (12) 
-3.797

>  <r_i_glide_energy>  (12) 
-2.06573

>  <r_i_glide_einternal>  (12) 
0.766955

>  <r_i_glide_intrahb_reward>  (12) 
-0

>  <i_i_glide_confnum>  (12) 
1

>  <i_i_glide_posenum>  (12) 
1

>  <r_i_glide_eff_state_penalty>  (12) 
0

>  <ligand_id>  (12) 
3

>  <original_smiles>  (12) 
CC12CCC(C)(C1)C(NC1C3CC4CC(C3)CC1C4)C2O

>  <smiles>  (12) 
[H]OC1([H])C2(C([H])([H])[H])C([H])([H])C([H])([H])C(C([H])([H])[H])(C2([H])[H])C1([H])[N+]([H])([H])C1([H])C2([H])C([H])([H])C3([H])C([H])([H])C([H])(C2([H])[H])C([H])([H])C1([H])C3([H])[H]

$$$$
4:0:0
     RDKit          3D

 28 29  0  0  1  0  0  0  0  0999 V2000
    4.3464   -4.3727   -0.2411 C   0  0  0  0  0  0  0  0  0  0  0  0
    4.9172   -3.0608   -0.5458 N   0  0  0  0  0  0  0  0  0  0  0  0
    6.3759   -3.2182   -0.6216 C   0  0  0  0  0  0  0  0  0  0  0  0
    6.6634   -3.0749   -2.1223 C   0  0  0  0  0  0  0  0  0  0  0  0
    5.3827   -2.9654   -2.7382 O   0  0  0  0  0  0  0  0  0  0  0  0
    4.5090   -2.4583   -1.8002 C   0  0  0  0  0  0  0  0  0  0  0  0
    4.6858   -0.8955   -1.8122 C   0  0  0  0  0  0  0  0  0  0  0  0
    4.2889   -0.2952   -3.1827 C   0  0  0  0  0  0  0  0  0  0  0  0
    2.8544   -0.6048   -3.5450 C   0  0  0  0  0  0  0  0  0  0  0  0
    2.6732   -2.1128   -3.5957 C   0  0  0  0  0  0  0  0  0  0  0  0
    3.0418   -2.7746   -2.2474 C   0  0  0  0  0  0  0  0  0  0  0  0
    4.7691   -4.7946    0.6808 H   0  0  0  0  0  0  0  0  0  0  0  0
    4.5412   -5.0896   -1.0267 H   0  0  0  0  0  0  0  0  0  0  0  0
    3.2802   -4.2763   -0.0839 H   0  0  0  0  0  0  0  0  0  0  0  0
    6.8413   -2.4095   -0.0733 H   0  0  0  0  0  0  0  0  0  0  0  0
    6.7417   -4.1488   -0.1971 H   0  0  0  0  0  0  0  0  0  0  0  0
    7.2265   -2.1634   -2.2951 H   0  0  0  0  0  0  0  0  0  0  0  0
    7.2628   -3.8509   -2.5552 H   0  0  0  0  0  0  0  0  0  0  0  0
    4.0707   -0.4605   -1.0194 H   0  0  0  0  0  0  0  0  0  0  0  0
    5.7183   -0.6109   -1.5831 H   0  0  0  0  0  0  0  0  0  0  0  0
    4.4370    0.7805   -3.1716 H   0  0  0  0  0  0  0  0  0  0  0  0
    4.9291   -0.7036   -3.9604 H   0  0  0  0  0  0  0  0  0  0  0  0
    2.2181   -0.1833   -2.7876 H   0  0  0  0  0  0  0  0  0  0  0  0
    2.5859   -0.1505   -4.4932 H   0  0  0  0  0  0  0  0  0  0  0  0
    1.6371   -2.3457   -3.8140 H   0  0  0  0  0  0  0  0  0  0  0  0
    3.2505   -2.5590   -4.4026 H   0  0  0  0  0  0  0  0  0  0  0  0
    2.8946   -3.8518   -2.3759 H   0  0  0  0  0  0  0  0  0  0  0  0
    2.3490   -2.4065   -1.4884 H   0  0  0  0  0  0  0  0  0  0  0  0
  1  2  1  0
  1 12  1  0
  1 13  1  0
  1 14  1  0
  2  6  1  0
  2  3  1  0
  3  4  1  0
  3 15  1  0
  3 16  1  0
  4  5  1  0
  4 17  1  0
  4 18  1  0
  5  6  1  0
  6 11  1  0
  6  7  1  0
  7  8  1  0
  7 19  1  0
  7 20  1  0
  8  9  1  0
  8 21  1  0
  8 22  1  0
  9 10  1  0
  9 23  1  0
  9 24  1  0
 10 11  1  0
 10 25  1  0
 10 26  1  0
 11 27  1  0
 11 28  1  0
M  END
>  <i_m_ct_stereo_status>  (13) 
1

>  <s_m_source_file>  (13) 
/var/tmp/pbs.5076255.sched01/tmp25ygy55i/01wbi4d2b.sdf

>  <i_m_source_file_index>  (13) 
5

>  <i_lp_mmshare_version>  (13) 
48012

>  <i_f3d_flags>  (13) 
0

>  <s_epik_input>  (13) 
TzFbQ0gyXVtDSDJdTihbQ0gzXSlDMTJbQ0gyXVtDSDJdW0NIMl1bQ0gyXVtDSDJdMg==

>  <s_epik_cmdline>  (13) 
J2VwaWtfcHl0aG9uJywgJy1waHQnLCAnMi4wJywgJy1waCcsICc3LjAnLCAnLXRuJywgJzgnLCAnLW1hJywgJzIwMCcsICctaW1hZScsICc8aW5maWxlLm1hZT4nLCAnLW9tYWUnLCAnPG91dGZpbGUubWFlPic=

>  <r_epik_Ionization_Penalty>  (13) 
0.19287

>  <r_epik_Ionization_Penalty_Charging>  (13) 
0

>  <r_epik_Ionization_Penalty_Neutral>  (13) 
0.19287

>  <r_epik_State_Penalty>  (13) 
0.182564

>  <r_epik_Charging_Adjusted_Penalty>  (13) 
0.182564

>  <i_epik_Tot_Q>  (13) 
0

>  <i_epik_Tot_abs_Q>  (13) 
0

>  <s_lp_Force_Field>  (13) 
OPLS3e

>  <r_lp_Energy>  (13) 
11.1581

>  <b_lp_Chiralities_Consistent>  (13) 
1

>  <s_lp_Variant>  (13) 
4:0-1

>  <s_i_glide_gridfile>  (13) 
pfpi4k_grid

>  <i_i_glide_lignum>  (13) 
5

>  <i_i_glide_rotatable_bonds>  (13) 
0

>  <r_i_docking_score>  (13) 
-3.71249

>  <r_i_glide_ligand_efficiency>  (13) 
-0.337499

>  <r_i_glide_ligand_efficiency_sa>  (13) 
-0.750592

>  <r_i_glide_ligand_efficiency_ln>  (13) 
-1.09259

>  <r_i_glide_gscore>  (13) 
-3.71249

>  <r_i_glide_lipo>  (13) 
-0.659417

>  <r_i_glide_hbond>  (13) 
0

>  <r_i_glide_metal>  (13) 
-0

>  <r_i_glide_rewards>  (13) 
-2.25

>  <r_i_glide_evdw>  (13) 
-14.6934

>  <r_i_glide_ecoul>  (13) 
-0.386298

>  <r_i_glide_erotb>  (13) 
0

>  <r_i_glide_esite>  (13) 
-0.010459

>  <r_i_glide_emodel>  (13) 
-18.0989

>  <r_i_glide_energy>  (13) 
-15.0797

>  <r_i_glide_einternal>  (13) 
0

>  <r_i_glide_intrahb_reward>  (13) 
-0

>  <i_i_glide_confnum>  (13) 
1

>  <i_i_glide_posenum>  (13) 
16

>  <r_i_glide_eff_state_penalty>  (13) 
0

>  <ligand_id>  (13) 
4

>  <original_smiles>  (13) 
CN1CCOC12CCCCC2

>  <smiles>  (13) 
[H]C([H])([H])N1C([H])([H])C([H])([H])OC12C([H])([H])C([H])([H])C([H])([H])C([H])([H])C2([H])[H]

$$$$
4:0:1
     RDKit          3D

 28 29  0  0  1  0  0  0  0  0999 V2000
    1.9913   -3.0598   -3.0564 C   0  0  0  0  0  0  0  0  0  0  0  0
    3.4425   -2.9226   -3.1578 N   0  0  0  0  0  0  0  0  0  0  0  0
    3.7233   -1.7135   -3.8688 C   0  0  0  0  0  0  0  0  0  0  0  0
    4.2389   -0.7652   -2.7798 C   0  0  0  0  0  0  0  0  0  0  0  0
    4.1183   -1.4934   -1.5740 O   0  0  0  0  0  0  0  0  0  0  0  0
    4.1608   -2.8490   -1.9005 C   0  0  0  0  0  0  0  0  0  0  0  0
    5.6652   -3.2786   -2.0311 C   0  0  0  0  0  0  0  0  0  0  0  0
    6.4367   -3.1064   -0.7096 C   0  0  0  0  0  0  0  0  0  0  0  0
    5.8151   -3.9357    0.4121 C   0  0  0  0  0  0  0  0  0  0  0  0
    4.3697   -3.4863    0.6040 C   0  0  0  0  0  0  0  0  0  0  0  0
    3.5527   -3.6219   -0.6776 C   0  0  0  0  0  0  0  0  0  0  0  0
    1.4798   -3.0011   -4.0208 H   0  0  0  0  0  0  0  0  0  0  0  0
    1.5866   -2.2551   -2.4332 H   0  0  0  0  0  0  0  0  0  0  0  0
    1.7197   -4.0038   -2.5832 H   0  0  0  0  0  0  0  0  0  0  0  0
    4.5004   -1.9046   -4.6135 H   0  0  0  0  0  0  0  0  0  0  0  0
    2.8588   -1.2984   -4.4177 H   0  0  0  0  0  0  0  0  0  0  0  0
    5.3000   -0.5913   -2.8930 H   0  0  0  0  0  0  0  0  0  0  0  0
    3.7424    0.1962   -2.7649 H   0  0  0  0  0  0  0  0  0  0  0  0
    5.6889   -4.3187   -2.3517 H   0  0  0  0  0  0  0  0  0  0  0  0
    6.1871   -2.7267   -2.8176 H   0  0  0  0  0  0  0  0  0  0  0  0
    7.4777   -3.4046   -0.8421 H   0  0  0  0  0  0  0  0  0  0  0  0
    6.4495   -2.0555   -0.4223 H   0  0  0  0  0  0  0  0  0  0  0  0
    5.8402   -4.9899    0.1483 H   0  0  0  0  0  0  0  0  0  0  0  0
    6.3685   -3.8227    1.3396 H   0  0  0  0  0  0  0  0  0  0  0  0
    3.9041   -4.1136    1.3688 H   0  0  0  0  0  0  0  0  0  0  0  0
    4.3169   -2.4621    0.9838 H   0  0  0  0  0  0  0  0  0  0  0  0
    2.5528   -3.2575   -0.4479 H   0  0  0  0  0  0  0  0  0  0  0  0
    3.4898   -4.6774   -0.9485 H   0  0  0  0  0  0  0  0  0  0  0  0
  1  2  1  0
  1 12  1  0
  1 13  1  0
  1 14  1  0
  2  6  1  0
  2  3  1  0
  3  4  1  0
  3 15  1  0
  3 16  1  0
  4  5  1  0
  4 17  1  0
  4 18  1  0
  5  6  1  0
  6 11  1  0
  6  7  1  0
  7  8  1  0
  7 19  1  0
  7 20  1  0
  8  9  1  0
  8 21  1  0
  8 22  1  0
  9 10  1  0
  9 23  1  0
  9 24  1  0
 10 11  1  0
 10 25  1  0
 10 26  1  0
 11 27  1  0
 11 28  1  0
M  END
>  <i_m_ct_stereo_status>  (14) 
1

>  <s_m_source_file>  (14) 
/var/tmp/pbs.5076255.sched01/tmp25ygy55i/01wbi4d2b.sdf

>  <i_m_source_file_index>  (14) 
5

>  <i_lp_mmshare_version>  (14) 
48012

>  <i_f3d_flags>  (14) 
0

>  <s_epik_input>  (14) 
TzFbQ0gyXVtDSDJdTihbQ0gzXSlDMTJbQ0gyXVtDSDJdW0NIMl1bQ0gyXVtDSDJdMg==

>  <s_epik_cmdline>  (14) 
J2VwaWtfcHl0aG9uJywgJy1waHQnLCAnMi4wJywgJy1waCcsICc3LjAnLCAnLXRuJywgJzgnLCAnLW1hJywgJzIwMCcsICctaW1hZScsICc8aW5maWxlLm1hZT4nLCAnLW9tYWUnLCAnPG91dGZpbGUubWFlPic=

>  <r_epik_Ionization_Penalty>  (14) 
0.19287

>  <r_epik_Ionization_Penalty_Charging>  (14) 
0

>  <r_epik_Ionization_Penalty_Neutral>  (14) 
0.19287

>  <r_epik_State_Penalty>  (14) 
0.182564

>  <r_epik_Charging_Adjusted_Penalty>  (14) 
0.182564

>  <i_epik_Tot_Q>  (14) 
0

>  <i_epik_Tot_abs_Q>  (14) 
0

>  <s_lp_Force_Field>  (14) 
OPLS3e

>  <r_lp_Energy>  (14) 
11.1581

>  <b_lp_Chiralities_Consistent>  (14) 
1

>  <s_lp_Variant>  (14) 
4:0-1

>  <s_i_glide_gridfile>  (14) 
pfpi4k_grid

>  <i_i_glide_lignum>  (14) 
5

>  <i_i_glide_rotatable_bonds>  (14) 
0

>  <r_i_docking_score>  (14) 
-3.64171

>  <r_i_glide_ligand_efficiency>  (14) 
-0.331064

>  <r_i_glide_ligand_efficiency_sa>  (14) 
-0.73628

>  <r_i_glide_ligand_efficiency_ln>  (14) 
-1.07175

>  <r_i_glide_gscore>  (14) 
-3.64171

>  <r_i_glide_lipo>  (14) 
-0.701189

>  <r_i_glide_hbond>  (14) 
0

>  <r_i_glide_metal>  (14) 
-0

>  <r_i_glide_rewards>  (14) 
-2.25

>  <r_i_glide_evdw>  (14) 
-14.3175

>  <r_i_glide_ecoul>  (14) 
0.271885

>  <r_i_glide_erotb>  (14) 
0

>  <r_i_glide_esite>  (14) 
-0.015423

>  <r_i_glide_emodel>  (14) 
-17.0665

>  <r_i_glide_energy>  (14) 
-14.0456

>  <r_i_glide_einternal>  (14) 
0

>  <r_i_glide_intrahb_reward>  (14) 
-0

>  <i_i_glide_confnum>  (14) 
1

>  <i_i_glide_posenum>  (14) 
7

>  <r_i_glide_eff_state_penalty>  (14) 
0

>  <ligand_id>  (14) 
4

>  <original_smiles>  (14) 
CN1CCOC12CCCCC2

>  <smiles>  (14) 
[H]C([H])([H])N1C([H])([H])C([H])([H])OC12C([H])([H])C([H])([H])C([H])([H])C([H])([H])C2([H])[H]

$$$$
4:0:2
     RDKit          3D

 28 29  0  0  1  0  0  0  0  0999 V2000
    6.4660   -2.9255   -0.6787 C   0  0  0  0  0  0  0  0  0  0  0  0
    5.2134   -3.5097   -1.1744 N   0  0  0  0  0  0  0  0  0  0  0  0
    5.0425   -4.7957   -0.5167 C   0  0  0  0  0  0  0  0  0  0  0  0
    3.9160   -4.5326    0.5083 C   0  0  0  0  0  0  0  0  0  0  0  0
    3.6513   -3.1472    0.4176 O   0  0  0  0  0  0  0  0  0  0  0  0
    4.0144   -2.7600   -0.8680 C   0  0  0  0  0  0  0  0  0  0  0  0
    2.8125   -3.1365   -1.7908 C   0  0  0  0  0  0  0  0  0  0  0  0
    3.0635   -2.6872   -3.2365 C   0  0  0  0  0  0  0  0  0  0  0  0
    3.2996   -1.1687   -3.3101 C   0  0  0  0  0  0  0  0  0  0  0  0
    4.4297   -0.7553   -2.3575 C   0  0  0  0  0  0  0  0  0  0  0  0
    4.1402   -1.2176   -0.9145 C   0  0  0  0  0  0  0  0  0  0  0  0
    7.3231   -3.5873   -0.8537 H   0  0  0  0  0  0  0  0  0  0  0  0
    6.4358   -2.7289    0.3995 H   0  0  0  0  0  0  0  0  0  0  0  0
    6.6634   -1.9808   -1.2020 H   0  0  0  0  0  0  0  0  0  0  0  0
    4.7142   -5.5474   -1.2460 H   0  0  0  0  0  0  0  0  0  0  0  0
    5.9417   -5.2019   -0.0312 H   0  0  0  0  0  0  0  0  0  0  0  0
    3.0189   -5.0890    0.2407 H   0  0  0  0  0  0  0  0  0  0  0  0
    4.1859   -4.8148    1.5227 H   0  0  0  0  0  0  0  0  0  0  0  0
    2.6071   -4.2033   -1.7822 H   0  0  0  0  0  0  0  0  0  0  0  0
    1.9160   -2.6535   -1.4218 H   0  0  0  0  0  0  0  0  0  0  0  0
    3.9244   -3.2318   -3.6369 H   0  0  0  0  0  0  0  0  0  0  0  0
    2.2149   -2.9636   -3.8753 H   0  0  0  0  0  0  0  0  0  0  0  0
    3.5268   -0.8720   -4.3365 H   0  0  0  0  0  0  0  0  0  0  0  0
    2.3958   -0.6396   -3.0110 H   0  0  0  0  0  0  0  0  0  0  0  0
    5.3613   -1.2119   -2.7012 H   0  0  0  0  0  0  0  0  0  0  0  0
    4.5731    0.3246   -2.4192 H   0  0  0  0  0  0  0  0  0  0  0  0
    3.1946   -0.7968   -0.5776 H   0  0  0  0  0  0  0  0  0  0  0  0
    4.9222   -0.8840   -0.2358 H   0  0  0  0  0  0  0  0  0  0  0  0
  1  2  1  0
  1 12  1  0
  1 13  1  0
  1 14  1  0
  2  6  1  0
  2  3  1  0
  3  4  1  0
  3 15  1  0
  3 16  1  0
  4  5  1  0
  4 17  1  0
  4 18  1  0
  5  6  1  0
  6 11  1  0
  6  7  1  0
  7  8  1  0
  7 19  1  0
  7 20  1  0
  8  9  1  0
  8 21  1  0
  8 22  1  0
  9 10  1  0
  9 23  1  0
  9 24  1  0
 10 11  1  0
 10 25  1  0
 10 26  1  0
 11 27  1  0
 11 28  1  0
M  END
>  <i_m_ct_stereo_status>  (15) 
1

>  <s_m_source_file>  (15) 
/var/tmp/pbs.5076255.sched01/tmp25ygy55i/01wbi4d2b.sdf

>  <i_m_source_file_index>  (15) 
5

>  <i_lp_mmshare_version>  (15) 
48012

>  <i_f3d_flags>  (15) 
0

>  <s_epik_input>  (15) 
TzFbQ0gyXVtDSDJdTihbQ0gzXSlDMTJbQ0gyXVtDSDJdW0NIMl1bQ0gyXVtDSDJdMg==

>  <s_epik_cmdline>  (15) 
J2VwaWtfcHl0aG9uJywgJy1waHQnLCAnMi4wJywgJy1waCcsICc3LjAnLCAnLXRuJywgJzgnLCAnLW1hJywgJzIwMCcsICctaW1hZScsICc8aW5maWxlLm1hZT4nLCAnLW9tYWUnLCAnPG91dGZpbGUubWFlPic=

>  <r_epik_Ionization_Penalty>  (15) 
0.19287

>  <r_epik_Ionization_Penalty_Charging>  (15) 
0

>  <r_epik_Ionization_Penalty_Neutral>  (15) 
0.19287

>  <r_epik_State_Penalty>  (15) 
0.182564

>  <r_epik_Charging_Adjusted_Penalty>  (15) 
0.182564

>  <i_epik_Tot_Q>  (15) 
0

>  <i_epik_Tot_abs_Q>  (15) 
0

>  <s_lp_Force_Field>  (15) 
OPLS3e

>  <r_lp_Energy>  (15) 
11.1581

>  <b_lp_Chiralities_Consistent>  (15) 
1

>  <s_lp_Variant>  (15) 
4:0-1

>  <s_i_glide_gridfile>  (15) 
pfpi4k_grid

>  <i_i_glide_lignum>  (15) 
5

>  <i_i_glide_rotatable_bonds>  (15) 
0

>  <r_i_docking_score>  (15) 
-3.17115

>  <r_i_glide_ligand_efficiency>  (15) 
-0.288286

>  <r_i_glide_ligand_efficiency_sa>  (15) 
-0.641143

>  <r_i_glide_ligand_efficiency_ln>  (15) 
-0.933269

>  <r_i_glide_gscore>  (15) 
-3.17115

>  <r_i_glide_lipo>  (15) 
-0.281454

>  <r_i_glide_hbond>  (15) 
0

>  <r_i_glide_metal>  (15) 
-0

>  <r_i_glide_rewards>  (15) 
-2.25

>  <r_i_glide_evdw>  (15) 
-12.5875

>  <r_i_glide_ecoul>  (15) 
0.019263

>  <r_i_glide_erotb>  (15) 
0

>  <r_i_glide_esite>  (15) 
-0.0132115

>  <r_i_glide_emodel>  (15) 
-15.0478

>  <r_i_glide_energy>  (15) 
-12.5682

>  <r_i_glide_einternal>  (15) 
0

>  <r_i_glide_intrahb_reward>  (15) 
-0

>  <i_i_glide_confnum>  (15) 
4

>  <i_i_glide_posenum>  (15) 
13

>  <r_i_glide_eff_state_penalty>  (15) 
0

>  <ligand_id>  (15) 
4

>  <original_smiles>  (15) 
CN1CCOC12CCCCC2

>  <smiles>  (15) 
[H]C([H])([H])N1C([H])([H])C([H])([H])OC12C([H])([H])C([H])([H])C([H])([H])C([H])([H])C2([H])[H]

$$$$
4:1:0
     RDKit          3D

 29 30  0  0  1  0  0  0  0  0999 V2000
    4.1869   -4.3304   -0.2384 C   0  0  0  0  0  0  0  0  0  0  0  0
    4.8287   -3.0196   -0.5606 N   0  0  1  0  0  0  0  0  0  0  0  0
    6.3001   -3.1495   -0.6244 C   0  0  0  0  0  0  0  0  0  0  0  0
    6.6635   -3.0612   -2.1212 C   0  0  0  0  0  0  0  0  0  0  0  0
    5.4163   -3.0039   -2.8210 O   0  0  0  0  0  0  0  0  0  0  0  0
    4.4897   -2.4303   -1.9729 C   0  0  0  0  0  0  0  0  0  0  0  0
    4.7037   -0.8892   -1.8666 C   0  0  0  0  0  0  0  0  0  0  0  0
    4.3142   -0.2621   -3.2140 C   0  0  0  0  0  0  0  0  0  0  0  0
    2.8772   -0.6048   -3.5958 C   0  0  0  0  0  0  0  0  0  0  0  0
    2.6298   -2.1264   -3.6378 C   0  0  0  0  0  0  0  0  0  0  0  0
    3.0198   -2.7944   -2.3122 C   0  0  0  0  0  0  0  0  0  0  0  0
    4.4252   -5.0489   -1.0218 H   0  0  0  0  0  0  0  0  0  0  0  0
    3.1012   -4.2644   -0.1570 H   0  0  0  0  0  0  0  0  0  0  0  0
    4.5686   -4.7511    0.7051 H   0  0  0  0  0  0  0  0  0  0  0  0
    6.7647   -2.3438   -0.0640 H   0  0  0  0  0  0  0  0  0  0  0  0
    6.6449   -4.0845   -0.1757 H   0  0  0  0  0  0  0  0  0  0  0  0
    7.2306   -2.1519   -2.3138 H   0  0  0  0  0  0  0  0  0  0  0  0
    7.3016   -3.8553   -2.4673 H   0  0  0  0  0  0  0  0  0  0  0  0
    4.0957   -0.4907   -1.0596 H   0  0  0  0  0  0  0  0  0  0  0  0
    5.7356   -0.6259   -1.6231 H   0  0  0  0  0  0  0  0  0  0  0  0
    4.4516    0.8200   -3.1897 H   0  0  0  0  0  0  0  0  0  0  0  0
    4.9608   -0.6496   -3.9912 H   0  0  0  0  0  0  0  0  0  0  0  0
    2.2316   -0.1378   -2.8431 H   0  0  0  0  0  0  0  0  0  0  0  0
    2.6181   -0.1617   -4.5631 H   0  0  0  0  0  0  0  0  0  0  0  0
    1.5845   -2.3368   -3.8571 H   0  0  0  0  0  0  0  0  0  0  0  0
    3.1995   -2.5799   -4.4400 H   0  0  0  0  0  0  0  0  0  0  0  0
    2.8717   -3.8692   -2.4069 H   0  0  0  0  0  0  0  0  0  0  0  0
    2.3797   -2.4115   -1.5291 H   0  0  0  0  0  0  0  0  0  0  0  0
    4.5775   -2.3517    0.1602 H   0  0  0  0  0  0  0  0  0  0  0  0
  1  2  1  0
  1 12  1  0
  1 13  1  0
  1 14  1  0
  2  6  1  0
  2  3  1  0
  2 29  1  1
  3  4  1  0
  3 15  1  0
  3 16  1  0
  4  5  1  0
  4 17  1  0
  4 18  1  0
  5  6  1  0
  6 11  1  0
  6  7  1  0
  7  8  1  0
  7 19  1  0
  7 20  1  0
  8  9  1  0
  8 21  1  0
  8 22  1  0
  9 10  1  0
  9 23  1  0
  9 24  1  0
 10 11  1  0
 10 25  1  0
 10 26  1  0
 11 27  1  0
 11 28  1  0
M  CHG  1   2   1
M  END
>  <i_m_ct_stereo_status>  (16) 
1

>  <s_m_source_file>  (16) 
/var/tmp/pbs.5076255.sched01/tmp25ygy55i/01wbi4d2b.sdf

>  <i_m_source_file_index>  (16) 
6

>  <i_lp_mmshare_version>  (16) 
48012

>  <i_f3d_flags>  (16) 
0

>  <s_epik_input>  (16) 
TzFbQ0gyXVtDSDJdTihbQ0gzXSlDMTJbQ0gyXVtDSDJdW0NIMl1bQ0gyXVtDSDJdMg==

>  <s_epik_cmdline>  (16) 
J2VwaWtfcHl0aG9uJywgJy1waHQnLCAnMi4wJywgJy1waCcsICc3LjAnLCAnLXRuJywgJzgnLCAnLW1hJywgJzIwMCcsICctaW1hZScsICc8aW5maWxlLm1hZT4nLCAnLW9tYWUnLCAnPG91dGZpbGUubWFlPic=

>  <r_epik_Ionization_Penalty>  (16) 
0.758775

>  <r_epik_Ionization_Penalty_Charging>  (16) 
0.758775

>  <r_epik_Ionization_Penalty_Neutral>  (16) 
0

>  <r_epik_State_Penalty>  (16) 
0.78643

>  <r_epik_Charging_Adjusted_Penalty>  (16) 
1.5452

>  <i_epik_Tot_Q>  (16) 
1

>  <i_epik_Tot_abs_Q>  (16) 
1

>  <s_lp_Force_Field>  (16) 
OPLS3e

>  <r_lp_Energy>  (16) 
5.4366

>  <b_lp_Chiralities_Consistent>  (16) 
1

>  <s_lp_Variant>  (16) 
4:0-2

>  <s_i_glide_gridfile>  (16) 
pfpi4k_grid

>  <i_i_glide_lignum>  (16) 
6

>  <i_i_glide_rotatable_bonds>  (16) 
0

>  <r_i_docking_score>  (16) 
-3.98041

>  <r_i_glide_ligand_efficiency>  (16) 
-0.361856

>  <r_i_glide_ligand_efficiency_sa>  (16) 
-0.80476

>  <r_i_glide_ligand_efficiency_ln>  (16) 
-1.17143

>  <r_i_glide_gscore>  (16) 
-3.98041

>  <r_i_glide_lipo>  (16) 
-0.650446

>  <r_i_glide_hbond>  (16) 
0

>  <r_i_glide_metal>  (16) 
-0

>  <r_i_glide_rewards>  (16) 
-2.25

>  <r_i_glide_evdw>  (16) 
-13.7341

>  <r_i_glide_ecoul>  (16) 
-2.61972

>  <r_i_glide_erotb>  (16) 
0

>  <r_i_glide_esite>  (16) 
-0.000300908

>  <r_i_glide_emodel>  (16) 
-20.5296

>  <r_i_glide_energy>  (16) 
-16.3539

>  <r_i_glide_einternal>  (16) 
0

>  <r_i_glide_intrahb_reward>  (16) 
-0

>  <i_i_glide_confnum>  (16) 
2

>  <i_i_glide_posenum>  (16) 
15

>  <r_i_glide_eff_state_penalty>  (16) 
0

>  <ligand_id>  (16) 
4

>  <original_smiles>  (16) 
CN1CCOC12CCCCC2

>  <smiles>  (16) 
[H]C1([H])OC2(C([H])([H])C([H])([H])C([H])([H])C([H])([H])C2([H])[H])[N+]([H])(C([H])([H])[H])C1([H])[H]

$$$$
4:1:1
     RDKit          3D

 29 30  0  0  1  0  0  0  0  0999 V2000
    3.0200   -4.2335    0.0615 C   0  0  0  0  0  0  0  0  0  0  0  0
    3.2888   -2.7606   -0.0821 N   0  0  1  0  0  0  0  0  0  0  0  0
    4.1924   -2.3144    1.0035 C   0  0  0  0  0  0  0  0  0  0  0  0
    5.5604   -2.0547    0.3331 C   0  0  0  0  0  0  0  0  0  0  0  0
    5.4184   -2.4770   -1.0244 O   0  0  0  0  0  0  0  0  0  0  0  0
    4.0760   -2.3299   -1.3701 C   0  0  0  0  0  0  0  0  0  0  0  0
    3.7170   -0.8437   -1.5810 C   0  0  0  0  0  0  0  0  0  0  0  0
    4.3481   -0.3442   -2.8838 C   0  0  0  0  0  0  0  0  0  0  0  0
    3.9048   -1.1994   -4.0804 C   0  0  0  0  0  0  0  0  0  0  0  0
    4.2227   -2.6860   -3.8575 C   0  0  0  0  0  0  0  0  0  0  0  0
    3.6055   -3.2090   -2.5481 C   0  0  0  0  0  0  0  0  0  0  0  0
    3.9547   -4.7868   -0.0613 H   0  0  0  0  0  0  0  0  0  0  0  0
    2.3142   -4.6363   -0.6726 H   0  0  0  0  0  0  0  0  0  0  0  0
    2.6315   -4.5246    1.0599 H   0  0  0  0  0  0  0  0  0  0  0  0
    3.7969   -1.3993    1.4652 H   0  0  0  0  0  0  0  0  0  0  0  0
    4.2869   -3.0498    1.8159 H   0  0  0  0  0  0  0  0  0  0  0  0
    5.8072   -0.9920    0.3594 H   0  0  0  0  0  0  0  0  0  0  0  0
    6.3818   -2.5711    0.8336 H   0  0  0  0  0  0  0  0  0  0  0  0
    2.6432   -0.7428   -1.6852 H   0  0  0  0  0  0  0  0  0  0  0  0
    4.0163   -0.2566   -0.7224 H   0  0  0  0  0  0  0  0  0  0  0  0
    4.0962    0.7008   -3.0631 H   0  0  0  0  0  0  0  0  0  0  0  0
    5.4157   -0.3915   -2.7270 H   0  0  0  0  0  0  0  0  0  0  0  0
    2.8315   -1.0858   -4.2517 H   0  0  0  0  0  0  0  0  0  0  0  0
    4.3988   -0.8590   -4.9838 H   0  0  0  0  0  0  0  0  0  0  0  0
    3.8551   -3.3003   -4.6825 H   0  0  0  0  0  0  0  0  0  0  0  0
    5.2941   -2.8598   -3.7934 H   0  0  0  0  0  0  0  0  0  0  0  0
    3.9255   -4.2415   -2.4316 H   0  0  0  0  0  0  0  0  0  0  0  0
    2.5158   -3.1559   -2.6305 H   0  0  0  0  0  0  0  0  0  0  0  0
    2.4222   -2.2442   -0.0056 H   0  0  0  0  0  0  0  0  0  0  0  0
  1  2  1  0
  1 12  1  0
  1 13  1  0
  1 14  1  0
  2  6  1  0
  2  3  1  0
  2 29  1  1
  3  4  1  0
  3 15  1  0
  3 16  1  0
  4  5  1  0
  4 17  1  0
  4 18  1  0
  5  6  1  0
  6 11  1  0
  6  7  1  0
  7  8  1  0
  7 19  1  0
  7 20  1  0
  8  9  1  0
  8 21  1  0
  8 22  1  0
  9 10  1  0
  9 23  1  0
  9 24  1  0
 10 11  1  0
 10 25  1  0
 10 26  1  0
 11 27  1  0
 11 28  1  0
M  CHG  1   2   1
M  END
>  <i_m_ct_stereo_status>  (17) 
1

>  <s_m_source_file>  (17) 
/var/tmp/pbs.5076255.sched01/tmp25ygy55i/01wbi4d2b.sdf

>  <i_m_source_file_index>  (17) 
6

>  <i_lp_mmshare_version>  (17) 
48012

>  <i_f3d_flags>  (17) 
0

>  <s_epik_input>  (17) 
TzFbQ0gyXVtDSDJdTihbQ0gzXSlDMTJbQ0gyXVtDSDJdW0NIMl1bQ0gyXVtDSDJdMg==

>  <s_epik_cmdline>  (17) 
J2VwaWtfcHl0aG9uJywgJy1waHQnLCAnMi4wJywgJy1waCcsICc3LjAnLCAnLXRuJywgJzgnLCAnLW1hJywgJzIwMCcsICctaW1hZScsICc8aW5maWxlLm1hZT4nLCAnLW9tYWUnLCAnPG91dGZpbGUubWFlPic=

>  <r_epik_Ionization_Penalty>  (17) 
0.758775

>  <r_epik_Ionization_Penalty_Charging>  (17) 
0.758775

>  <r_epik_Ionization_Penalty_Neutral>  (17) 
0

>  <r_epik_State_Penalty>  (17) 
0.78643

>  <r_epik_Charging_Adjusted_Penalty>  (17) 
1.5452

>  <i_epik_Tot_Q>  (17) 
1

>  <i_epik_Tot_abs_Q>  (17) 
1

>  <s_lp_Force_Field>  (17) 
OPLS3e

>  <r_lp_Energy>  (17) 
5.4366

>  <b_lp_Chiralities_Consistent>  (17) 
1

>  <s_lp_Variant>  (17) 
4:0-2

>  <s_i_glide_gridfile>  (17) 
pfpi4k_grid

>  <i_i_glide_lignum>  (17) 
6

>  <i_i_glide_rotatable_bonds>  (17) 
0

>  <r_i_docking_score>  (17) 
-3.92462

>  <r_i_glide_ligand_efficiency>  (17) 
-0.356783

>  <r_i_glide_ligand_efficiency_sa>  (17) 
-0.793479

>  <r_i_glide_ligand_efficiency_ln>  (17) 
-1.15501

>  <r_i_glide_gscore>  (17) 
-3.92462

>  <r_i_glide_lipo>  (17) 
-0.322791

>  <r_i_glide_hbond>  (17) 
-0.0912206

>  <r_i_glide_metal>  (17) 
-0

>  <r_i_glide_rewards>  (17) 
-2.25

>  <r_i_glide_evdw>  (17) 
-11.4395

>  <r_i_glide_ecoul>  (17) 
-4.21121

>  <r_i_glide_erotb>  (17) 
0

>  <r_i_glide_esite>  (17) 
-0.0569495

>  <r_i_glide_emodel>  (17) 
-19.7587

>  <r_i_glide_energy>  (17) 
-15.6507

>  <r_i_glide_einternal>  (17) 
0

>  <r_i_glide_intrahb_reward>  (17) 
-0

>  <i_i_glide_confnum>  (17) 
2

>  <i_i_glide_posenum>  (17) 
14

>  <r_i_glide_eff_state_penalty>  (17) 
0

>  <ligand_id>  (17) 
4

>  <original_smiles>  (17) 
CN1CCOC12CCCCC2

>  <smiles>  (17) 
[H]C1([H])OC2(C([H])([H])C([H])([H])C([H])([H])C([H])([H])C2([H])[H])[N+]([H])(C([H])([H])[H])C1([H])[H]

$$$$
4:1:2
     RDKit          3D

 29 30  0  0  1  0  0  0  0  0999 V2000
    6.6102   -3.1669   -1.2774 C   0  0  0  0  0  0  0  0  0  0  0  0
    5.2500   -3.7576   -1.3288 N   0  0  1  0  0  0  0  0  0  0  0  0
    5.1606   -4.9541   -0.4871 C   0  0  0  0  0  0  0  0  0  0  0  0
    4.3701   -4.5365    0.7732 C   0  0  0  0  0  0  0  0  0  0  0  0
    4.1536   -3.1345    0.6313 O   0  0  0  0  0  0  0  0  0  0  0  0
    4.1225   -2.8460   -0.7188 C   0  0  0  0  0  0  0  0  0  0  0  0
    2.7835   -3.3331   -1.3430 C   0  0  0  0  0  0  0  0  0  0  0  0
    2.7195   -3.0446   -2.8506 C   0  0  0  0  0  0  0  0  0  0  0  0
    2.9972   -1.5626   -3.1552 C   0  0  0  0  0  0  0  0  0  0  0  0
    4.3549   -1.1247   -2.5913 C   0  0  0  0  0  0  0  0  0  0  0  0
    4.4432   -1.3660   -1.0611 C   0  0  0  0  0  0  0  0  0  0  0  0
    6.8633   -2.9042   -0.2400 H   0  0  0  0  0  0  0  0  0  0  0  0
    6.7136   -2.2638   -1.8908 H   0  0  0  0  0  0  0  0  0  0  0  0
    7.4064   -3.8422   -1.6093 H   0  0  0  0  0  0  0  0  0  0  0  0
    4.6475   -5.7688   -1.0255 H   0  0  0  0  0  0  0  0  0  0  0  0
    6.1522   -5.3622   -0.2136 H   0  0  0  0  0  0  0  0  0  0  0  0
    3.4111   -5.0539    0.8031 H   0  0  0  0  0  0  0  0  0  0  0  0
    4.8916   -4.7853    1.6934 H   0  0  0  0  0  0  0  0  0  0  0  0
    2.5867   -4.3849   -1.1456 H   0  0  0  0  0  0  0  0  0  0  0  0
    1.9485   -2.8025   -0.8350 H   0  0  0  0  0  0  0  0  0  0  0  0
    3.4179   -3.6863   -3.3896 H   0  0  0  0  0  0  0  0  0  0  0  0
    1.7324   -3.3104   -3.2266 H   0  0  0  0  0  0  0  0  0  0  0  0
    2.9658   -1.4001   -4.2330 H   0  0  0  0  0  0  0  0  0  0  0  0
    2.2181   -0.9422   -2.7210 H   0  0  0  0  0  0  0  0  0  0  0  0
    5.1240   -1.6760   -3.1224 H   0  0  0  0  0  0  0  0  0  0  0  0
    4.5225   -0.0688   -2.8167 H   0  0  0  0  0  0  0  0  0  0  0  0
    3.6946   -0.7112   -0.5593 H   0  0  0  0  0  0  0  0  0  0  0  0
    5.4103   -1.0633   -0.6547 H   0  0  0  0  0  0  0  0  0  0  0  0
    5.0290   -4.0062   -2.2729 H   0  0  0  0  0  0  0  0  0  0  0  0
  1  2  1  0
  1 12  1  0
  1 13  1  0
  1 14  1  0
  2  6  1  0
  2  3  1  0
  2 29  1  6
  3  4  1  0
  3 15  1  0
  3 16  1  0
  4  5  1  0
  4 17  1  0
  4 18  1  0
  5  6  1  0
  6 11  1  0
  6  7  1  0
  7  8  1  0
  7 19  1  0
  7 20  1  0
  8  9  1  0
  8 21  1  0
  8 22  1  0
  9 10  1  0
  9 23  1  0
  9 24  1  0
 10 11  1  0
 10 25  1  0
 10 26  1  0
 11 27  1  0
 11 28  1  0
M  CHG  1   2   1
M  END
>  <i_m_ct_stereo_status>  (18) 
1

>  <s_m_source_file>  (18) 
/var/tmp/pbs.5076255.sched01/tmp25ygy55i/01wbi4d2b.sdf

>  <i_m_source_file_index>  (18) 
6

>  <i_lp_mmshare_version>  (18) 
48012

>  <i_f3d_flags>  (18) 
0

>  <s_epik_input>  (18) 
TzFbQ0gyXVtDSDJdTihbQ0gzXSlDMTJbQ0gyXVtDSDJdW0NIMl1bQ0gyXVtDSDJdMg==

>  <s_epik_cmdline>  (18) 
J2VwaWtfcHl0aG9uJywgJy1waHQnLCAnMi4wJywgJy1waCcsICc3LjAnLCAnLXRuJywgJzgnLCAnLW1hJywgJzIwMCcsICctaW1hZScsICc8aW5maWxlLm1hZT4nLCAnLW9tYWUnLCAnPG91dGZpbGUubWFlPic=

>  <r_epik_Ionization_Penalty>  (18) 
0.758775

>  <r_epik_Ionization_Penalty_Charging>  (18) 
0.758775

>  <r_epik_Ionization_Penalty_Neutral>  (18) 
0

>  <r_epik_State_Penalty>  (18) 
0.78643

>  <r_epik_Charging_Adjusted_Penalty>  (18) 
1.5452

>  <i_epik_Tot_Q>  (18) 
1

>  <i_epik_Tot_abs_Q>  (18) 
1

>  <s_lp_Force_Field>  (18) 
OPLS3e

>  <r_lp_Energy>  (18) 
5.4366

>  <b_lp_Chiralities_Consistent>  (18) 
1

>  <s_lp_Variant>  (18) 
4:0-2

>  <s_i_glide_gridfile>  (18) 
pfpi4k_grid

>  <i_i_glide_lignum>  (18) 
6

>  <i_i_glide_rotatable_bonds>  (18) 
0

>  <r_i_docking_score>  (18) 
-3.43745

>  <r_i_glide_ligand_efficiency>  (18) 
-0.312496

>  <r_i_glide_ligand_efficiency_sa>  (18) 
-0.694984

>  <r_i_glide_ligand_efficiency_ln>  (18) 
-1.01164

>  <r_i_glide_gscore>  (18) 
-3.43745

>  <r_i_glide_lipo>  (18) 
-0.258022

>  <r_i_glide_hbond>  (18) 
0

>  <r_i_glide_metal>  (18) 
-0

>  <r_i_glide_rewards>  (18) 
-2.25

>  <r_i_glide_evdw>  (18) 
-12.0327

>  <r_i_glide_ecoul>  (18) 
-2.14963

>  <r_i_glide_erotb>  (18) 
0

>  <r_i_glide_esite>  (18) 
-0.00535032

>  <r_i_glide_emodel>  (18) 
-17.6332

>  <r_i_glide_energy>  (18) 
-14.1823

>  <r_i_glide_einternal>  (18) 
0

>  <r_i_glide_intrahb_reward>  (18) 
-0

>  <i_i_glide_confnum>  (18) 
4

>  <i_i_glide_posenum>  (18) 
19

>  <r_i_glide_eff_state_penalty>  (18) 
0

>  <ligand_id>  (18) 
4

>  <original_smiles>  (18) 
CN1CCOC12CCCCC2

>  <smiles>  (18) 
[H]C1([H])OC2(C([H])([H])C([H])([H])C([H])([H])C([H])([H])C2([H])[H])[N+]([H])(C([H])([H])[H])C1([H])[H]

$$$$
5:0:0
     RDKit          3D

 64 68  0  0  1  0  0  0  0  0999 V2000
   -1.4491   -1.8902    5.9212 C   0  0  0  0  0  0  0  0  0  0  0  0
   -0.7873   -0.6539    5.2803 C   0  0  2  0  0  0  0  0  0  0  0  0
    0.3303   -1.1872    4.3346 C   0  0  0  0  0  0  0  0  0  0  0  0
    1.2367   -0.2565    3.4929 C   0  0  2  0  0  0  0  0  0  0  0  0
    2.6914    0.0455    4.0305 C   0  0  1  0  0  0  0  0  0  0  0  0
    3.3778    0.9797    2.9807 C   0  0  1  0  0  0  0  0  0  0  0  0
    3.5634    0.3443    1.5858 C   0  0  0  0  0  0  0  0  0  0  0  0
    2.6027    2.3375    2.9515 C   0  0  0  0  0  0  0  0  0  0  0  0
    1.2605    2.1682    3.6830 C   0  0  2  0  0  0  0  0  0  0  0  0
    1.5102    1.8785    5.2092 C   0  0  1  0  0  0  0  0  0  0  0  0
    0.2000    1.7487    6.0354 C   0  0  2  0  0  0  0  0  0  0  0  0
    0.4614    2.4196    7.2736 O   0  0  0  0  0  0  0  0  0  0  0  0
   -0.6832    2.6045    8.1054 C   0  0  0  0  0  0  0  0  0  0  0  0
   -1.6515    3.6823    7.5304 C   0  0  0  0  0  0  0  0  0  0  0  0
   -2.7494    4.0956    8.5222 C   0  0  0  0  0  0  0  0  0  0  0  0
   -2.1629    4.5775    9.8533 C   0  0  0  0  0  0  0  0  0  0  0  0
   -1.2437    3.5089   10.4573 C   0  0  0  0  0  0  0  0  0  0  0  0
   -0.1359    3.0903    9.4711 C   0  0  0  0  0  0  0  0  0  0  0  0
   -1.3459    1.3632    8.3094 O   0  0  0  0  0  0  0  0  0  0  0  0
   -1.6699    0.7899    6.9568 O   0  0  0  0  0  0  0  0  0  0  0  0
   -0.4344    0.3702    6.3944 C   0  0  1  0  0  0  0  0  0  0  0  0
    2.6512    0.8079    5.3987 C   0  0  0  0  0  0  0  0  0  0  0  0
    2.5626   -0.1872    6.5834 C   0  0  0  0  0  0  0  0  0  0  0  0
    3.9828    1.5438    5.7657 C   0  0  0  0  0  0  0  0  0  0  0  0
    0.6403    1.0231    3.0136 N   0  0  2  0  0  0  0  0  0  0  0  0
   -0.7976    1.1255    2.6918 C   0  0  0  0  0  0  0  0  0  0  0  0
   -0.7991   -2.3956    6.6324 H   0  0  0  0  0  0  0  0  0  0  0  0
   -1.7185   -2.6269    5.1750 H   0  0  0  0  0  0  0  0  0  0  0  0
   -2.3865   -1.6341    6.4076 H   0  0  0  0  0  0  0  0  0  0  0  0
   -1.5842   -0.2218    4.6891 H   0  0  0  0  0  0  0  0  0  0  0  0
    0.9447   -1.9351    4.8344 H   0  0  0  0  0  0  0  0  0  0  0  0
   -0.1946   -1.8012    3.6041 H   0  0  0  0  0  0  0  0  0  0  0  0
    1.3959   -0.8416    2.5993 H   0  0  0  0  0  0  0  0  0  0  0  0
    3.2748   -0.8699    4.1289 H   0  0  0  0  0  0  0  0  0  0  0  0
    4.3912    1.1631    3.3168 H   0  0  0  0  0  0  0  0  0  0  0  0
    2.6255    0.2173    1.0430 H   0  0  0  0  0  0  0  0  0  0  0  0
    4.0372   -0.6329    1.6687 H   0  0  0  0  0  0  0  0  0  0  0  0
    4.2119    0.9412    0.9438 H   0  0  0  0  0  0  0  0  0  0  0  0
    3.1883    3.1509    3.3877 H   0  0  0  0  0  0  0  0  0  0  0  0
    2.4045    2.6418    1.9271 H   0  0  0  0  0  0  0  0  0  0  0  0
    0.6657    3.0668    3.5506 H   0  0  0  0  0  0  0  0  0  0  0  0
    1.9265    2.8219    5.5586 H   0  0  0  0  0  0  0  0  0  0  0  0
   -0.5464    2.3243    5.4964 H   0  0  0  0  0  0  0  0  0  0  0  0
   -1.0647    4.5638    7.2646 H   0  0  0  0  0  0  0  0  0  0  0  0
   -2.1330    3.3479    6.6106 H   0  0  0  0  0  0  0  0  0  0  0  0
   -3.3607    4.8892    8.0994 H   0  0  0  0  0  0  0  0  0  0  0  0
   -3.4162    3.2514    8.6983 H   0  0  0  0  0  0  0  0  0  0  0  0
   -1.6072    5.5049    9.6994 H   0  0  0  0  0  0  0  0  0  0  0  0
   -2.9698    4.8139   10.5445 H   0  0  0  0  0  0  0  0  0  0  0  0
   -0.8002    3.8936   11.3789 H   0  0  0  0  0  0  0  0  0  0  0  0
   -1.8348    2.6388   10.7506 H   0  0  0  0  0  0  0  0  0  0  0  0
    0.4872    2.3199    9.9264 H   0  0  0  0  0  0  0  0  0  0  0  0
    0.5168    3.9503    9.3104 H   0  0  0  0  0  0  0  0  0  0  0  0
    0.0988   -0.1300    7.2061 H   0  0  0  0  0  0  0  0  0  0  0  0
    2.3057    0.3140    7.5215 H   0  0  0  0  0  0  0  0  0  0  0  0
    3.5202   -0.6895    6.7534 H   0  0  0  0  0  0  0  0  0  0  0  0
    1.8684   -1.0024    6.4367 H   0  0  0  0  0  0  0  0  0  0  0  0
    3.9576    1.9070    6.7977 H   0  0  0  0  0  0  0  0  0  0  0  0
    4.1913    2.4224    5.1619 H   0  0  0  0  0  0  0  0  0  0  0  0
    4.8482    0.8826    5.6803 H   0  0  0  0  0  0  0  0  0  0  0  0
   -1.3781    1.5170    3.5124 H   0  0  0  0  0  0  0  0  0  0  0  0
   -1.2120    0.1781    2.3832 H   0  0  0  0  0  0  0  0  0  0  0  0
   -0.9315    1.8158    1.8748 H   0  0  0  0  0  0  0  0  0  0  0  0
    1.0371    1.0884    2.0810 H   0  0  0  0  0  0  0  0  0  0  0  0
  1  2  1  0
  1 27  1  0
  1 28  1  0
  1 29  1  0
  2 21  1  0
  2  3  1  0
  2 30  1  6
  3  4  1  0
  3 31  1  0
  3 32  1  0
  4 25  1  0
  4  5  1  0
  4 33  1  6
  5 22  1  0
  5  6  1  0
  5 34  1  1
  6  7  1  0
  6  8  1  0
  6 35  1  1
  7 36  1  0
  7 37  1  0
  7 38  1  0
  8  9  1  0
  8 39  1  0
  8 40  1  0
  9 10  1  0
  9 25  1  0
  9 41  1  1
 10 11  1  0
 10 22  1  0
 10 42  1  1
 11 21  1  0
 11 12  1  0
 11 43  1  6
 12 13  1  0
 13 18  1  0
 13 14  1  0
 13 19  1  0
 14 15  1  0
 14 44  1  0
 14 45  1  0
 15 16  1  0
 15 46  1  0
 15 47  1  0
 16 17  1  0
 16 48  1  0
 16 49  1  0
 17 18  1  0
 17 50  1  0
 17 51  1  0
 18 52  1  0
 18 53  1  0
 19 20  1  0
 20 21  1  0
 21 54  1  1
 22 23  1  0
 22 24  1  0
 23 55  1  0
 23 56  1  0
 23 57  1  0
 24 58  1  0
 24 59  1  0
 24 60  1  0
 25 26  1  0
 25 64  1  6
 26 61  1  0
 26 62  1  0
 26 63  1  0
M  CHG  1  25   1
M  END
>  <i_m_ct_stereo_status>  (19) 
1

>  <s_m_source_file>  (19) 
/var/tmp/pbs.5076255.sched01/tmp25ygy55i/01wbi4d2b.sdf

>  <i_m_source_file_index>  (19) 
7

>  <i_lp_mmshare_version>  (19) 
48012

>  <i_f3d_flags>  (19) 
0

>  <s_epik_input>  (19) 
TzFPW0NASF0yW0NASF0oW0NIM10pW0NIMl1bQ0BASF0oTjNbQ0gzXSlbQ0BIXShDNChbQ0gzXSlbQ0gzXSlbQ0BASF0oW0NIM10pW0NIMl1bQ0BASF0zW0NASF00W0NAQEhdMk9DMTVbQ0gyXVtDSDJdW0NIMl1bQ0gyXVtDSDJdNQ==

>  <s_epik_cmdline>  (19) 
J2VwaWtfcHl0aG9uJywgJy1waHQnLCAnMi4wJywgJy1waCcsICc3LjAnLCAnLXRuJywgJzgnLCAnLW1hJywgJzIwMCcsICctaW1hZScsICc8aW5maWxlLm1hZT4nLCAnLW9tYWUnLCAnPG91dGZpbGUubWFlPic=

>  <r_epik_Ionization_Penalty>  (19) 
0.000620672

>  <r_epik_Ionization_Penalty_Charging>  (19) 
0.000620672

>  <r_epik_Ionization_Penalty_Neutral>  (19) 
1.013e-14

>  <r_epik_State_Penalty>  (19) 
0.000391809

>  <r_epik_Charging_Adjusted_Penalty>  (19) 
0.00101248

>  <i_epik_Tot_Q>  (19) 
1

>  <i_epik_Tot_abs_Q>  (19) 
1

>  <s_lp_Force_Field>  (19) 
OPLS3e

>  <r_lp_Energy>  (19) 
89.6569

>  <b_lp_Chiralities_Consistent>  (19) 
1

>  <s_lp_Variant>  (19) 
5:0-1

>  <s_i_glide_gridfile>  (19) 
pfpi4k_grid

>  <i_i_glide_lignum>  (19) 
7

>  <i_i_glide_rotatable_bonds>  (19) 
0

>  <r_i_docking_score>  (19) 
-2.84098

>  <r_i_glide_ligand_efficiency>  (19) 
-0.109268

>  <r_i_glide_ligand_efficiency_sa>  (19) 
-0.323707

>  <r_i_glide_ligand_efficiency_ln>  (19) 
-0.667194

>  <r_i_glide_gscore>  (19) 
-2.84098

>  <r_i_glide_lipo>  (19) 
-0.164614

>  <r_i_glide_hbond>  (19) 
-0.174292

>  <r_i_glide_metal>  (19) 
-0

>  <r_i_glide_rewards>  (19) 
-0.923577

>  <r_i_glide_evdw>  (19) 
-15.0881

>  <r_i_glide_ecoul>  (19) 
-5.27054

>  <r_i_glide_erotb>  (19) 
0

>  <r_i_glide_esite>  (19) 
-0.0335086

>  <r_i_glide_emodel>  (19) 
-25.3424

>  <r_i_glide_energy>  (19) 
-20.3586

>  <r_i_glide_einternal>  (19) 
0

>  <r_i_glide_intrahb_reward>  (19) 
-0

>  <i_i_glide_confnum>  (19) 
2

>  <i_i_glide_posenum>  (19) 
3

>  <r_i_glide_eff_state_penalty>  (19) 
0

>  <ligand_id>  (19) 
5

>  <original_smiles>  (19) 
CC1CC2C3C(C)CC(C(C4OC5(CCCCC5)OOC14)C3(C)C)N2C

>  <smiles>  (19) 
[H]C([H])([H])C1([H])C([H])([H])C2([H])C3([H])C([H])(C([H])([H])[H])C([H])([H])C([H])(C([H])(C4([H])OC5(OOC41[H])C([H])([H])C([H])([H])C([H])([H])C([H])([H])C5([H])[H])C3(C([H])([H])[H])C([H])([H])[H])[N+]2([H])C([H])([H])[H]

$$$$
5:0:1
     RDKit          3D

 64 68  0  0  1  0  0  0  0  0999 V2000
    3.9640   -8.0182    8.0107 C   0  0  0  0  0  0  0  0  0  0  0  0
    2.7600   -8.1418    7.0527 C   0  0  2  0  0  0  0  0  0  0  0  0
    2.9343   -9.4783    6.2628 C   0  0  0  0  0  0  0  0  0  0  0  0
    1.9263   -9.9817    5.1970 C   0  0  2  0  0  0  0  0  0  0  0  0
    2.2516   -9.7371    3.6635 C   0  0  1  0  0  0  0  0  0  0  0  0
    1.0723  -10.3490    2.8334 C   0  0  1  0  0  0  0  0  0  0  0  0
    0.9111  -11.8630    3.0114 C   0  0  0  0  0  0  0  0  0  0  0  0
   -0.2245   -9.5525    3.1530 C   0  0  0  0  0  0  0  0  0  0  0  0
    0.0237   -8.6888    4.4104 C   0  0  2  0  0  0  0  0  0  0  0  0
    1.1136   -7.5912    4.1020 C   0  0  1  0  0  0  0  0  0  0  0  0
    1.3744   -6.6247    5.2930 C   0  0  2  0  0  0  0  0  0  0  0  0
    1.5108   -5.3315    4.6981 O   0  0  0  0  0  0  0  0  0  0  0  0
    1.5589   -4.2485    5.6262 C   0  0  0  0  0  0  0  0  0  0  0  0
    0.1662   -3.9920    6.2693 C   0  0  0  0  0  0  0  0  0  0  0  0
    0.0998   -2.6866    7.0735 C   0  0  0  0  0  0  0  0  0  0  0  0
    0.5133   -1.4739    6.2304 C   0  0  0  0  0  0  0  0  0  0  0  0
    1.9066   -1.6926    5.6259 C   0  0  0  0  0  0  0  0  0  0  0  0
    1.9727   -2.9998    4.8133 C   0  0  0  0  0  0  0  0  0  0  0  0
    2.5606   -4.4823    6.6032 O   0  0  0  0  0  0  0  0  0  0  0  0
    2.2697   -5.8097    7.2461 O   0  0  0  0  0  0  0  0  0  0  0  0
    2.5712   -6.8046    6.2796 C   0  0  1  0  0  0  0  0  0  0  0  0
    2.3353   -8.2132    3.3265 C   0  0  0  0  0  0  0  0  0  0  0  0
    3.7546   -7.6604    3.5961 C   0  0  0  0  0  0  0  0  0  0  0  0
    2.1972   -7.8925    1.8047 C   0  0  0  0  0  0  0  0  0  0  0  0
    0.4919   -9.6444    5.4157 N   0  0  2  0  0  0  0  0  0  0  0  0
   -0.0487   -9.5043    6.7910 C   0  0  0  0  0  0  0  0  0  0  0  0
    4.8947   -7.8377    7.4730 H   0  0  0  0  0  0  0  0  0  0  0  0
    4.0953   -8.9288    8.5968 H   0  0  0  0  0  0  0  0  0  0  0  0
    3.8331   -7.2030    8.7258 H   0  0  0  0  0  0  0  0  0  0  0  0
    1.9205   -8.2387    7.7291 H   0  0  0  0  0  0  0  0  0  0  0  0
    3.9426   -9.5705    5.8656 H   0  0  0  0  0  0  0  0  0  0  0  0
    2.9326  -10.2518    7.0320 H   0  0  0  0  0  0  0  0  0  0  0  0
    1.9747  -11.0557    5.3277 H   0  0  0  0  0  0  0  0  0  0  0  0
    3.1785  -10.2383    3.3846 H   0  0  0  0  0  0  0  0  0  0  0  0
    1.2813  -10.2476    1.7727 H   0  0  0  0  0  0  0  0  0  0  0  0
    0.5436  -12.1544    3.9930 H   0  0  0  0  0  0  0  0  0  0  0  0
    1.8817  -12.3301    2.8663 H   0  0  0  0  0  0  0  0  0  0  0  0
    0.2150  -12.2809    2.2768 H   0  0  0  0  0  0  0  0  0  0  0  0
   -0.5414   -8.9389    2.3069 H   0  0  0  0  0  0  0  0  0  0  0  0
   -1.0388  -10.2552    3.3231 H   0  0  0  0  0  0  0  0  0  0  0  0
   -0.9137   -8.2330    4.7137 H   0  0  0  0  0  0  0  0  0  0  0  0
    0.5971   -6.9615    3.3800 H   0  0  0  0  0  0  0  0  0  0  0  0
    0.4571   -6.6249    5.8774 H   0  0  0  0  0  0  0  0  0  0  0  0
   -0.5734   -3.9418    5.4697 H   0  0  0  0  0  0  0  0  0  0  0  0
   -0.1450   -4.8041    6.9284 H   0  0  0  0  0  0  0  0  0  0  0  0
   -0.9137   -2.5520    7.4450 H   0  0  0  0  0  0  0  0  0  0  0  0
    0.7457   -2.7686    7.9479 H   0  0  0  0  0  0  0  0  0  0  0  0
   -0.2139   -1.3058    5.4333 H   0  0  0  0  0  0  0  0  0  0  0  0
    0.5108   -0.5725    6.8444 H   0  0  0  0  0  0  0  0  0  0  0  0
    2.1651   -0.8442    4.9900 H   0  0  0  0  0  0  0  0  0  0  0  0
    2.6532   -1.7149    6.4201 H   0  0  0  0  0  0  0  0  0  0  0  0
    2.9787   -3.1331    4.4174 H   0  0  0  0  0  0  0  0  0  0  0  0
    1.3171   -2.8949    3.9478 H   0  0  0  0  0  0  0  0  0  0  0  0
    3.5176   -6.4910    5.8404 H   0  0  0  0  0  0  0  0  0  0  0  0
    3.7755   -6.5698    3.5893 H   0  0  0  0  0  0  0  0  0  0  0  0
    4.4603   -7.9937    2.8304 H   0  0  0  0  0  0  0  0  0  0  0  0
    4.1987   -8.0002    4.5199 H   0  0  0  0  0  0  0  0  0  0  0  0
    2.4315   -6.8447    1.6025 H   0  0  0  0  0  0  0  0  0  0  0  0
    1.2011   -8.0452    1.3975 H   0  0  0  0  0  0  0  0  0  0  0  0
    2.8799   -8.4968    1.2051 H   0  0  0  0  0  0  0  0  0  0  0  0
   -0.0704   -8.4768    7.1267 H   0  0  0  0  0  0  0  0  0  0  0  0
    0.4765  -10.1155    7.5087 H   0  0  0  0  0  0  0  0  0  0  0  0
   -1.0789   -9.8305    6.8060 H   0  0  0  0  0  0  0  0  0  0  0  0
    0.0149  -10.4975    5.1377 H   0  0  0  0  0  0  0  0  0  0  0  0
  1  2  1  0
  1 27  1  0
  1 28  1  0
  1 29  1  0
  2 21  1  0
  2  3  1  0
  2 30  1  1
  3  4  1  0
  3 31  1  0
  3 32  1  0
  4 25  1  0
  4  5  1  0
  4 33  1  6
  5 22  1  0
  5  6  1  0
  5 34  1  6
  6  7  1  0
  6  8  1  0
  6 35  1  6
  7 36  1  0
  7 37  1  0
  7 38  1  0
  8  9  1  0
  8 39  1  0
  8 40  1  0
  9 10  1  0
  9 25  1  0
  9 41  1  1
 10 11  1  0
 10 22  1  0
 10 42  1  6
 11 21  1  0
 11 12  1  0
 11 43  1  1
 12 13  1  0
 13 18  1  0
 13 14  1  0
 13 19  1  0
 14 15  1  0
 14 44  1  0
 14 45  1  0
 15 16  1  0
 15 46  1  0
 15 47  1  0
 16 17  1  0
 16 48  1  0
 16 49  1  0
 17 18  1  0
 17 50  1  0
 17 51  1  0
 18 52  1  0
 18 53  1  0
 19 20  1  0
 20 21  1  0
 21 54  1  6
 22 23  1  0
 22 24  1  0
 23 55  1  0
 23 56  1  0
 23 57  1  0
 24 58  1  0
 24 59  1  0
 24 60  1  0
 25 26  1  0
 25 64  1  6
 26 61  1  0
 26 62  1  0
 26 63  1  0
M  CHG  1  25   1
M  END
>  <i_m_ct_stereo_status>  (20) 
1

>  <s_m_source_file>  (20) 
/var/tmp/pbs.5076255.sched01/tmp25ygy55i/01wbi4d2b.sdf

>  <i_m_source_file_index>  (20) 
7

>  <i_lp_mmshare_version>  (20) 
48012

>  <i_f3d_flags>  (20) 
0

>  <s_epik_input>  (20) 
TzFPW0NASF0yW0NASF0oW0NIM10pW0NIMl1bQ0BASF0oTjNbQ0gzXSlbQ0BIXShDNChbQ0gzXSlbQ0gzXSlbQ0BASF0oW0NIM10pW0NIMl1bQ0BASF0zW0NASF00W0NAQEhdMk9DMTVbQ0gyXVtDSDJdW0NIMl1bQ0gyXVtDSDJdNQ==

>  <s_epik_cmdline>  (20) 
J2VwaWtfcHl0aG9uJywgJy1waHQnLCAnMi4wJywgJy1waCcsICc3LjAnLCAnLXRuJywgJzgnLCAnLW1hJywgJzIwMCcsICctaW1hZScsICc8aW5maWxlLm1hZT4nLCAnLW9tYWUnLCAnPG91dGZpbGUubWFlPic=

>  <r_epik_Ionization_Penalty>  (20) 
0.000620672

>  <r_epik_Ionization_Penalty_Charging>  (20) 
0.000620672

>  <r_epik_Ionization_Penalty_Neutral>  (20) 
1.013e-14

>  <r_epik_State_Penalty>  (20) 
0.000391809

>  <r_epik_Charging_Adjusted_Penalty>  (20) 
0.00101248

>  <i_epik_Tot_Q>  (20) 
1

>  <i_epik_Tot_abs_Q>  (20) 
1

>  <s_lp_Force_Field>  (20) 
OPLS3e

>  <r_lp_Energy>  (20) 
89.6569

>  <b_lp_Chiralities_Consistent>  (20) 
1

>  <s_lp_Variant>  (20) 
5:0-1

>  <s_i_glide_gridfile>  (20) 
pfpi4k_grid

>  <i_i_glide_lignum>  (20) 
7

>  <i_i_glide_rotatable_bonds>  (20) 
0

>  <r_i_docking_score>  (20) 
-2.50026

>  <r_i_glide_ligand_efficiency>  (20) 
-0.0961638

>  <r_i_glide_ligand_efficiency_sa>  (20) 
-0.284885

>  <r_i_glide_ligand_efficiency_ln>  (20) 
-0.587178

>  <r_i_glide_gscore>  (20) 
-2.50026

>  <r_i_glide_lipo>  (20) 
-0.184504

>  <r_i_glide_hbond>  (20) 
-0.0534476

>  <r_i_glide_metal>  (20) 
-0

>  <r_i_glide_rewards>  (20) 
-0.923577

>  <r_i_glide_evdw>  (20) 
-14.9577

>  <r_i_glide_ecoul>  (20) 
-3.47762

>  <r_i_glide_erotb>  (20) 
0

>  <r_i_glide_esite>  (20) 
-0.0692035

>  <r_i_glide_emodel>  (20) 
-22.8052

>  <r_i_glide_energy>  (20) 
-18.4353

>  <r_i_glide_einternal>  (20) 
0

>  <r_i_glide_intrahb_reward>  (20) 
-0

>  <i_i_glide_confnum>  (20) 
3

>  <i_i_glide_posenum>  (20) 
28

>  <r_i_glide_eff_state_penalty>  (20) 
0

>  <ligand_id>  (20) 
5

>  <original_smiles>  (20) 
CC1CC2C3C(C)CC(C(C4OC5(CCCCC5)OOC14)C3(C)C)N2C

>  <smiles>  (20) 
[H]C([H])([H])C1([H])C([H])([H])C2([H])C3([H])C([H])(C([H])([H])[H])C([H])([H])C([H])(C([H])(C4([H])OC5(OOC41[H])C([H])([H])C([H])([H])C([H])([H])C([H])([H])C5([H])[H])C3(C([H])([H])[H])C([H])([H])[H])[N+]2([H])C([H])([H])[H]

$$$$
5:0:2
     RDKit          3D

 64 68  0  0  1  0  0  0  0  0999 V2000
    2.8570    3.9176    3.0074 C   0  0  0  0  0  0  0  0  0  0  0  0
    1.8433    2.7782    3.2374 C   0  0  2  0  0  0  0  0  0  0  0  0
    0.9281    3.2277    4.4177 C   0  0  0  0  0  0  0  0  0  0  0  0
   -0.2404    2.3594    4.9590 C   0  0  2  0  0  0  0  0  0  0  0  0
   -0.0093    1.5021    6.2708 C   0  0  1  0  0  0  0  0  0  0  0  0
   -1.3519    0.7555    6.5801 C   0  0  1  0  0  0  0  0  0  0  0  0
   -2.5319    1.6978    6.8848 C   0  0  0  0  0  0  0  0  0  0  0  0
   -1.6416   -0.2422    5.4138 C   0  0  0  0  0  0  0  0  0  0  0  0
   -0.7122    0.0876    4.2235 C   0  0  2  0  0  0  0  0  0  0  0  0
    0.7861   -0.1706    4.6297 C   0  0  1  0  0  0  0  0  0  0  0  0
    1.7842    0.0676    3.4681 C   0  0  2  0  0  0  0  0  0  0  0  0
    2.7366   -0.9926    3.5665 O   0  0  0  0  0  0  0  0  0  0  0  0
    3.6381   -1.0959    2.4626 C   0  0  0  0  0  0  0  0  0  0  0  0
    2.9332   -1.6120    1.1831 C   0  0  0  0  0  0  0  0  0  0  0  0
    3.9131   -1.9534    0.0453 C   0  0  0  0  0  0  0  0  0  0  0  0
    4.9797   -2.9557    0.5053 C   0  0  0  0  0  0  0  0  0  0  0  0
    5.7229   -2.4281    1.7415 C   0  0  0  0  0  0  0  0  0  0  0  0
    4.7459   -2.0833    2.8847 C   0  0  0  0  0  0  0  0  0  0  0  0
    4.2486    0.1485    2.2125 O   0  0  0  0  0  0  0  0  0  0  0  0
    3.1513    1.1701    2.0296 O   0  0  0  0  0  0  0  0  0  0  0  0
    2.5807    1.4023    3.3041 C   0  0  1  0  0  0  0  0  0  0  0  0
    1.0993    0.4190    6.0575 C   0  0  0  0  0  0  0  0  0  0  0  0
    2.5090    1.0069    6.3306 C   0  0  0  0  0  0  0  0  0  0  0  0
    1.0721   -0.7412    7.1014 C   0  0  0  0  0  0  0  0  0  0  0  0
   -0.9632    1.5173    3.9610 N   0  0  2  0  0  0  0  0  0  0  0  0
   -1.0935    1.9315    2.5481 C   0  0  0  0  0  0  0  0  0  0  0  0
    3.5773    3.9921    3.8222 H   0  0  0  0  0  0  0  0  0  0  0  0
    2.3582    4.8838    2.9206 H   0  0  0  0  0  0  0  0  0  0  0  0
    3.4125    3.7785    2.0855 H   0  0  0  0  0  0  0  0  0  0  0  0
    1.2655    2.7860    2.3177 H   0  0  0  0  0  0  0  0  0  0  0  0
    1.5214    3.5911    5.2578 H   0  0  0  0  0  0  0  0  0  0  0  0
    0.4573    4.1436    4.0601 H   0  0  0  0  0  0  0  0  0  0  0  0
   -0.9629    3.1152    5.2515 H   0  0  0  0  0  0  0  0  0  0  0  0
    0.2508    2.1425    7.1192 H   0  0  0  0  0  0  0  0  0  0  0  0
   -1.2268    0.1955    7.5005 H   0  0  0  0  0  0  0  0  0  0  0  0
   -2.8718    2.2582    6.0169 H   0  0  0  0  0  0  0  0  0  0  0  0
   -2.2653    2.4225    7.6557 H   0  0  0  0  0  0  0  0  0  0  0  0
   -3.3837    1.1354    7.2521 H   0  0  0  0  0  0  0  0  0  0  0  0
   -1.5058   -1.2816    5.7248 H   0  0  0  0  0  0  0  0  0  0  0  0
   -2.6815   -0.1844    5.0969 H   0  0  0  0  0  0  0  0  0  0  0  0
   -0.9860   -0.5111    3.3656 H   0  0  0  0  0  0  0  0  0  0  0  0
    0.8085   -1.2553    4.7407 H   0  0  0  0  0  0  0  0  0  0  0  0
    1.2116   -0.0775    2.5535 H   0  0  0  0  0  0  0  0  0  0  0  0
    2.3571   -2.5032    1.4357 H   0  0  0  0  0  0  0  0  0  0  0  0
    2.2163   -0.8791    0.8176 H   0  0  0  0  0  0  0  0  0  0  0  0
    3.3591   -2.3613   -0.7996 H   0  0  0  0  0  0  0  0  0  0  0  0
    4.3904   -1.0421   -0.3127 H   0  0  0  0  0  0  0  0  0  0  0  0
    4.5104   -3.9132    0.7366 H   0  0  0  0  0  0  0  0  0  0  0  0
    5.6845   -3.1496   -0.3037 H   0  0  0  0  0  0  0  0  0  0  0  0
    6.4384   -3.1790    2.0783 H   0  0  0  0  0  0  0  0  0  0  0  0
    6.3067   -1.5476    1.4716 H   0  0  0  0  0  0  0  0  0  0  0  0
    5.3027   -1.6821    3.7328 H   0  0  0  0  0  0  0  0  0  0  0  0
    4.2781   -3.0067    3.2300 H   0  0  0  0  0  0  0  0  0  0  0  0
    3.4215    1.4751    3.9933 H   0  0  0  0  0  0  0  0  0  0  0  0
    3.3018    0.3467    5.9708 H   0  0  0  0  0  0  0  0  0  0  0  0
    2.6768    1.1403    7.4039 H   0  0  0  0  0  0  0  0  0  0  0  0
    2.6739    1.9926    5.9172 H   0  0  0  0  0  0  0  0  0  0  0  0
    1.9627   -1.3702    7.0128 H   0  0  0  0  0  0  0  0  0  0  0  0
    0.2337   -1.4261    6.9939 H   0  0  0  0  0  0  0  0  0  0  0  0
    1.0496   -0.3623    8.1271 H   0  0  0  0  0  0  0  0  0  0  0  0
   -0.3345    1.4989    1.9088 H   0  0  0  0  0  0  0  0  0  0  0  0
   -1.0885    3.0110    2.4491 H   0  0  0  0  0  0  0  0  0  0  0  0
   -2.0433    1.5811    2.1605 H   0  0  0  0  0  0  0  0  0  0  0  0
   -1.9182    1.6163    4.2713 H   0  0  0  0  0  0  0  0  0  0  0  0
  1  2  1  0
  1 27  1  0
  1 28  1  0
  1 29  1  0
  2 21  1  0
  2  3  1  0
  2 30  1  6
  3  4  1  0
  3 31  1  0
  3 32  1  0
  4 25  1  0
  4  5  1  0
  4 33  1  1
  5 22  1  0
  5  6  1  0
  5 34  1  1
  6  7  1  0
  6  8  1  0
  6 35  1  1
  7 36  1  0
  7 37  1  0
  7 38  1  0
  8  9  1  0
  8 39  1  0
  8 40  1  0
  9 10  1  0
  9 25  1  0
  9 41  1  6
 10 11  1  0
 10 22  1  0
 10 42  1  1
 11 21  1  0
 11 12  1  0
 11 43  1  6
 12 13  1  0
 13 18  1  0
 13 14  1  0
 13 19  1  0
 14 15  1  0
 14 44  1  0
 14 45  1  0
 15 16  1  0
 15 46  1  0
 15 47  1  0
 16 17  1  0
 16 48  1  0
 16 49  1  0
 17 18  1  0
 17 50  1  0
 17 51  1  0
 18 52  1  0
 18 53  1  0
 19 20  1  0
 20 21  1  0
 21 54  1  1
 22 23  1  0
 22 24  1  0
 23 55  1  0
 23 56  1  0
 23 57  1  0
 24 58  1  0
 24 59  1  0
 24 60  1  0
 25 26  1  0
 25 64  1  1
 26 61  1  0
 26 62  1  0
 26 63  1  0
M  CHG  1  25   1
M  END
>  <i_m_ct_stereo_status>  (21) 
1

>  <s_m_source_file>  (21) 
/var/tmp/pbs.5076255.sched01/tmp25ygy55i/01wbi4d2b.sdf

>  <i_m_source_file_index>  (21) 
7

>  <i_lp_mmshare_version>  (21) 
48012

>  <i_f3d_flags>  (21) 
0

>  <s_epik_input>  (21) 
TzFPW0NASF0yW0NASF0oW0NIM10pW0NIMl1bQ0BASF0oTjNbQ0gzXSlbQ0BIXShDNChbQ0gzXSlbQ0gzXSlbQ0BASF0oW0NIM10pW0NIMl1bQ0BASF0zW0NASF00W0NAQEhdMk9DMTVbQ0gyXVtDSDJdW0NIMl1bQ0gyXVtDSDJdNQ==

>  <s_epik_cmdline>  (21) 
J2VwaWtfcHl0aG9uJywgJy1waHQnLCAnMi4wJywgJy1waCcsICc3LjAnLCAnLXRuJywgJzgnLCAnLW1hJywgJzIwMCcsICctaW1hZScsICc8aW5maWxlLm1hZT4nLCAnLW9tYWUnLCAnPG91dGZpbGUubWFlPic=

>  <r_epik_Ionization_Penalty>  (21) 
0.000620672

>  <r_epik_Ionization_Penalty_Charging>  (21) 
0.000620672

>  <r_epik_Ionization_Penalty_Neutral>  (21) 
1.013e-14

>  <r_epik_State_Penalty>  (21) 
0.000391809

>  <r_epik_Charging_Adjusted_Penalty>  (21) 
0.00101248

>  <i_epik_Tot_Q>  (21) 
1

>  <i_epik_Tot_abs_Q>  (21) 
1

>  <s_lp_Force_Field>  (21) 
OPLS3e

>  <r_lp_Energy>  (21) 
89.6569

>  <b_lp_Chiralities_Consistent>  (21) 
1

>  <s_lp_Variant>  (21) 
5:0-1

>  <s_i_glide_gridfile>  (21) 
pfpi4k_grid

>  <i_i_glide_lignum>  (21) 
7

>  <i_i_glide_rotatable_bonds>  (21) 
0

>  <r_i_docking_score>  (21) 
-2.34737

>  <r_i_glide_ligand_efficiency>  (21) 
-0.0902835

>  <r_i_glide_ligand_efficiency_sa>  (21) 
-0.267464

>  <r_i_glide_ligand_efficiency_ln>  (21) 
-0.551272

>  <r_i_glide_gscore>  (21) 
-2.34737

>  <r_i_glide_lipo>  (21) 
-0.139615

>  <r_i_glide_hbond>  (21) 
-0.0117038

>  <r_i_glide_metal>  (21) 
-0

>  <r_i_glide_rewards>  (21) 
-0.92634

>  <r_i_glide_evdw>  (21) 
-17.1846

>  <r_i_glide_ecoul>  (21) 
-2.57556

>  <r_i_glide_erotb>  (21) 
0

>  <r_i_glide_esite>  (21) 
-0.0241462

>  <r_i_glide_emodel>  (21) 
-23.856

>  <r_i_glide_energy>  (21) 
-19.7602

>  <r_i_glide_einternal>  (21) 
0

>  <r_i_glide_intrahb_reward>  (21) 
-0

>  <i_i_glide_confnum>  (21) 
2

>  <i_i_glide_posenum>  (21) 
11

>  <r_i_glide_eff_state_penalty>  (21) 
0

>  <ligand_id>  (21) 
5

>  <original_smiles>  (21) 
CC1CC2C3C(C)CC(C(C4OC5(CCCCC5)OOC14)C3(C)C)N2C

>  <smiles>  (21) 
[H]C([H])([H])C1([H])C([H])([H])C2([H])C3([H])C([H])(C([H])([H])[H])C([H])([H])C([H])(C([H])(C4([H])OC5(OOC41[H])C([H])([H])C([H])([H])C([H])([H])C([H])([H])C5([H])[H])C3(C([H])([H])[H])C([H])([H])[H])[N+]2([H])C([H])([H])[H]

$$$$
6:0:0
     RDKit          3D

 59 64  0  0  1  0  0  0  0  0999 V2000
    0.0260    0.1631    6.0838 C   0  0  0  0  0  0  0  0  0  0  0  0
    0.1322    0.0174    4.7541 C   0  0  0  0  0  0  0  0  0  0  0  0
    1.3230   -0.4518    3.9897 C   0  0  2  0  0  0  0  0  0  0  0  0
    1.0215   -1.7540    3.2334 C   0  0  0  0  0  0  0  0  0  0  0  0
    1.9270   -2.9715    3.5627 C   0  0  1  0  0  0  0  0  0  0  0  0
    1.1276   -4.0478    4.3241 C   0  0  0  0  0  0  0  0  0  0  0  0
    2.8099   -3.5702    2.3965 C   0  0  2  0  0  0  0  0  0  0  0  0
    2.0823   -4.7128    1.9101 O   0  0  0  0  0  0  0  0  0  0  0  0
    2.7315   -5.9709    1.7826 C   0  0  0  0  0  0  0  0  0  0  0  0
    4.1907   -3.8455    2.9593 C   0  0  0  0  0  0  0  0  0  0  0  0
    5.0717   -2.9056    2.6045 C   0  0  0  0  0  0  0  0  0  0  0  0
    4.4808   -1.8405    1.7035 C   0  0  1  0  0  0  0  0  0  0  0  0
    5.5086   -1.5402    0.5765 C   0  0  0  0  0  0  0  0  0  0  0  0
    4.9671   -0.6946   -0.5787 C   0  0  0  0  0  0  0  0  0  0  0  0
    4.1368   -1.4028   -1.6311 C   0  0  0  0  0  0  0  0  0  0  0  0
    4.0173   -0.7537   -2.8793 C   0  0  0  0  0  0  0  0  0  0  0  0
    3.2653   -1.3193   -3.9191 C   0  0  0  0  0  0  0  0  0  0  0  0
    2.6177   -2.5445   -3.7178 C   0  0  0  0  0  0  0  0  0  0  0  0
    2.6996   -3.1761   -2.4703 C   0  0  0  0  0  0  0  0  0  0  0  0
    3.4648   -2.6310   -1.4182 C   0  0  0  0  0  0  0  0  0  0  0  0
    3.5156   -3.4161   -0.1103 C   0  0  0  0  0  0  0  0  0  0  0  0
    3.2133   -2.6154    1.1956 C   0  0  1  0  0  0  0  0  0  0  0  0
    4.1898   -0.5074    2.5165 C   0  0  2  0  0  0  0  0  0  0  0  0
    4.0619   -0.5521    4.0662 C   0  0  0  0  0  0  0  0  0  0  0  0
    2.7098    0.0101    4.4502 C   0  0  1  0  0  0  0  0  0  0  0  0
    2.1011    0.6256    3.2426 C   0  0  1  0  0  0  0  0  0  0  0  0
    3.0074    0.3910    2.0524 C   0  0  0  0  0  0  0  0  0  0  0  0
    0.8488   -0.0483    6.7493 H   0  0  0  0  0  0  0  0  0  0  0  0
   -0.8993    0.5113    6.5183 H   0  0  0  0  0  0  0  0  0  0  0  0
   -0.7327    0.2595    4.1508 H   0  0  0  0  0  0  0  0  0  0  0  0
   -0.0061   -2.0331    3.4743 H   0  0  0  0  0  0  0  0  0  0  0  0
    0.9487   -1.5193    2.1792 H   0  0  0  0  0  0  0  0  0  0  0  0
    2.5908   -2.6478    4.3509 H   0  0  0  0  0  0  0  0  0  0  0  0
    0.3417   -4.4782    3.7025 H   0  0  0  0  0  0  0  0  0  0  0  0
    0.6535   -3.6177    5.2093 H   0  0  0  0  0  0  0  0  0  0  0  0
    1.7801   -4.8560    4.6601 H   0  0  0  0  0  0  0  0  0  0  0  0
    2.0219   -6.6723    1.3488 H   0  0  0  0  0  0  0  0  0  0  0  0
    3.0390   -6.3734    2.7453 H   0  0  0  0  0  0  0  0  0  0  0  0
    3.5939   -5.9303    1.1216 H   0  0  0  0  0  0  0  0  0  0  0  0
    4.4220   -4.6890    3.5912 H   0  0  0  0  0  0  0  0  0  0  0  0
    6.1107   -2.8997    2.8894 H   0  0  0  0  0  0  0  0  0  0  0  0
    6.3481   -0.9974    1.0167 H   0  0  0  0  0  0  0  0  0  0  0  0
    5.9818   -2.4411    0.1878 H   0  0  0  0  0  0  0  0  0  0  0  0
    4.3863    0.1390   -0.1971 H   0  0  0  0  0  0  0  0  0  0  0  0
    5.8147   -0.2639   -1.0918 H   0  0  0  0  0  0  0  0  0  0  0  0
    4.4929    0.2036   -3.0374 H   0  0  0  0  0  0  0  0  0  0  0  0
    3.1634   -0.8062   -4.8646 H   0  0  0  0  0  0  0  0  0  0  0  0
    2.0250   -2.9975   -4.4967 H   0  0  0  0  0  0  0  0  0  0  0  0
    2.1629   -4.1022   -2.3406 H   0  0  0  0  0  0  0  0  0  0  0  0
    2.7576   -4.1816   -0.2362 H   0  0  0  0  0  0  0  0  0  0  0  0
    4.4477   -3.9739   -0.0444 H   0  0  0  0  0  0  0  0  0  0  0  0
    2.3970   -1.9855    0.8811 H   0  0  0  0  0  0  0  0  0  0  0  0
    5.0775    0.1124    2.3816 H   0  0  0  0  0  0  0  0  0  0  0  0
    4.2597   -1.4969    4.5637 H   0  0  0  0  0  0  0  0  0  0  0  0
    4.8148    0.1144    4.4910 H   0  0  0  0  0  0  0  0  0  0  0  0
    2.7322    0.6220    5.3484 H   0  0  0  0  0  0  0  0  0  0  0  0
    1.7494    1.6502    3.3354 H   0  0  0  0  0  0  0  0  0  0  0  0
    3.4031    1.3546    1.7324 H   0  0  0  0  0  0  0  0  0  0  0  0
    2.4224    0.0356    1.2084 H   0  0  0  0  0  0  0  0  0  0  0  0
  1  2  2  0
  1 28  1  0
  1 29  1  0
  3  2  1  1
  2 30  1  0
  3 25  1  0
  3 26  1  0
  3  4  1  0
  4  5  1  0
  4 31  1  0
  4 32  1  0
  5  6  1  0
  5  7  1  0
  5 33  1  1
  6 34  1  0
  6 35  1  0
  6 36  1  0
  7 22  1  0
  7  8  1  6
  7 10  1  0
  8  9  1  0
  9 37  1  0
  9 38  1  0
  9 39  1  0
 10 11  2  0
 10 40  1  0
 11 12  1  0
 11 41  1  0
 12 22  1  0
 12 13  1  6
 12 23  1  0
 13 14  1  0
 13 42  1  0
 13 43  1  0
 14 15  1  0
 14 44  1  0
 14 45  1  0
 15 20  2  0
 15 16  1  0
 16 17  2  0
 16 46  1  0
 17 18  1  0
 17 47  1  0
 18 19  2  0
 18 48  1  0
 19 20  1  0
 19 49  1  0
 20 21  1  0
 21 22  1  0
 21 50  1  0
 21 51  1  0
 22 52  1  6
 23 27  1  0
 23 24  1  0
 23 53  1  1
 24 25  1  0
 24 54  1  0
 24 55  1  0
 25 26  1  0
 25 56  1  1
 26 27  1  0
 26 57  1  1
 27 58  1  0
 27 59  1  0
M  END
>  <i_m_ct_stereo_status>  (22) 
1

>  <s_m_source_file>  (22) 
/var/tmp/pbs.5076255.sched01/tmp25ygy55i/01wbi4d2b.sdf

>  <i_m_source_file_index>  (22) 
8

>  <i_lp_mmshare_version>  (22) 
48012

>  <i_f3d_flags>  (22) 
0

>  <s_epik_input>  (22) 
W0NIMl0xW0NAQEhdMltDSDJdW0NAQEhdM1tDQEhdMVtDQF0zKFtDSF09W0NIMl0pW0NIMl1bQ0BASF0oW0NIM10pW0NAXShPW0NIM10pKFtDSF09W0NIXTQpW0NAQEhdKFtDQEBdMjQ1KVtDSDJdYzZjKFtDSDJdW0NIMl01KVtjSF1bY0hdW2NIXVtjSF02

>  <s_epik_cmdline>  (22) 
J2VwaWtfcHl0aG9uJywgJy1waHQnLCAnMi4wJywgJy1waCcsICc3LjAnLCAnLXRuJywgJzgnLCAnLW1hJywgJzIwMCcsICctaW1hZScsICc8aW5maWxlLm1hZT4nLCAnLW9tYWUnLCAnPG91dGZpbGUubWFlPic=

>  <r_lp_tautomer_probability>  (22) 
1

>  <r_epik_Ionization_Penalty>  (22) 
1.8127e-11

>  <r_epik_Ionization_Penalty_Charging>  (22) 
0

>  <r_epik_Ionization_Penalty_Neutral>  (22) 
1.8127e-11

>  <r_epik_State_Penalty>  (22) 
-0

>  <r_epik_Charging_Adjusted_Penalty>  (22) 
0

>  <i_epik_Tot_Q>  (22) 
0

>  <i_epik_Tot_abs_Q>  (22) 
0

>  <s_lp_Force_Field>  (22) 
OPLS3e

>  <r_lp_Energy>  (22) 
78.634

>  <b_lp_Chiralities_Consistent>  (22) 
1

>  <s_lp_Variant>  (22) 
6:0-1

>  <s_i_glide_gridfile>  (22) 
pfpi4k_grid

>  <i_i_glide_lignum>  (22) 
8

>  <i_i_glide_rotatable_bonds>  (22) 
2

>  <r_i_docking_score>  (22) 
-2.91664

>  <r_i_glide_ligand_efficiency>  (22) 
-0.108024

>  <r_i_glide_ligand_efficiency_sa>  (22) 
-0.324071

>  <r_i_glide_ligand_efficiency_ln>  (22) 
-0.678945

>  <r_i_glide_gscore>  (22) 
-2.91664

>  <r_i_glide_lipo>  (22) 
-0.805404

>  <r_i_glide_hbond>  (22) 
0

>  <r_i_glide_metal>  (22) 
-0

>  <r_i_glide_rewards>  (22) 
-0.95092

>  <r_i_glide_evdw>  (22) 
-23.8808

>  <r_i_glide_ecoul>  (22) 
-0.758869

>  <r_i_glide_erotb>  (22) 
0.147558

>  <r_i_glide_esite>  (22) 
0

>  <r_i_glide_emodel>  (22) 
-28.8405

>  <r_i_glide_energy>  (22) 
-24.6396

>  <r_i_glide_einternal>  (22) 
0.227142

>  <r_i_glide_intrahb_reward>  (22) 
-0

>  <i_i_glide_confnum>  (22) 
4

>  <i_i_glide_posenum>  (22) 
21

>  <r_i_glide_eff_state_penalty>  (22) 
0

>  <ligand_id>  (22) 
6

>  <original_smiles>  (22) 
C=CC12CC(C)C3(OC)C=CC4(CCc5ccccc5CC43)C3CC1C2C3

>  <smiles>  (22) 
[H]C([H])=C([H])C12C([H])([H])C([H])(C([H])([H])[H])C3(OC([H])([H])[H])C([H])=C([H])C4(C([H])([H])C([H])([H])c5c([H])c([H])c([H])c([H])c5C([H])([H])C34[H])C3([H])C([H])([H])C1([H])C2([H])C3([H])[H]

$$$$
6:0:1
     RDKit          3D

 59 64  0  0  1  0  0  0  0  0999 V2000
    0.3942   -0.3692    5.5199 C   0  0  0  0  0  0  0  0  0  0  0  0
    0.9781   -1.5809    5.4800 C   0  0  0  0  0  0  0  0  0  0  0  0
    2.0249   -2.0320    4.5147 C   0  0  2  0  0  0  0  0  0  0  0  0
    1.4370   -2.9797    3.4599 C   0  0  0  0  0  0  0  0  0  0  0  0
    2.0317   -4.4176    3.3985 C   0  0  1  0  0  0  0  0  0  0  0  0
    0.9991   -5.4369    3.9176 C   0  0  0  0  0  0  0  0  0  0  0  0
    2.7580   -4.8511    2.0604 C   0  0  2  0  0  0  0  0  0  0  0  0
    1.8099   -5.5947    1.2718 O   0  0  0  0  0  0  0  0  0  0  0  0
    1.8497   -7.0210    1.2545 C   0  0  0  0  0  0  0  0  0  0  0  0
    4.0420   -5.5757    2.4224 C   0  0  0  0  0  0  0  0  0  0  0  0
    5.1191   -4.7955    2.3007 C   0  0  0  0  0  0  0  0  0  0  0  0
    4.8002   -3.4103    1.7735 C   0  0  1  0  0  0  0  0  0  0  0  0
    5.8755   -3.0310    0.7151 C   0  0  0  0  0  0  0  0  0  0  0  0
    5.5554   -1.7848   -0.1198 C   0  0  0  0  0  0  0  0  0  0  0  0
    4.5803   -1.9566   -1.2724 C   0  0  0  0  0  0  0  0  0  0  0  0
    4.6183   -0.9732   -2.2835 C   0  0  0  0  0  0  0  0  0  0  0  0
    3.7692   -1.0257   -3.3955 C   0  0  0  0  0  0  0  0  0  0  0  0
    2.8514   -2.0786   -3.5073 C   0  0  0  0  0  0  0  0  0  0  0  0
    2.7874   -3.0587   -2.5022 C   0  0  0  0  0  0  0  0  0  0  0  0
    3.6432   -3.0188   -1.3791 C   0  0  0  0  0  0  0  0  0  0  0  0
    3.5103   -4.1461   -0.3507 C   0  0  0  0  0  0  0  0  0  0  0  0
    3.3861   -3.7074    1.1498 C   0  0  1  0  0  0  0  0  0  0  0  0
    4.8229   -2.3345    2.9444 C   0  0  2  0  0  0  0  0  0  0  0  0
    4.6647   -2.7925    4.4225 C   0  0  0  0  0  0  0  0  0  0  0  0
    3.4716   -2.0719    5.0223 C   0  0  1  0  0  0  0  0  0  0  0  0
    3.0587   -1.0024    4.0742 C   0  0  1  0  0  0  0  0  0  0  0  0
    3.8948   -1.0932    2.8183 C   0  0  0  0  0  0  0  0  0  0  0  0
    0.6624    0.4126    4.8278 H   0  0  0  0  0  0  0  0  0  0  0  0
   -0.3606   -0.1465    6.2575 H   0  0  0  0  0  0  0  0  0  0  0  0
    0.6714   -2.3217    6.2044 H   0  0  0  0  0  0  0  0  0  0  0  0
    0.3677   -3.0660    3.6713 H   0  0  0  0  0  0  0  0  0  0  0  0
    1.4236   -2.4567    2.5148 H   0  0  0  0  0  0  0  0  0  0  0  0
    2.7506   -4.4854    4.2020 H   0  0  0  0  0  0  0  0  0  0  0  0
    0.1756   -5.5345    3.2170 H   0  0  0  0  0  0  0  0  0  0  0  0
    0.5906   -5.1311    4.8831 H   0  0  0  0  0  0  0  0  0  0  0  0
    1.4539   -6.4182    4.0629 H   0  0  0  0  0  0  0  0  0  0  0  0
    1.0503   -7.3673    0.5981 H   0  0  0  0  0  0  0  0  0  0  0  0
    1.6884   -7.4718    2.2286 H   0  0  0  0  0  0  0  0  0  0  0  0
    2.7956   -7.3985    0.8763 H   0  0  0  0  0  0  0  0  0  0  0  0
    4.0684   -6.5943    2.7745 H   0  0  0  0  0  0  0  0  0  0  0  0
    6.1257   -5.1099    2.5266 H   0  0  0  0  0  0  0  0  0  0  0  0
    6.8138   -2.8470    1.2392 H   0  0  0  0  0  0  0  0  0  0  0  0
    6.1271   -3.8636    0.0599 H   0  0  0  0  0  0  0  0  0  0  0  0
    5.2088   -0.9683    0.5054 H   0  0  0  0  0  0  0  0  0  0  0  0
    6.4913   -1.4363   -0.5449 H   0  0  0  0  0  0  0  0  0  0  0  0
    5.3127   -0.1540   -2.2054 H   0  0  0  0  0  0  0  0  0  0  0  0
    3.8061   -0.2586   -4.1552 H   0  0  0  0  0  0  0  0  0  0  0  0
    2.1694   -2.1325   -4.3372 H   0  0  0  0  0  0  0  0  0  0  0  0
    2.0645   -3.8453   -2.6214 H   0  0  0  0  0  0  0  0  0  0  0  0
    2.6071   -4.6647   -0.6546 H   0  0  0  0  0  0  0  0  0  0  0  0
    4.2852   -4.8961   -0.4961 H   0  0  0  0  0  0  0  0  0  0  0  0
    2.7477   -2.8455    1.0722 H   0  0  0  0  0  0  0  0  0  0  0  0
    5.8314   -1.9229    2.9347 H   0  0  0  0  0  0  0  0  0  0  0  0
    4.6410   -3.8612    4.6214 H   0  0  0  0  0  0  0  0  0  0  0  0
    5.5474   -2.4655    4.9766 H   0  0  0  0  0  0  0  0  0  0  0  0
    3.6169   -1.7763    6.0564 H   0  0  0  0  0  0  0  0  0  0  0  0
    2.9837    0.0038    4.4754 H   0  0  0  0  0  0  0  0  0  0  0  0
    4.5072   -0.1919    2.7548 H   0  0  0  0  0  0  0  0  0  0  0  0
    3.2475   -1.0574    1.9461 H   0  0  0  0  0  0  0  0  0  0  0  0
  1  2  2  0
  1 28  1  0
  1 29  1  0
  3  2  1  1
  2 30  1  0
  3 25  1  0
  3 26  1  0
  3  4  1  0
  4  5  1  0
  4 31  1  0
  4 32  1  0
  5  6  1  0
  5  7  1  0
  5 33  1  1
  6 34  1  0
  6 35  1  0
  6 36  1  0
  7 22  1  0
  7  8  1  6
  7 10  1  0
  8  9  1  0
  9 37  1  0
  9 38  1  0
  9 39  1  0
 10 11  2  0
 10 40  1  0
 11 12  1  0
 11 41  1  0
 12 22  1  0
 12 13  1  6
 12 23  1  0
 13 14  1  0
 13 42  1  0
 13 43  1  0
 14 15  1  0
 14 44  1  0
 14 45  1  0
 15 20  2  0
 15 16  1  0
 16 17  2  0
 16 46  1  0
 17 18  1  0
 17 47  1  0
 18 19  2  0
 18 48  1  0
 19 20  1  0
 19 49  1  0
 20 21  1  0
 21 22  1  0
 21 50  1  0
 21 51  1  0
 22 52  1  6
 23 27  1  0
 23 24  1  0
 23 53  1  1
 24 25  1  0
 24 54  1  0
 24 55  1  0
 25 26  1  0
 25 56  1  1
 26 27  1  0
 26 57  1  1
 27 58  1  0
 27 59  1  0
M  END
>  <i_m_ct_stereo_status>  (23) 
1

>  <s_m_source_file>  (23) 
/var/tmp/pbs.5076255.sched01/tmp25ygy55i/01wbi4d2b.sdf

>  <i_m_source_file_index>  (23) 
8

>  <i_lp_mmshare_version>  (23) 
48012

>  <i_f3d_flags>  (23) 
0

>  <s_epik_input>  (23) 
W0NIMl0xW0NAQEhdMltDSDJdW0NAQEhdM1tDQEhdMVtDQF0zKFtDSF09W0NIMl0pW0NIMl1bQ0BASF0oW0NIM10pW0NAXShPW0NIM10pKFtDSF09W0NIXTQpW0NAQEhdKFtDQEBdMjQ1KVtDSDJdYzZjKFtDSDJdW0NIMl01KVtjSF1bY0hdW2NIXVtjSF02

>  <s_epik_cmdline>  (23) 
J2VwaWtfcHl0aG9uJywgJy1waHQnLCAnMi4wJywgJy1waCcsICc3LjAnLCAnLXRuJywgJzgnLCAnLW1hJywgJzIwMCcsICctaW1hZScsICc8aW5maWxlLm1hZT4nLCAnLW9tYWUnLCAnPG91dGZpbGUubWFlPic=

>  <r_lp_tautomer_probability>  (23) 
1

>  <r_epik_Ionization_Penalty>  (23) 
1.8127e-11

>  <r_epik_Ionization_Penalty_Charging>  (23) 
0

>  <r_epik_Ionization_Penalty_Neutral>  (23) 
1.8127e-11

>  <r_epik_State_Penalty>  (23) 
-0

>  <r_epik_Charging_Adjusted_Penalty>  (23) 
0

>  <i_epik_Tot_Q>  (23) 
0

>  <i_epik_Tot_abs_Q>  (23) 
0

>  <s_lp_Force_Field>  (23) 
OPLS3e

>  <r_lp_Energy>  (23) 
78.634

>  <b_lp_Chiralities_Consistent>  (23) 
1

>  <s_lp_Variant>  (23) 
6:0-1

>  <s_i_glide_gridfile>  (23) 
pfpi4k_grid

>  <i_i_glide_lignum>  (23) 
8

>  <i_i_glide_rotatable_bonds>  (23) 
2

>  <r_i_docking_score>  (23) 
-2.82975

>  <r_i_glide_ligand_efficiency>  (23) 
-0.104805

>  <r_i_glide_ligand_efficiency_sa>  (23) 
-0.314416

>  <r_i_glide_ligand_efficiency_ln>  (23) 
-0.658718

>  <r_i_glide_gscore>  (23) 
-2.82975

>  <r_i_glide_lipo>  (23) 
-0.601957

>  <r_i_glide_hbond>  (23) 
-0.0717413

>  <r_i_glide_metal>  (23) 
-0

>  <r_i_glide_rewards>  (23) 
-0.95092

>  <r_i_glide_evdw>  (23) 
-24.0601

>  <r_i_glide_ecoul>  (23) 
-0.997871

>  <r_i_glide_erotb>  (23) 
0.147558

>  <r_i_glide_esite>  (23) 
0

>  <r_i_glide_emodel>  (23) 
-29.0164

>  <r_i_glide_energy>  (23) 
-25.058

>  <r_i_glide_einternal>  (23) 
0.350848

>  <r_i_glide_intrahb_reward>  (23) 
-0

>  <i_i_glide_confnum>  (23) 
3

>  <i_i_glide_posenum>  (23) 
9

>  <r_i_glide_eff_state_penalty>  (23) 
0

>  <ligand_id>  (23) 
6

>  <original_smiles>  (23) 
C=CC12CC(C)C3(OC)C=CC4(CCc5ccccc5CC43)C3CC1C2C3

>  <smiles>  (23) 
[H]C([H])=C([H])C12C([H])([H])C([H])(C([H])([H])[H])C3(OC([H])([H])[H])C([H])=C([H])C4(C([H])([H])C([H])([H])c5c([H])c([H])c([H])c([H])c5C([H])([H])C34[H])C3([H])C([H])([H])C1([H])C2([H])C3([H])[H]

$$$$
6:0:2
     RDKit          3D

 59 64  0  0  1  0  0  0  0  0999 V2000
    0.8235   -2.2644    6.8838 C   0  0  0  0  0  0  0  0  0  0  0  0
    0.9152   -1.9468    5.5886 C   0  0  0  0  0  0  0  0  0  0  0  0
    1.9501   -2.3984    4.6179 C   0  0  2  0  0  0  0  0  0  0  0  0
    1.3292   -3.2622    3.5066 C   0  0  0  0  0  0  0  0  0  0  0  0
    1.8808   -4.7025    3.3710 C   0  0  1  0  0  0  0  0  0  0  0  0
    0.8414   -5.7165    3.8832 C   0  0  0  0  0  0  0  0  0  0  0  0
    2.5853   -5.0939    1.9986 C   0  0  2  0  0  0  0  0  0  0  0  0
    1.6245   -5.7960    1.1826 O   0  0  0  0  0  0  0  0  0  0  0  0
    1.5566   -7.2156    1.1843 C   0  0  0  0  0  0  0  0  0  0  0  0
    3.8596   -5.8486    2.3116 C   0  0  0  0  0  0  0  0  0  0  0  0
    4.9549   -5.0816    2.2149 C   0  0  0  0  0  0  0  0  0  0  0  0
    4.6543   -3.6659    1.7589 C   0  0  1  0  0  0  0  0  0  0  0  0
    5.7305   -3.2570    0.7059 C   0  0  0  0  0  0  0  0  0  0  0  0
    5.4279   -1.9646   -0.0635 C   0  0  0  0  0  0  0  0  0  0  0  0
    4.4374   -2.0651   -1.2171 C   0  0  0  0  0  0  0  0  0  0  0  0
    4.4978   -1.0379   -2.1833 C   0  0  0  0  0  0  0  0  0  0  0  0
    3.6331   -1.0221   -3.2904 C   0  0  0  0  0  0  0  0  0  0  0  0
    2.7002   -2.0523   -3.4512 C   0  0  0  0  0  0  0  0  0  0  0  0
    2.6154   -3.0686   -2.4854 C   0  0  0  0  0  0  0  0  0  0  0  0
    3.4783   -3.0926   -1.3623 C   0  0  0  0  0  0  0  0  0  0  0  0
    3.3280   -4.2677   -0.3828 C   0  0  0  0  0  0  0  0  0  0  0  0
    3.2274   -3.9110    1.1400 C   0  0  1  0  0  0  0  0  0  0  0  0
    4.7154   -2.6528    2.9791 C   0  0  2  0  0  0  0  0  0  0  0  0
    4.5748   -3.1802    4.4348 C   0  0  0  0  0  0  0  0  0  0  0  0
    3.4071   -2.4717    5.0880 C   0  0  1  0  0  0  0  0  0  0  0  0
    2.9818   -1.3583    4.1998 C   0  0  1  0  0  0  0  0  0  0  0  0
    3.8056   -1.3916    2.9300 C   0  0  0  0  0  0  0  0  0  0  0  0
    1.5461   -2.9106    7.3675 H   0  0  0  0  0  0  0  0  0  0  0  0
    0.0163   -1.8783    7.4871 H   0  0  0  0  0  0  0  0  0  0  0  0
    0.1586   -1.2897    5.1740 H   0  0  0  0  0  0  0  0  0  0  0  0
    0.2591   -3.3270    3.7195 H   0  0  0  0  0  0  0  0  0  0  0  0
    1.3266   -2.6772    2.5961 H   0  0  0  0  0  0  0  0  0  0  0  0
    2.6175   -4.8170    4.1528 H   0  0  0  0  0  0  0  0  0  0  0  0
    0.0135   -5.8075    3.1872 H   0  0  0  0  0  0  0  0  0  0  0  0
    0.4246   -5.3939    4.8449 H   0  0  0  0  0  0  0  0  0  0  0  0
    1.2864   -6.7046    4.0002 H   0  0  0  0  0  0  0  0  0  0  0  0
    0.7907   -7.4889    0.4595 H   0  0  0  0  0  0  0  0  0  0  0  0
    1.2983   -7.6408    2.1479 H   0  0  0  0  0  0  0  0  0  0  0  0
    2.4973   -7.6574    0.8742 H   0  0  0  0  0  0  0  0  0  0  0  0
    3.8800   -6.8835    2.6099 H   0  0  0  0  0  0  0  0  0  0  0  0
    5.9562   -5.4286    2.4077 H   0  0  0  0  0  0  0  0  0  0  0  0
    6.6789   -3.1179    1.2272 H   0  0  0  0  0  0  0  0  0  0  0  0
    5.9598   -4.0627    0.0076 H   0  0  0  0  0  0  0  0  0  0  0  0
    5.1025   -1.1745    0.6046 H   0  0  0  0  0  0  0  0  0  0  0  0
    6.3679   -1.6101   -0.4802 H   0  0  0  0  0  0  0  0  0  0  0  0
    5.2079   -0.2369   -2.0666 H   0  0  0  0  0  0  0  0  0  0  0  0
    3.6746   -0.2115   -4.0026 H   0  0  0  0  0  0  0  0  0  0  0  0
    2.0256   -2.0506   -4.2938 H   0  0  0  0  0  0  0  0  0  0  0  0
    1.8829   -3.8489   -2.6308 H   0  0  0  0  0  0  0  0  0  0  0  0
    2.4141   -4.7560   -0.7019 H   0  0  0  0  0  0  0  0  0  0  0  0
    4.0929   -5.0200   -0.5735 H   0  0  0  0  0  0  0  0  0  0  0  0
    2.6061   -3.0281    1.1115 H   0  0  0  0  0  0  0  0  0  0  0  0
    5.7334   -2.2563    2.9785 H   0  0  0  0  0  0  0  0  0  0  0  0
    4.5237   -4.2566    4.5799 H   0  0  0  0  0  0  0  0  0  0  0  0
    5.4699   -2.8973    4.9903 H   0  0  0  0  0  0  0  0  0  0  0  0
    3.5779   -2.2200    6.1324 H   0  0  0  0  0  0  0  0  0  0  0  0
    2.8999   -0.3722    4.6521 H   0  0  0  0  0  0  0  0  0  0  0  0
    4.4301   -0.4979    2.9116 H   0  0  0  0  0  0  0  0  0  0  0  0
    3.1513   -1.2970    2.0664 H   0  0  0  0  0  0  0  0  0  0  0  0
  1  2  2  0
  1 28  1  0
  1 29  1  0
  3  2  1  1
  2 30  1  0
  3 25  1  0
  3 26  1  0
  3  4  1  0
  4  5  1  0
  4 31  1  0
  4 32  1  0
  5  6  1  0
  5  7  1  0
  5 33  1  1
  6 34  1  0
  6 35  1  0
  6 36  1  0
  7 22  1  0
  7  8  1  6
  7 10  1  0
  8  9  1  0
  9 37  1  0
  9 38  1  0
  9 39  1  0
 10 11  2  0
 10 40  1  0
 11 12  1  0
 11 41  1  0
 12 22  1  0
 12 13  1  6
 12 23  1  0
 13 14  1  0
 13 42  1  0
 13 43  1  0
 14 15  1  0
 14 44  1  0
 14 45  1  0
 15 20  2  0
 15 16  1  0
 16 17  2  0
 16 46  1  0
 17 18  1  0
 17 47  1  0
 18 19  2  0
 18 48  1  0
 19 20  1  0
 19 49  1  0
 20 21  1  0
 21 22  1  0
 21 50  1  0
 21 51  1  0
 22 52  1  6
 23 27  1  0
 23 24  1  0
 23 53  1  1
 24 25  1  0
 24 54  1  0
 24 55  1  0
 25 26  1  0
 25 56  1  1
 26 27  1  0
 26 57  1  1
 27 58  1  0
 27 59  1  0
M  END
>  <i_m_ct_stereo_status>  (24) 
1

>  <s_m_source_file>  (24) 
/var/tmp/pbs.5076255.sched01/tmp25ygy55i/01wbi4d2b.sdf

>  <i_m_source_file_index>  (24) 
8

>  <i_lp_mmshare_version>  (24) 
48012

>  <i_f3d_flags>  (24) 
0

>  <s_epik_input>  (24) 
W0NIMl0xW0NAQEhdMltDSDJdW0NAQEhdM1tDQEhdMVtDQF0zKFtDSF09W0NIMl0pW0NIMl1bQ0BASF0oW0NIM10pW0NAXShPW0NIM10pKFtDSF09W0NIXTQpW0NAQEhdKFtDQEBdMjQ1KVtDSDJdYzZjKFtDSDJdW0NIMl01KVtjSF1bY0hdW2NIXVtjSF02

>  <s_epik_cmdline>  (24) 
J2VwaWtfcHl0aG9uJywgJy1waHQnLCAnMi4wJywgJy1waCcsICc3LjAnLCAnLXRuJywgJzgnLCAnLW1hJywgJzIwMCcsICctaW1hZScsICc8aW5maWxlLm1hZT4nLCAnLW9tYWUnLCAnPG91dGZpbGUubWFlPic=

>  <r_lp_tautomer_probability>  (24) 
1

>  <r_epik_Ionization_Penalty>  (24) 
1.8127e-11

>  <r_epik_Ionization_Penalty_Charging>  (24) 
0

>  <r_epik_Ionization_Penalty_Neutral>  (24) 
1.8127e-11

>  <r_epik_State_Penalty>  (24) 
-0

>  <r_epik_Charging_Adjusted_Penalty>  (24) 
0

>  <i_epik_Tot_Q>  (24) 
0

>  <i_epik_Tot_abs_Q>  (24) 
0

>  <s_lp_Force_Field>  (24) 
OPLS3e

>  <r_lp_Energy>  (24) 
78.634

>  <b_lp_Chiralities_Consistent>  (24) 
1

>  <s_lp_Variant>  (24) 
6:0-1

>  <s_i_glide_gridfile>  (24) 
pfpi4k_grid

>  <i_i_glide_lignum>  (24) 
8

>  <i_i_glide_rotatable_bonds>  (24) 
2

>  <r_i_docking_score>  (24) 
-2.80781

>  <r_i_glide_ligand_efficiency>  (24) 
-0.103993

>  <r_i_glide_ligand_efficiency_sa>  (24) 
-0.311979

>  <r_i_glide_ligand_efficiency_ln>  (24) 
-0.653611

>  <r_i_glide_gscore>  (24) 
-2.80781

>  <r_i_glide_lipo>  (24) 
-0.496966

>  <r_i_glide_hbond>  (24) 
-0.111549

>  <r_i_glide_metal>  (24) 
-0

>  <r_i_glide_rewards>  (24) 
-0.95092

>  <r_i_glide_evdw>  (24) 
-23.3309

>  <r_i_glide_ecoul>  (24) 
-1.52925

>  <r_i_glide_erotb>  (24) 
0.147558

>  <r_i_glide_esite>  (24) 
0

>  <r_i_glide_emodel>  (24) 
-28.6599

>  <r_i_glide_energy>  (24) 
-24.8601

>  <r_i_glide_einternal>  (24) 
0.330777

>  <r_i_glide_intrahb_reward>  (24) 
-0

>  <i_i_glide_confnum>  (24) 
6

>  <i_i_glide_posenum>  (24) 
14

>  <r_i_glide_eff_state_penalty>  (24) 
0

>  <ligand_id>  (24) 
6

>  <original_smiles>  (24) 
C=CC12CC(C)C3(OC)C=CC4(CCc5ccccc5CC43)C3CC1C2C3

>  <smiles>  (24) 
[H]C([H])=C([H])C12C([H])([H])C([H])(C([H])([H])[H])C3(OC([H])([H])[H])C([H])=C([H])C4(C([H])([H])C([H])([H])c5c([H])c([H])c([H])c([H])c5C([H])([H])C34[H])C3([H])C([H])([H])C1([H])C2([H])C3([H])[H]

$$$$
6:1:0
     RDKit          3D

 59 64  0  0  1  0  0  0  0  0999 V2000
    0.9373  -10.5598    2.5602 C   0  0  0  0  0  0  0  0  0  0  0  0
    2.1591  -10.0102    2.4787 C   0  0  0  0  0  0  0  0  0  0  0  0
    2.5240   -8.7774    1.7299 C   0  0  1  0  0  0  0  0  0  0  0  0
    3.9331   -8.8321    1.0169 C   0  0  0  0  0  0  0  0  0  0  0  0
    5.2048   -8.3592    1.9092 C   0  0  1  0  0  0  0  0  0  0  0  0
    6.3756   -9.3070    1.5551 C   0  0  0  0  0  0  0  0  0  0  0  0
    5.6886   -6.7892    2.1621 C   0  0  2  0  0  0  0  0  0  0  0  0
    6.8235   -6.6440    1.2856 O   0  0  0  0  0  0  0  0  0  0  0  0
    8.1579   -6.6559    1.7947 C   0  0  0  0  0  0  0  0  0  0  0  0
    5.9898   -6.6043    3.6452 C   0  0  0  0  0  0  0  0  0  0  0  0
    5.1366   -5.7919    4.3003 C   0  0  0  0  0  0  0  0  0  0  0  0
    4.0297   -5.1752    3.4424 C   0  0  1  0  0  0  0  0  0  0  0  0
    3.7594   -3.7146    3.9725 C   0  0  0  0  0  0  0  0  0  0  0  0
    4.8142   -2.6103    3.8497 C   0  0  0  0  0  0  0  0  0  0  0  0
    4.7939   -2.0514    2.4504 C   0  0  0  0  0  0  0  0  0  0  0  0
    4.3148   -0.7458    2.2066 C   0  0  0  0  0  0  0  0  0  0  0  0
    4.2254   -0.2645    0.8895 C   0  0  0  0  0  0  0  0  0  0  0  0
    4.6110   -1.0804   -0.1850 C   0  0  0  0  0  0  0  0  0  0  0  0
    5.0979   -2.3801    0.0562 C   0  0  0  0  0  0  0  0  0  0  0  0
    5.1930   -2.8670    1.3797 C   0  0  0  0  0  0  0  0  0  0  0  0
    5.7914   -4.2387    1.6477 C   0  0  0  0  0  0  0  0  0  0  0  0
    4.8132   -5.4033    2.0250 C   0  0  1  0  0  0  0  0  0  0  0  0
    2.5608   -5.8882    3.6803 C   0  0  1  0  0  0  0  0  0  0  0  0
    1.2178   -6.2986    2.8338 C   0  0  0  0  0  0  0  0  0  0  0  0
    1.4660   -7.4939    1.8292 C   0  0  2  0  0  0  0  0  0  0  0  0
    2.7294   -7.6100    2.3763 C   0  0  1  0  0  0  0  0  0  0  0  0
    2.8244   -7.3714    3.8196 C   0  0  0  0  0  0  0  0  0  0  0  0
    0.0725  -10.1320    2.0656 H   0  0  0  0  0  0  0  0  0  0  0  0
    0.7885  -11.4625    3.1409 H   0  0  0  0  0  0  0  0  0  0  0  0
    2.9785  -10.4990    2.9911 H   0  0  0  0  0  0  0  0  0  0  0  0
    4.0682   -9.8484    0.6793 H   0  0  0  0  0  0  0  0  0  0  0  0
    3.9213   -8.2406    0.1042 H   0  0  0  0  0  0  0  0  0  0  0  0
    4.9723   -8.7563    2.8953 H   0  0  0  0  0  0  0  0  0  0  0  0
    6.8056   -9.0779    0.5814 H   0  0  0  0  0  0  0  0  0  0  0  0
    6.0518  -10.3511    1.5334 H   0  0  0  0  0  0  0  0  0  0  0  0
    7.1551   -9.2658    2.3138 H   0  0  0  0  0  0  0  0  0  0  0  0
    8.8347   -6.5641    0.9483 H   0  0  0  0  0  0  0  0  0  0  0  0
    8.4221   -7.5787    2.3046 H   0  0  0  0  0  0  0  0  0  0  0  0
    8.3541   -5.8246    2.4693 H   0  0  0  0  0  0  0  0  0  0  0  0
    6.7991   -7.1208    4.1305 H   0  0  0  0  0  0  0  0  0  0  0  0
    5.2072   -5.5949    5.3599 H   0  0  0  0  0  0  0  0  0  0  0  0
    2.8331   -3.3190    3.5542 H   0  0  0  0  0  0  0  0  0  0  0  0
    3.5473   -3.8135    5.0408 H   0  0  0  0  0  0  0  0  0  0  0  0
    4.5704   -1.8063    4.5434 H   0  0  0  0  0  0  0  0  0  0  0  0
    5.8044   -2.9565    4.1419 H   0  0  0  0  0  0  0  0  0  0  0  0
    4.0027   -0.1094    3.0230 H   0  0  0  0  0  0  0  0  0  0  0  0
    3.8540    0.7330    0.7068 H   0  0  0  0  0  0  0  0  0  0  0  0
    4.5345   -0.7058   -1.1944 H   0  0  0  0  0  0  0  0  0  0  0  0
    5.4102   -2.9959   -0.7760 H   0  0  0  0  0  0  0  0  0  0  0  0
    6.3184   -4.4765    0.7268 H   0  0  0  0  0  0  0  0  0  0  0  0
    6.5806   -4.1491    2.3915 H   0  0  0  0  0  0  0  0  0  0  0  0
    4.1624   -5.3731    1.1551 H   0  0  0  0  0  0  0  0  0  0  0  0
    2.5263   -5.3099    2.7574 H   0  0  0  0  0  0  0  0  0  0  0  0
    0.4520   -6.6414    3.5363 H   0  0  0  0  0  0  0  0  0  0  0  0
    0.7027   -5.4761    2.3205 H   0  0  0  0  0  0  0  0  0  0  0  0
    1.2818   -7.1574    0.8114 H   0  0  0  0  0  0  0  0  0  0  0  0
    3.2160   -6.9321    1.7352 H   0  0  0  0  0  0  0  0  0  0  0  0
    3.7440   -7.7281    4.2564 H   0  0  0  0  0  0  0  0  0  0  0  0
    2.0434   -7.9170    4.3514 H   0  0  0  0  0  0  0  0  0  0  0  0
  1  2  2  0
  1 28  1  0
  1 29  1  0
  3  2  1  1
  2 30  1  0
  3 25  1  0
  3 26  1  0
  3  4  1  0
  4  5  1  0
  4 31  1  0
  4 32  1  0
  5  6  1  0
  5  7  1  0
  5 33  1  1
  6 34  1  0
  6 35  1  0
  6 36  1  0
  7 22  1  0
  7  8  1  6
  7 10  1  0
  8  9  1  0
  9 37  1  0
  9 38  1  0
  9 39  1  0
 10 11  2  0
 10 40  1  0
 11 12  1  0
 11 41  1  0
 12 22  1  0
 12 13  1  1
 12 23  1  0
 13 14  1  0
 13 42  1  0
 13 43  1  0
 14 15  1  0
 14 44  1  0
 14 45  1  0
 15 20  2  0
 15 16  1  0
 16 17  2  0
 16 46  1  0
 17 18  1  0
 17 47  1  0
 18 19  2  0
 18 48  1  0
 19 20  1  0
 19 49  1  0
 20 21  1  0
 21 22  1  0
 21 50  1  0
 21 51  1  0
 22 52  1  6
 23 27  1  0
 23 24  1  0
 23 53  1  1
 24 25  1  0
 24 54  1  0
 24 55  1  0
 25 26  1  0
 25 56  1  6
 26 27  1  0
 26 57  1  6
 27 58  1  0
 27 59  1  0
M  END
>  <i_m_ct_stereo_status>  (25) 
1

>  <s_m_source_file>  (25) 
/var/tmp/pbs.5076255.sched01/tmp25ygy55i/01wbi4d2b.sdf

>  <i_m_source_file_index>  (25) 
9

>  <i_lp_mmshare_version>  (25) 
48012

>  <i_f3d_flags>  (25) 
0

>  <s_epik_input>  (25) 
W0NIMl0xW0NAQEhdMltDSDJdW0NAQEhdM1tDQEhdMVtDQF0zKFtDSF09W0NIMl0pW0NIMl1bQ0BASF0oW0NIM10pW0NAXShPW0NIM10pKFtDSF09W0NIXTQpW0NAQEhdKFtDQEBdMjQ1KVtDSDJdYzZjKFtDSDJdW0NIMl01KVtjSF1bY0hdW2NIXVtjSF02

>  <s_epik_cmdline>  (25) 
J2VwaWtfcHl0aG9uJywgJy1waHQnLCAnMi4wJywgJy1waCcsICc3LjAnLCAnLXRuJywgJzgnLCAnLW1hJywgJzIwMCcsICctaW1hZScsICc8aW5maWxlLm1hZT4nLCAnLW9tYWUnLCAnPG91dGZpbGUubWFlPic=

>  <r_lp_tautomer_probability>  (25) 
1

>  <r_epik_Ionization_Penalty>  (25) 
1.8127e-11

>  <r_epik_Ionization_Penalty_Charging>  (25) 
0

>  <r_epik_Ionization_Penalty_Neutral>  (25) 
1.8127e-11

>  <r_epik_State_Penalty>  (25) 
-0

>  <r_epik_Charging_Adjusted_Penalty>  (25) 
0

>  <i_epik_Tot_Q>  (25) 
0

>  <i_epik_Tot_abs_Q>  (25) 
0

>  <s_lp_Force_Field>  (25) 
OPLS3e

>  <r_lp_Energy>  (25) 
258.826

>  <b_lp_Chiralities_Consistent>  (25) 
1

>  <s_lp_Variant>  (25) 
6:0-2

>  <s_i_glide_gridfile>  (25) 
pfpi4k_grid

>  <i_i_glide_lignum>  (25) 
9

>  <i_i_glide_rotatable_bonds>  (25) 
2

>  <r_i_docking_score>  (25) 
-2.67989

>  <r_i_glide_ligand_efficiency>  (25) 
-0.099255

>  <r_i_glide_ligand_efficiency_sa>  (25) 
-0.297765

>  <r_i_glide_ligand_efficiency_ln>  (25) 
-0.623833

>  <r_i_glide_gscore>  (25) 
-2.67989

>  <r_i_glide_lipo>  (25) 
-0.751311

>  <r_i_glide_hbond>  (25) 
0

>  <r_i_glide_metal>  (25) 
-0

>  <r_i_glide_rewards>  (25) 
-0.95092

>  <r_i_glide_evdw>  (25) 
-21.7404

>  <r_i_glide_ecoul>  (25) 
-0.254616

>  <r_i_glide_erotb>  (25) 
0.147558

>  <r_i_glide_esite>  (25) 
0

>  <r_i_glide_emodel>  (25) 
-25.5263

>  <r_i_glide_energy>  (25) 
-21.995

>  <r_i_glide_einternal>  (25) 
0.272873

>  <r_i_glide_intrahb_reward>  (25) 
-0

>  <i_i_glide_confnum>  (25) 
2

>  <i_i_glide_posenum>  (25) 
26

>  <r_i_glide_eff_state_penalty>  (25) 
0

>  <ligand_id>  (25) 
6

>  <original_smiles>  (25) 
C=CC12CC(C)C3(OC)C=CC4(CCc5ccccc5CC43)C3CC1C2C3

>  <smiles>  (25) 
[H]C([H])=C([H])C12C([H])([H])C([H])(C([H])([H])[H])C3(OC([H])([H])[H])C([H])=C([H])C4(C([H])([H])C([H])([H])c5c([H])c([H])c([H])c([H])c5C([H])([H])C34[H])C3([H])C([H])([H])C1([H])C2([H])C3([H])[H]

$$$$
6:1:1
     RDKit          3D

 59 64  0  0  1  0  0  0  0  0999 V2000
    1.3097  -10.3853    3.5479 C   0  0  0  0  0  0  0  0  0  0  0  0
    2.3812   -9.5826    3.4371 C   0  0  0  0  0  0  0  0  0  0  0  0
    2.7177   -8.7218    2.2734 C   0  0  1  0  0  0  0  0  0  0  0  0
    4.1212   -9.0221    1.6131 C   0  0  0  0  0  0  0  0  0  0  0  0
    5.3913   -8.2214    2.2381 C   0  0  1  0  0  0  0  0  0  0  0  0
    6.5928   -9.1966    2.2422 C   0  0  0  0  0  0  0  0  0  0  0  0
    5.8435   -6.6642    1.8794 C   0  0  2  0  0  0  0  0  0  0  0  0
    6.9631   -6.8452    0.9962 O   0  0  0  0  0  0  0  0  0  0  0  0
    8.2880   -6.5368    1.4154 C   0  0  0  0  0  0  0  0  0  0  0  0
    6.1600   -5.9352    3.1811 C   0  0  0  0  0  0  0  0  0  0  0  0
    5.3020   -4.9447    3.4948 C   0  0  0  0  0  0  0  0  0  0  0  0
    4.1780   -4.7114    2.4820 C   0  0  1  0  0  0  0  0  0  0  0  0
    3.8942   -3.1631    2.4205 C   0  0  0  0  0  0  0  0  0  0  0  0
    4.9310   -2.1732    1.8706 C   0  0  0  0  0  0  0  0  0  0  0  0
    4.8849   -2.1803    0.3622 C   0  0  0  0  0  0  0  0  0  0  0  0
    4.3845   -1.0697   -0.3504 C   0  0  0  0  0  0  0  0  0  0  0  0
    4.2744   -1.1233   -1.7529 C   0  0  0  0  0  0  0  0  0  0  0  0
    4.6601   -2.2860   -2.4421 C   0  0  0  0  0  0  0  0  0  0  0  0
    5.1658   -3.3903   -1.7306 C   0  0  0  0  0  0  0  0  0  0  0  0
    5.2807   -3.3392   -0.3248 C   0  0  0  0  0  0  0  0  0  0  0  0
    5.9036   -4.4971    0.4396 C   0  0  0  0  0  0  0  0  0  0  0  0
    4.9480   -5.4441    1.2432 C   0  0  1  0  0  0  0  0  0  0  0  0
    2.7252   -5.3025    2.9938 C   0  0  1  0  0  0  0  0  0  0  0  0
    1.3822   -6.0227    2.3901 C   0  0  0  0  0  0  0  0  0  0  0  0
    1.6390   -7.5080    1.9098 C   0  0  2  0  0  0  0  0  0  0  0  0
    2.9086   -7.3928    2.4273 C   0  0  1  0  0  0  0  0  0  0  0  0
    3.0159   -6.6210    3.6722 C   0  0  0  0  0  0  0  0  0  0  0  0
    0.5726  -10.4816    2.7601 H   0  0  0  0  0  0  0  0  0  0  0  0
    1.1602  -10.9607    4.4536 H   0  0  0  0  0  0  0  0  0  0  0  0
    3.0818   -9.5406    4.2593 H   0  0  0  0  0  0  0  0  0  0  0  0
    4.2757  -10.0980    1.6960 H   0  0  0  0  0  0  0  0  0  0  0  0
    4.0686   -8.8377    0.5408 H   0  0  0  0  0  0  0  0  0  0  0  0
    5.1789   -8.2235    3.3051 H   0  0  0  0  0  0  0  0  0  0  0  0
    6.9827   -9.3658    1.2399 H   0  0  0  0  0  0  0  0  0  0  0  0
    6.3116  -10.1676    2.6540 H   0  0  0  0  0  0  0  0  0  0  0  0
    7.3996   -8.8324    2.8776 H   0  0  0  0  0  0  0  0  0  0  0  0
    8.9606   -6.7737    0.5931 H   0  0  0  0  0  0  0  0  0  0  0  0
    8.6085   -7.1205    2.2766 H   0  0  0  0  0  0  0  0  0  0  0  0
    8.4209   -5.4819    1.6441 H   0  0  0  0  0  0  0  0  0  0  0  0
    6.9852   -6.2230    3.8118 H   0  0  0  0  0  0  0  0  0  0  0  0
    5.3806   -4.3597    4.3977 H   0  0  0  0  0  0  0  0  0  0  0  0
    2.9589   -2.9649    1.8970 H   0  0  0  0  0  0  0  0  0  0  0  0
    3.6923   -2.8516    3.4486 H   0  0  0  0  0  0  0  0  0  0  0  0
    4.6799   -1.1712    2.2145 H   0  0  0  0  0  0  0  0  0  0  0  0
    5.9328   -2.3667    2.2510 H   0  0  0  0  0  0  0  0  0  0  0  0
    4.0649   -0.1793    0.1720 H   0  0  0  0  0  0  0  0  0  0  0  0
    3.8793   -0.2780   -2.2996 H   0  0  0  0  0  0  0  0  0  0  0  0
    4.5665   -2.3307   -3.5167 H   0  0  0  0  0  0  0  0  0  0  0  0
    5.4738   -4.2715   -2.2754 H   0  0  0  0  0  0  0  0  0  0  0  0
    6.4268   -5.0593   -0.3251 H   0  0  0  0  0  0  0  0  0  0  0  0
    6.6904   -4.1045    1.0845 H   0  0  0  0  0  0  0  0  0  0  0  0
    4.2918   -5.7563    0.4340 H   0  0  0  0  0  0  0  0  0  0  0  0
    2.6719   -5.1146    1.9218 H   0  0  0  0  0  0  0  0  0  0  0  0
    0.6266   -6.0796    3.1787 H   0  0  0  0  0  0  0  0  0  0  0  0
    0.8565   -5.4707    1.6045 H   0  0  0  0  0  0  0  0  0  0  0  0
    1.4265   -7.5812    0.8461 H   0  0  0  0  0  0  0  0  0  0  0  0
    3.3735   -6.9988    1.5677 H   0  0  0  0  0  0  0  0  0  0  0  0
    3.9454   -6.7759    4.1987 H   0  0  0  0  0  0  0  0  0  0  0  0
    2.2489   -6.9320    4.3853 H   0  0  0  0  0  0  0  0  0  0  0  0
  1  2  2  0
  1 28  1  0
  1 29  1  0
  3  2  1  1
  2 30  1  0
  3 25  1  0
  3 26  1  0
  3  4  1  0
  4  5  1  0
  4 31  1  0
  4 32  1  0
  5  6  1  0
  5  7  1  0
  5 33  1  1
  6 34  1  0
  6 35  1  0
  6 36  1  0
  7 22  1  0
  7  8  1  6
  7 10  1  0
  8  9  1  0
  9 37  1  0
  9 38  1  0
  9 39  1  0
 10 11  2  0
 10 40  1  0
 11 12  1  0
 11 41  1  0
 12 22  1  0
 12 13  1  6
 12 23  1  0
 13 14  1  0
 13 42  1  0
 13 43  1  0
 14 15  1  0
 14 44  1  0
 14 45  1  0
 15 20  2  0
 15 16  1  0
 16 17  2  0
 16 46  1  0
 17 18  1  0
 17 47  1  0
 18 19  2  0
 18 48  1  0
 19 20  1  0
 19 49  1  0
 20 21  1  0
 21 22  1  0
 21 50  1  0
 21 51  1  0
 22 52  1  6
 23 27  1  0
 23 24  1  0
 23 53  1  1
 24 25  1  0
 24 54  1  0
 24 55  1  0
 25 26  1  0
 25 56  1  6
 26 27  1  0
 26 57  1  6
 27 58  1  0
 27 59  1  0
M  END
>  <i_m_ct_stereo_status>  (26) 
1

>  <s_m_source_file>  (26) 
/var/tmp/pbs.5076255.sched01/tmp25ygy55i/01wbi4d2b.sdf

>  <i_m_source_file_index>  (26) 
9

>  <i_lp_mmshare_version>  (26) 
48012

>  <i_f3d_flags>  (26) 
0

>  <s_epik_input>  (26) 
W0NIMl0xW0NAQEhdMltDSDJdW0NAQEhdM1tDQEhdMVtDQF0zKFtDSF09W0NIMl0pW0NIMl1bQ0BASF0oW0NIM10pW0NAXShPW0NIM10pKFtDSF09W0NIXTQpW0NAQEhdKFtDQEBdMjQ1KVtDSDJdYzZjKFtDSDJdW0NIMl01KVtjSF1bY0hdW2NIXVtjSF02

>  <s_epik_cmdline>  (26) 
J2VwaWtfcHl0aG9uJywgJy1waHQnLCAnMi4wJywgJy1waCcsICc3LjAnLCAnLXRuJywgJzgnLCAnLW1hJywgJzIwMCcsICctaW1hZScsICc8aW5maWxlLm1hZT4nLCAnLW9tYWUnLCAnPG91dGZpbGUubWFlPic=

>  <r_lp_tautomer_probability>  (26) 
1

>  <r_epik_Ionization_Penalty>  (26) 
1.8127e-11

>  <r_epik_Ionization_Penalty_Charging>  (26) 
0

>  <r_epik_Ionization_Penalty_Neutral>  (26) 
1.8127e-11

>  <r_epik_State_Penalty>  (26) 
-0

>  <r_epik_Charging_Adjusted_Penalty>  (26) 
0

>  <i_epik_Tot_Q>  (26) 
0

>  <i_epik_Tot_abs_Q>  (26) 
0

>  <s_lp_Force_Field>  (26) 
OPLS3e

>  <r_lp_Energy>  (26) 
258.826

>  <b_lp_Chiralities_Consistent>  (26) 
1

>  <s_lp_Variant>  (26) 
6:0-2

>  <s_i_glide_gridfile>  (26) 
pfpi4k_grid

>  <i_i_glide_lignum>  (26) 
9

>  <i_i_glide_rotatable_bonds>  (26) 
2

>  <r_i_docking_score>  (26) 
-2.63874

>  <r_i_glide_ligand_efficiency>  (26) 
-0.0977309

>  <r_i_glide_ligand_efficiency_sa>  (26) 
-0.293193

>  <r_i_glide_ligand_efficiency_ln>  (26) 
-0.614254

>  <r_i_glide_gscore>  (26) 
-2.63874

>  <r_i_glide_lipo>  (26) 
-0.682415

>  <r_i_glide_hbond>  (26) 
0

>  <r_i_glide_metal>  (26) 
-0

>  <r_i_glide_rewards>  (26) 
-0.95092

>  <r_i_glide_evdw>  (26) 
-22.9268

>  <r_i_glide_ecoul>  (26) 
-0.0441204

>  <r_i_glide_erotb>  (26) 
0.147558

>  <r_i_glide_esite>  (26) 
0

>  <r_i_glide_emodel>  (26) 
-26.6635

>  <r_i_glide_energy>  (26) 
-22.9709

>  <r_i_glide_einternal>  (26) 
0.0486586

>  <r_i_glide_intrahb_reward>  (26) 
-0

>  <i_i_glide_confnum>  (26) 
2

>  <i_i_glide_posenum>  (26) 
15

>  <r_i_glide_eff_state_penalty>  (26) 
0

>  <ligand_id>  (26) 
6

>  <original_smiles>  (26) 
C=CC12CC(C)C3(OC)C=CC4(CCc5ccccc5CC43)C3CC1C2C3

>  <smiles>  (26) 
[H]C([H])=C([H])C12C([H])([H])C([H])(C([H])([H])[H])C3(OC([H])([H])[H])C([H])=C([H])C4(C([H])([H])C([H])([H])c5c([H])c([H])c([H])c([H])c5C([H])([H])C34[H])C3([H])C([H])([H])C1([H])C2([H])C3([H])[H]

$$$$
6:1:2
     RDKit          3D

 59 64  0  0  1  0  0  0  0  0999 V2000
    8.7610   -5.4612    1.7800 C   0  0  0  0  0  0  0  0  0  0  0  0
    8.0244   -6.3817    2.4237 C   0  0  0  0  0  0  0  0  0  0  0  0
    6.6456   -6.1934    2.9373 C   0  0  1  0  0  0  0  0  0  0  0  0
    6.4801   -6.4601    4.4846 C   0  0  0  0  0  0  0  0  0  0  0  0
    6.1489   -7.9930    4.9146 C   0  0  1  0  0  0  0  0  0  0  0  0
    6.9196   -8.2830    6.2252 C   0  0  0  0  0  0  0  0  0  0  0  0
    4.6541   -8.7158    4.8947 C   0  0  2  0  0  0  0  0  0  0  0  0
    4.2820   -8.7100    6.2856 O   0  0  0  0  0  0  0  0  0  0  0  0
    4.1841   -9.9314    7.0166 C   0  0  0  0  0  0  0  0  0  0  0  0
    4.7953  -10.0978    4.2612 C   0  0  0  0  0  0  0  0  0  0  0  0
    4.1873  -10.2364    3.0675 C   0  0  0  0  0  0  0  0  0  0  0  0
    3.4487   -8.9948    2.5676 C   0  0  1  0  0  0  0  0  0  0  0  0
    2.1560   -9.4738    1.8110 C   0  0  0  0  0  0  0  0  0  0  0  0
    1.0023  -10.1681    2.5479 C   0  0  0  0  0  0  0  0  0  0  0  0
    0.1533   -9.1268    3.2256 C   0  0  0  0  0  0  0  0  0  0  0  0
   -1.1492   -8.8508    2.7594 C   0  0  0  0  0  0  0  0  0  0  0  0
   -1.9027   -7.8318    3.3595 C   0  0  0  0  0  0  0  0  0  0  0  0
   -1.3610   -7.0831    4.4221 C   0  0  0  0  0  0  0  0  0  0  0  0
   -0.0643   -7.3664    4.8891 C   0  0  0  0  0  0  0  0  0  0  0  0
    0.6955   -8.3890    4.2887 C   0  0  0  0  0  0  0  0  0  0  0  0
    2.0572   -8.7592    4.8478 C   0  0  0  0  0  0  0  0  0  0  0  0
    3.3180   -8.3029    4.0411 C   0  0  1  0  0  0  0  0  0  0  0  0
    4.2579   -8.2012    1.3678 C   0  0  1  0  0  0  0  0  0  0  0  0
    4.5263   -6.6699    0.8442 C   0  0  0  0  0  0  0  0  0  0  0  0
    5.4636   -5.8441    1.8154 C   0  0  2  0  0  0  0  0  0  0  0  0
    5.6442   -7.0055    2.5343 C   0  0  1  0  0  0  0  0  0  0  0  0
    5.7224   -8.2406    1.7452 C   0  0  0  0  0  0  0  0  0  0  0  0
    8.3980   -4.4615    1.5713 H   0  0  0  0  0  0  0  0  0  0  0  0
    9.7542   -5.7313    1.4500 H   0  0  0  0  0  0  0  0  0  0  0  0
    8.4642   -7.3552    2.5972 H   0  0  0  0  0  0  0  0  0  0  0  0
    7.4026   -6.1272    4.9585 H   0  0  0  0  0  0  0  0  0  0  0  0
    5.7105   -5.8007    4.8854 H   0  0  0  0  0  0  0  0  0  0  0  0
    6.7670   -8.5761    4.2341 H   0  0  0  0  0  0  0  0  0  0  0  0
    6.4738   -7.7724    7.0775 H   0  0  0  0  0  0  0  0  0  0  0  0
    7.9596   -7.9598    6.1533 H   0  0  0  0  0  0  0  0  0  0  0  0
    6.9497   -9.3521    6.4366 H   0  0  0  0  0  0  0  0  0  0  0  0
    3.9077   -9.6932    8.0417 H   0  0  0  0  0  0  0  0  0  0  0  0
    5.1264  -10.4733    7.0555 H   0  0  0  0  0  0  0  0  0  0  0  0
    3.4187  -10.6008    6.6284 H   0  0  0  0  0  0  0  0  0  0  0  0
    5.3702  -10.8846    4.7258 H   0  0  0  0  0  0  0  0  0  0  0  0
    4.2181  -11.1460    2.4865 H   0  0  0  0  0  0  0  0  0  0  0  0
    1.7167   -8.6553    1.2408 H   0  0  0  0  0  0  0  0  0  0  0  0
    2.5020  -10.1743    1.0469 H   0  0  0  0  0  0  0  0  0  0  0  0
    0.3701  -10.6794    1.8271 H   0  0  0  0  0  0  0  0  0  0  0  0
    1.3449  -10.9388    3.2341 H   0  0  0  0  0  0  0  0  0  0  0  0
   -1.5732   -9.4224    1.9446 H   0  0  0  0  0  0  0  0  0  0  0  0
   -2.9062   -7.6282    3.0189 H   0  0  0  0  0  0  0  0  0  0  0  0
   -1.9494   -6.3162    4.8986 H   0  0  0  0  0  0  0  0  0  0  0  0
    0.3297   -6.8132    5.7294 H   0  0  0  0  0  0  0  0  0  0  0  0
    2.0658   -8.3203    5.8422 H   0  0  0  0  0  0  0  0  0  0  0  0
    2.0719   -9.8338    5.0237 H   0  0  0  0  0  0  0  0  0  0  0  0
    3.1265   -7.2328    4.0107 H   0  0  0  0  0  0  0  0  0  0  0  0
    3.4911   -7.5393    1.7707 H   0  0  0  0  0  0  0  0  0  0  0  0
    5.0323   -6.7124   -0.1242 H   0  0  0  0  0  0  0  0  0  0  0  0
    3.6336   -6.0791    0.5935 H   0  0  0  0  0  0  0  0  0  0  0  0
    4.9169   -4.9803    2.1894 H   0  0  0  0  0  0  0  0  0  0  0  0
    4.8202   -6.8932    3.1786 H   0  0  0  0  0  0  0  0  0  0  0  0
    6.1251   -9.0782    2.2940 H   0  0  0  0  0  0  0  0  0  0  0  0
    6.4055   -8.1161    0.9016 H   0  0  0  0  0  0  0  0  0  0  0  0
  1  2  2  0
  1 28  1  0
  1 29  1  0
  3  2  1  6
  2 30  1  0
  3 25  1  0
  3 26  1  0
  3  4  1  0
  4  5  1  0
  4 31  1  0
  4 32  1  0
  5  6  1  0
  5  7  1  0
  5 33  1  6
  6 34  1  0
  6 35  1  0
  6 36  1  0
  7 22  1  0
  7  8  1  1
  7 10  1  0
  8  9  1  0
  9 37  1  0
  9 38  1  0
  9 39  1  0
 10 11  2  0
 10 40  1  0
 11 12  1  0
 11 41  1  0
 12 22  1  0
 12 13  1  6
 12 23  1  0
 13 14  1  0
 13 42  1  0
 13 43  1  0
 14 15  1  0
 14 44  1  0
 14 45  1  0
 15 20  2  0
 15 16  1  0
 16 17  2  0
 16 46  1  0
 17 18  1  0
 17 47  1  0
 18 19  2  0
 18 48  1  0
 19 20  1  0
 19 49  1  0
 20 21  1  0
 21 22  1  0
 21 50  1  0
 21 51  1  0
 22 52  1  6
 23 27  1  0
 23 24  1  0
 23 53  1  6
 24 25  1  0
 24 54  1  0
 24 55  1  0
 25 26  1  0
 25 56  1  1
 26 27  1  0
 26 57  1  1
 27 58  1  0
 27 59  1  0
M  END
>  <i_m_ct_stereo_status>  (27) 
1

>  <s_m_source_file>  (27) 
/var/tmp/pbs.5076255.sched01/tmp25ygy55i/01wbi4d2b.sdf

>  <i_m_source_file_index>  (27) 
9

>  <i_lp_mmshare_version>  (27) 
48012

>  <i_f3d_flags>  (27) 
0

>  <s_epik_input>  (27) 
W0NIMl0xW0NAQEhdMltDSDJdW0NAQEhdM1tDQEhdMVtDQF0zKFtDSF09W0NIMl0pW0NIMl1bQ0BASF0oW0NIM10pW0NAXShPW0NIM10pKFtDSF09W0NIXTQpW0NAQEhdKFtDQEBdMjQ1KVtDSDJdYzZjKFtDSDJdW0NIMl01KVtjSF1bY0hdW2NIXVtjSF02

>  <s_epik_cmdline>  (27) 
J2VwaWtfcHl0aG9uJywgJy1waHQnLCAnMi4wJywgJy1waCcsICc3LjAnLCAnLXRuJywgJzgnLCAnLW1hJywgJzIwMCcsICctaW1hZScsICc8aW5maWxlLm1hZT4nLCAnLW9tYWUnLCAnPG91dGZpbGUubWFlPic=

>  <r_lp_tautomer_probability>  (27) 
1

>  <r_epik_Ionization_Penalty>  (27) 
1.8127e-11

>  <r_epik_Ionization_Penalty_Charging>  (27) 
0

>  <r_epik_Ionization_Penalty_Neutral>  (27) 
1.8127e-11

>  <r_epik_State_Penalty>  (27) 
-0

>  <r_epik_Charging_Adjusted_Penalty>  (27) 
0

>  <i_epik_Tot_Q>  (27) 
0

>  <i_epik_Tot_abs_Q>  (27) 
0

>  <s_lp_Force_Field>  (27) 
OPLS3e

>  <r_lp_Energy>  (27) 
258.826

>  <b_lp_Chiralities_Consistent>  (27) 
1

>  <s_lp_Variant>  (27) 
6:0-2

>  <s_i_glide_gridfile>  (27) 
pfpi4k_grid

>  <i_i_glide_lignum>  (27) 
9

>  <i_i_glide_rotatable_bonds>  (27) 
2

>  <r_i_docking_score>  (27) 
-2.4568

>  <r_i_glide_ligand_efficiency>  (27) 
-0.0909925

>  <r_i_glide_ligand_efficiency_sa>  (27) 
-0.272978

>  <r_i_glide_ligand_efficiency_ln>  (27) 
-0.571902

>  <r_i_glide_gscore>  (27) 
-2.4568

>  <r_i_glide_lipo>  (27) 
-0.515025

>  <r_i_glide_hbond>  (27) 
0

>  <r_i_glide_metal>  (27) 
-0

>  <r_i_glide_rewards>  (27) 
-0.95092

>  <r_i_glide_evdw>  (27) 
-21.4338

>  <r_i_glide_ecoul>  (27) 
-0.444808

>  <r_i_glide_erotb>  (27) 
0.147558

>  <r_i_glide_esite>  (27) 
0

>  <r_i_glide_emodel>  (27) 
-25.2677

>  <r_i_glide_energy>  (27) 
-21.8786

>  <r_i_glide_einternal>  (27) 
0.103715

>  <r_i_glide_intrahb_reward>  (27) 
-0

>  <i_i_glide_confnum>  (27) 
1

>  <i_i_glide_posenum>  (27) 
4

>  <r_i_glide_eff_state_penalty>  (27) 
0

>  <ligand_id>  (27) 
6

>  <original_smiles>  (27) 
C=CC12CC(C)C3(OC)C=CC4(CCc5ccccc5CC43)C3CC1C2C3

>  <smiles>  (27) 
[H]C([H])=C([H])C12C([H])([H])C([H])(C([H])([H])[H])C3(OC([H])([H])[H])C([H])=C([H])C4(C([H])([H])C([H])([H])c5c([H])c([H])c([H])c([H])c5C([H])([H])C34[H])C3([H])C([H])([H])C1([H])C2([H])C3([H])[H]

$$$$
7:0:0
     RDKit          3D

 27 29  0  0  1  0  0  0  0  0999 V2000
    0.8827  -10.1578    5.4898 C   0  0  0  0  0  0  0  0  0  0  0  0
    1.5353  -11.4026    4.8862 C   0  0  0  0  0  0  0  0  0  0  0  0
    1.6119  -11.4326    3.3439 C   0  0  0  0  0  0  0  0  0  0  0  0
    2.1484  -10.2039    2.7748 N   0  0  0  0  0  0  0  0  0  0  0  0
    3.4421   -9.9753    2.4955 C   0  0  0  0  0  0  0  0  0  0  0  0
    3.7214   -8.7812    1.9756 N   0  0  0  0  0  0  0  0  0  0  0  0
    2.4697   -8.1762    1.9151 C   0  0  0  0  0  0  0  0  0  0  0  0
    2.0090   -6.8354    1.4538 C   0  0  0  0  0  0  0  0  0  0  0  0
    2.8424   -6.0843    0.8783 N   0  0  0  0  0  0  0  0  0  0  0  0
    0.6406   -6.4151    1.6856 N   0  0  0  0  0  0  0  0  0  0  0  0
   -0.1687   -7.2768    2.2558 C   0  0  0  0  0  0  0  0  0  0  0  0
   -1.4055   -7.0222    2.8465 N   0  0  0  0  0  0  0  0  0  0  0  0
   -1.6856   -8.0888    3.4839 C   0  0  0  0  0  0  0  0  0  0  0  0
   -0.7996   -9.0989    3.2701 N   0  0  0  0  0  0  0  0  0  0  0  0
    0.1768   -8.5937    2.4814 N   0  0  0  0  0  0  0  0  0  0  0  0
    1.5093   -9.0169    2.4069 C   0  0  0  0  0  0  0  0  0  0  0  0
    0.8716  -10.1302    6.5729 H   0  0  0  0  0  0  0  0  0  0  0  0
   -0.1707  -10.2086    5.2612 H   0  0  0  0  0  0  0  0  0  0  0  0
    1.3450   -9.2359    5.1200 H   0  0  0  0  0  0  0  0  0  0  0  0
    2.5325  -11.4911    5.3175 H   0  0  0  0  0  0  0  0  0  0  0  0
    0.9644  -12.2675    5.2315 H   0  0  0  0  0  0  0  0  0  0  0  0
    2.2680  -12.2569    3.0320 H   0  0  0  0  0  0  0  0  0  0  0  0
    0.6426  -11.6330    2.8919 H   0  0  0  0  0  0  0  0  0  0  0  0
    4.2336  -10.6926    2.6692 H   0  0  0  0  0  0  0  0  0  0  0  0
    2.4407   -5.2040    0.6122 H   0  0  0  0  0  0  0  0  0  0  0  0
   -2.5251   -8.2549    4.1739 H   0  0  0  0  0  0  0  0  0  0  0  0
   -0.7987  -10.0628    3.6350 H   0  0  0  0  0  0  0  0  0  0  0  0
  1  2  1  0
  1 17  1  0
  1 18  1  0
  1 19  1  0
  2  3  1  0
  2 20  1  0
  2 21  1  0
  3  4  1  0
  3 22  1  0
  3 23  1  0
  4 16  1  0
  4  5  1  0
  5  6  2  0
  5 24  1  0
  6  7  1  0
  7 16  2  0
  7  8  1  0
  8  9  2  3
  8 10  1  0
  9 25  1  0
 10 11  2  0
 11 15  1  0
 11 12  1  0
 12 13  2  0
 13 14  1  0
 13 26  1  0
 14 15  1  0
 14 27  1  0
 15 16  1  0
M  END
>  <i_m_ct_stereo_status>  (28) 
1

>  <s_m_source_file>  (28) 
/var/tmp/pbs.5076255.sched01/tmp25ygy55i/01wbi4d2b.sdf

>  <i_m_source_file_index>  (28) 
10

>  <i_lp_mmshare_version>  (28) 
48012

>  <i_f3d_flags>  (28) 
0

>  <s_epik_input>  (28) 
W0NIM11bQ0gyXVtDSDJdbihbY0hdbjEpYyhjMTIpbjNjKG5bY0hdbjMpW25IXWNcMj1OL1tIXQ==

>  <s_epik_cmdline>  (28) 
J2VwaWtfcHl0aG9uJywgJy1waHQnLCAnMi4wJywgJy1waCcsICc3LjAnLCAnLXRuJywgJzgnLCAnLW1hJywgJzIwMCcsICctaW1hZScsICc8aW5maWxlLm1hZT4nLCAnLW9tYWUnLCAnPG91dGZpbGUubWFlPic=

>  <r_epik_Ionization_Penalty>  (28) 
19.7623

>  <r_epik_Ionization_Penalty_Charging>  (28) 
19.7623

>  <r_epik_Ionization_Penalty_Neutral>  (28) 
1.90748e-08

>  <r_epik_State_Penalty>  (28) 
0.000248006

>  <r_epik_Charging_Adjusted_Penalty>  (28) 
19.7625

>  <i_epik_Tot_Q>  (28) 
0

>  <i_epik_Tot_abs_Q>  (28) 
0

>  <s_lp_Force_Field>  (28) 
OPLS3e

>  <r_lp_Energy>  (28) 
32.812

>  <b_lp_Chiralities_Consistent>  (28) 
1

>  <s_lp_Variant>  (28) 
7:0-1

>  <s_i_glide_gridfile>  (28) 
pfpi4k_grid

>  <i_i_glide_lignum>  (28) 
10

>  <i_i_glide_rotatable_bonds>  (28) 
2

>  <r_i_docking_score>  (28) 
-4.72879

>  <r_i_glide_ligand_efficiency>  (28) 
-0.295549

>  <r_i_glide_ligand_efficiency_sa>  (28) 
-0.744738

>  <r_i_glide_ligand_efficiency_ln>  (28) 
-1.25346

>  <r_i_glide_gscore>  (28) 
-4.72879

>  <r_i_glide_lipo>  (28) 
-0.162591

>  <r_i_glide_hbond>  (28) 
-0.322488

>  <r_i_glide_metal>  (28) 
-0

>  <r_i_glide_rewards>  (28) 
-2.04276

>  <r_i_glide_evdw>  (28) 
-22.5311

>  <r_i_glide_ecoul>  (28) 
-7.47811

>  <r_i_glide_erotb>  (28) 
0.355525

>  <r_i_glide_esite>  (28) 
-0.308199

>  <r_i_glide_emodel>  (28) 
-38.6733

>  <r_i_glide_energy>  (28) 
-30.0092

>  <r_i_glide_einternal>  (28) 
0.507103

>  <r_i_glide_intrahb_reward>  (28) 
-0

>  <i_i_glide_confnum>  (28) 
4

>  <i_i_glide_posenum>  (28) 
8

>  <r_i_glide_eff_state_penalty>  (28) 
0

>  <ligand_id>  (28) 
7

>  <original_smiles>  (28) 
CCCn1cnc2c(=N)[nH]c3ncnn3c21

>  <smiles>  (28) 
[H]N=c1nc2nc([H])n([H])n2c2c1nc([H])n2C([H])([H])C([H])([H])C([H])([H])[H]

$$$$
7:0:1
     RDKit          3D

 27 29  0  0  1  0  0  0  0  0999 V2000
    6.3940  -10.0093    0.9644 C   0  0  0  0  0  0  0  0  0  0  0  0
    4.9742   -9.4527    1.0623 C   0  0  0  0  0  0  0  0  0  0  0  0
    4.8507   -8.2496    2.0098 C   0  0  0  0  0  0  0  0  0  0  0  0
    3.5059   -7.7033    2.0266 N   0  0  0  0  0  0  0  0  0  0  0  0
    3.1616   -6.4188    1.7886 C   0  0  0  0  0  0  0  0  0  0  0  0
    1.8518   -6.1603    1.8173 N   0  0  0  0  0  0  0  0  0  0  0  0
    1.3065   -7.4050    2.1327 C   0  0  0  0  0  0  0  0  0  0  0  0
   -0.0873   -7.8627    2.3341 C   0  0  0  0  0  0  0  0  0  0  0  0
   -1.0122   -7.0449    2.1234 N   0  0  0  0  0  0  0  0  0  0  0  0
   -0.3404   -9.2115    2.8109 N   0  0  0  0  0  0  0  0  0  0  0  0
    0.6825   -9.9993    3.0079 C   0  0  0  0  0  0  0  0  0  0  0  0
    0.7239  -11.2203    3.6815 N   0  0  0  0  0  0  0  0  0  0  0  0
    1.9839  -11.4341    3.8826 C   0  0  0  0  0  0  0  0  0  0  0  0
    2.8159  -10.4704    3.3623 N   0  0  0  0  0  0  0  0  0  0  0  0
    1.9775   -9.6347    2.6756 N   0  0  0  0  0  0  0  0  0  0  0  0
    2.2919   -8.3305    2.3051 C   0  0  0  0  0  0  0  0  0  0  0  0
    6.4047  -10.8797    0.3084 H   0  0  0  0  0  0  0  0  0  0  0  0
    6.7543  -10.3319    1.9415 H   0  0  0  0  0  0  0  0  0  0  0  0
    7.0831   -9.2642    0.5672 H   0  0  0  0  0  0  0  0  0  0  0  0
    4.6085   -9.1673    0.0789 H   0  0  0  0  0  0  0  0  0  0  0  0
    4.3317  -10.2530    1.3823 H   0  0  0  0  0  0  0  0  0  0  0  0
    5.1413   -8.5072    3.0271 H   0  0  0  0  0  0  0  0  0  0  0  0
    5.5309   -7.4642    1.6768 H   0  0  0  0  0  0  0  0  0  0  0  0
    3.8939   -5.6443    1.5955 H   0  0  0  0  0  0  0  0  0  0  0  0
   -1.9108   -7.4742    2.2928 H   0  0  0  0  0  0  0  0  0  0  0  0
    2.4352  -12.2759    4.4127 H   0  0  0  0  0  0  0  0  0  0  0  0
    3.7509  -10.6328    3.0155 H   0  0  0  0  0  0  0  0  0  0  0  0
  1  2  1  0
  1 17  1  0
  1 18  1  0
  1 19  1  0
  2  3  1  0
  2 20  1  0
  2 21  1  0
  3  4  1  0
  3 22  1  0
  3 23  1  0
  4 16  1  0
  4  5  1  0
  5  6  2  0
  5 24  1  0
  6  7  1  0
  7 16  2  0
  7  8  1  0
  8  9  2  3
  8 10  1  0
  9 25  1  0
 10 11  2  0
 11 15  1  0
 11 12  1  0
 12 13  2  0
 13 14  1  0
 13 26  1  0
 14 15  1  0
 14 27  1  0
 15 16  1  0
M  END
>  <i_m_ct_stereo_status>  (29) 
1

>  <s_m_source_file>  (29) 
/var/tmp/pbs.5076255.sched01/tmp25ygy55i/01wbi4d2b.sdf

>  <i_m_source_file_index>  (29) 
10

>  <i_lp_mmshare_version>  (29) 
48012

>  <i_f3d_flags>  (29) 
0

>  <s_epik_input>  (29) 
W0NIM11bQ0gyXVtDSDJdbihbY0hdbjEpYyhjMTIpbjNjKG5bY0hdbjMpW25IXWNcMj1OL1tIXQ==

>  <s_epik_cmdline>  (29) 
J2VwaWtfcHl0aG9uJywgJy1waHQnLCAnMi4wJywgJy1waCcsICc3LjAnLCAnLXRuJywgJzgnLCAnLW1hJywgJzIwMCcsICctaW1hZScsICc8aW5maWxlLm1hZT4nLCAnLW9tYWUnLCAnPG91dGZpbGUubWFlPic=

>  <r_epik_Ionization_Penalty>  (29) 
19.7623

>  <r_epik_Ionization_Penalty_Charging>  (29) 
19.7623

>  <r_epik_Ionization_Penalty_Neutral>  (29) 
1.90748e-08

>  <r_epik_State_Penalty>  (29) 
0.000248006

>  <r_epik_Charging_Adjusted_Penalty>  (29) 
19.7625

>  <i_epik_Tot_Q>  (29) 
0

>  <i_epik_Tot_abs_Q>  (29) 
0

>  <s_lp_Force_Field>  (29) 
OPLS3e

>  <r_lp_Energy>  (29) 
32.812

>  <b_lp_Chiralities_Consistent>  (29) 
1

>  <s_lp_Variant>  (29) 
7:0-1

>  <s_i_glide_gridfile>  (29) 
pfpi4k_grid

>  <i_i_glide_lignum>  (29) 
10

>  <i_i_glide_rotatable_bonds>  (29) 
2

>  <r_i_docking_score>  (29) 
-3.70351

>  <r_i_glide_ligand_efficiency>  (29) 
-0.231469

>  <r_i_glide_ligand_efficiency_sa>  (29) 
-0.583266

>  <r_i_glide_ligand_efficiency_ln>  (29) 
-0.981688

>  <r_i_glide_gscore>  (29) 
-3.70351

>  <r_i_glide_lipo>  (29) 
-0.0129804

>  <r_i_glide_hbond>  (29) 
-0.16

>  <r_i_glide_metal>  (29) 
-0

>  <r_i_glide_rewards>  (29) 
-2.14518

>  <r_i_glide_evdw>  (29) 
-22.8874

>  <r_i_glide_ecoul>  (29) 
-3.83224

>  <r_i_glide_erotb>  (29) 
0.355525

>  <r_i_glide_esite>  (29) 
-0.0216593

>  <r_i_glide_emodel>  (29) 
-34.5912

>  <r_i_glide_energy>  (29) 
-26.7197

>  <r_i_glide_einternal>  (29) 
0.817901

>  <r_i_glide_intrahb_reward>  (29) 
-0

>  <i_i_glide_confnum>  (29) 
2

>  <i_i_glide_posenum>  (29) 
28

>  <r_i_glide_eff_state_penalty>  (29) 
0

>  <ligand_id>  (29) 
7

>  <original_smiles>  (29) 
CCCn1cnc2c(=N)[nH]c3ncnn3c21

>  <smiles>  (29) 
[H]N=c1nc2nc([H])n([H])n2c2c1nc([H])n2C([H])([H])C([H])([H])C([H])([H])[H]

$$$$
7:0:2
     RDKit          3D

 27 29  0  0  1  0  0  0  0  0999 V2000
    4.7965   -4.1993   -4.0273 C   0  0  0  0  0  0  0  0  0  0  0  0
    3.8182   -3.0283   -3.8654 C   0  0  0  0  0  0  0  0  0  0  0  0
    4.0335   -2.2409   -2.5582 C   0  0  0  0  0  0  0  0  0  0  0  0
    3.8110   -3.0721   -1.3852 N   0  0  0  0  0  0  0  0  0  0  0  0
    2.6064   -3.4228   -0.8814 C   0  0  0  0  0  0  0  0  0  0  0  0
    2.6361   -4.2599    0.1599 N   0  0  0  0  0  0  0  0  0  0  0  0
    4.0028   -4.4629    0.3463 C   0  0  0  0  0  0  0  0  0  0  0  0
    4.7677   -5.2839    1.3191 C   0  0  0  0  0  0  0  0  0  0  0  0
    4.1354   -6.0266    2.1278 N   0  0  0  0  0  0  0  0  0  0  0  0
    6.2168   -5.1697    1.3529 N   0  0  0  0  0  0  0  0  0  0  0  0
    6.8013   -4.3790    0.4888 C   0  0  0  0  0  0  0  0  0  0  0  0
    8.1247   -3.9230    0.4747 N   0  0  0  0  0  0  0  0  0  0  0  0
    8.1317   -2.9643   -0.3950 C   0  0  0  0  0  0  0  0  0  0  0  0
    6.9135   -2.7432   -1.0118 N   0  0  0  0  0  0  0  0  0  0  0  0
    6.1120   -3.7437   -0.5314 N   0  0  0  0  0  0  0  0  0  0  0  0
    4.7193   -3.7182   -0.5505 C   0  0  0  0  0  0  0  0  0  0  0  0
    4.6211   -4.7442   -4.9533 H   0  0  0  0  0  0  0  0  0  0  0  0
    4.7072   -4.9107   -3.2094 H   0  0  0  0  0  0  0  0  0  0  0  0
    5.8253   -3.8458   -4.0286 H   0  0  0  0  0  0  0  0  0  0  0  0
    3.9078   -2.3520   -4.7148 H   0  0  0  0  0  0  0  0  0  0  0  0
    2.7948   -3.4135   -3.8911 H   0  0  0  0  0  0  0  0  0  0  0  0
    5.0365   -1.8104   -2.5342 H   0  0  0  0  0  0  0  0  0  0  0  0
    3.3385   -1.4025   -2.5099 H   0  0  0  0  0  0  0  0  0  0  0  0
    1.6762   -3.0626   -1.3025 H   0  0  0  0  0  0  0  0  0  0  0  0
    4.7534   -6.5172    2.7573 H   0  0  0  0  0  0  0  0  0  0  0  0
    8.9788   -2.3250   -0.6666 H   0  0  0  0  0  0  0  0  0  0  0  0
    6.7629   -2.4193   -1.9539 H   0  0  0  0  0  0  0  0  0  0  0  0
  1  2  1  0
  1 17  1  0
  1 18  1  0
  1 19  1  0
  2  3  1  0
  2 20  1  0
  2 21  1  0
  3  4  1  0
  3 22  1  0
  3 23  1  0
  4 16  1  0
  4  5  1  0
  5  6  2  0
  5 24  1  0
  6  7  1  0
  7 16  2  0
  7  8  1  0
  8  9  2  3
  8 10  1  0
  9 25  1  0
 10 11  2  0
 11 15  1  0
 11 12  1  0
 12 13  2  0
 13 14  1  0
 13 26  1  0
 14 15  1  0
 14 27  1  0
 15 16  1  0
M  END
>  <i_m_ct_stereo_status>  (30) 
1

>  <s_m_source_file>  (30) 
/var/tmp/pbs.5076255.sched01/tmp25ygy55i/01wbi4d2b.sdf

>  <i_m_source_file_index>  (30) 
10

>  <i_lp_mmshare_version>  (30) 
48012

>  <i_f3d_flags>  (30) 
0

>  <s_epik_input>  (30) 
W0NIM11bQ0gyXVtDSDJdbihbY0hdbjEpYyhjMTIpbjNjKG5bY0hdbjMpW25IXWNcMj1OL1tIXQ==

>  <s_epik_cmdline>  (30) 
J2VwaWtfcHl0aG9uJywgJy1waHQnLCAnMi4wJywgJy1waCcsICc3LjAnLCAnLXRuJywgJzgnLCAnLW1hJywgJzIwMCcsICctaW1hZScsICc8aW5maWxlLm1hZT4nLCAnLW9tYWUnLCAnPG91dGZpbGUubWFlPic=

>  <r_epik_Ionization_Penalty>  (30) 
19.7623

>  <r_epik_Ionization_Penalty_Charging>  (30) 
19.7623

>  <r_epik_Ionization_Penalty_Neutral>  (30) 
1.90748e-08

>  <r_epik_State_Penalty>  (30) 
0.000248006

>  <r_epik_Charging_Adjusted_Penalty>  (30) 
19.7625

>  <i_epik_Tot_Q>  (30) 
0

>  <i_epik_Tot_abs_Q>  (30) 
0

>  <s_lp_Force_Field>  (30) 
OPLS3e

>  <r_lp_Energy>  (30) 
32.812

>  <b_lp_Chiralities_Consistent>  (30) 
1

>  <s_lp_Variant>  (30) 
7:0-1

>  <s_i_glide_gridfile>  (30) 
pfpi4k_grid

>  <i_i_glide_lignum>  (30) 
10

>  <i_i_glide_rotatable_bonds>  (30) 
2

>  <r_i_docking_score>  (30) 
-3.58265

>  <r_i_glide_ligand_efficiency>  (30) 
-0.223916

>  <r_i_glide_ligand_efficiency_sa>  (30) 
-0.564233

>  <r_i_glide_ligand_efficiency_ln>  (30) 
-0.949654

>  <r_i_glide_gscore>  (30) 
-3.58265

>  <r_i_glide_lipo>  (30) 
-0.21351

>  <r_i_glide_hbond>  (30) 
0

>  <r_i_glide_metal>  (30) 
-0

>  <r_i_glide_rewards>  (30) 
-2.35623

>  <r_i_glide_evdw>  (30) 
-24.5209

>  <r_i_glide_ecoul>  (30) 
-0.698041

>  <r_i_glide_erotb>  (30) 
0.355525

>  <r_i_glide_esite>  (30) 
-0.0376866

>  <r_i_glide_emodel>  (30) 
-33.2104

>  <r_i_glide_energy>  (30) 
-25.219

>  <r_i_glide_einternal>  (30) 
0.569016

>  <r_i_glide_intrahb_reward>  (30) 
-0

>  <i_i_glide_confnum>  (30) 
2

>  <i_i_glide_posenum>  (30) 
4

>  <r_i_glide_eff_state_penalty>  (30) 
0

>  <ligand_id>  (30) 
7

>  <original_smiles>  (30) 
CCCn1cnc2c(=N)[nH]c3ncnn3c21

>  <smiles>  (30) 
[H]N=c1nc2nc([H])n([H])n2c2c1nc([H])n2C([H])([H])C([H])([H])C([H])([H])[H]

$$$$
7:1:0
     RDKit          3D

 27 29  0  0  1  0  0  0  0  0999 V2000
    4.5319   -4.0567   -4.0956 C   0  0  0  0  0  0  0  0  0  0  0  0
    3.1258   -3.4541   -3.9122 C   0  0  0  0  0  0  0  0  0  0  0  0
    2.7742   -3.1184   -2.4466 C   0  0  0  0  0  0  0  0  0  0  0  0
    3.9082   -2.5558   -1.7302 N   0  0  0  0  0  0  0  0  0  0  0  0
    4.3002   -1.2719   -1.7695 C   0  0  0  0  0  0  0  0  0  0  0  0
    5.4453   -1.0089   -1.1344 N   0  0  0  0  0  0  0  0  0  0  0  0
    5.7992   -2.2425   -0.5943 C   0  0  0  0  0  0  0  0  0  0  0  0
    6.9585   -2.6925    0.2198 C   0  0  0  0  0  0  0  0  0  0  0  0
    7.8716   -1.8527    0.4565 N   0  0  0  0  0  0  0  0  0  0  0  0
    6.9890   -4.0483    0.7458 N   0  0  0  0  0  0  0  0  0  0  0  0
    5.9898   -4.8419    0.4479 C   0  0  0  0  0  0  0  0  0  0  0  0
    5.6557   -6.0837    0.9925 N   0  0  0  0  0  0  0  0  0  0  0  0
    4.4699   -6.3158    0.5351 C   0  0  0  0  0  0  0  0  0  0  0  0
    3.9702   -5.3524   -0.3035 N   0  0  0  0  0  0  0  0  0  0  0  0
    5.0047   -4.4832   -0.4657 N   0  0  0  0  0  0  0  0  0  0  0  0
    4.8607   -3.1755   -0.9119 C   0  0  0  0  0  0  0  0  0  0  0  0
    4.7442   -4.2881   -5.1317 H   0  0  0  0  0  0  0  0  0  0  0  0
    4.6310   -4.9814   -3.5298 H   0  0  0  0  0  0  0  0  0  0  0  0
    5.3183   -3.3780   -3.7656 H   0  0  0  0  0  0  0  0  0  0  0  0
    3.0545   -2.5455   -4.5103 H   0  0  0  0  0  0  0  0  0  0  0  0
    2.3716   -4.1333   -4.3131 H   0  0  0  0  0  0  0  0  0  0  0  0
    1.9554   -2.3990   -2.4111 H   0  0  0  0  0  0  0  0  0  0  0  0
    2.4156   -3.9974   -1.9178 H   0  0  0  0  0  0  0  0  0  0  0  0
    3.7563   -0.5054   -2.3098 H   0  0  0  0  0  0  0  0  0  0  0  0
    7.6213   -0.9505    0.0928 H   0  0  0  0  0  0  0  0  0  0  0  0
    3.8237   -7.1785    0.7587 H   0  0  0  0  0  0  0  0  0  0  0  0
    3.3439   -5.5343   -1.0906 H   0  0  0  0  0  0  0  0  0  0  0  0
  1  2  1  0
  1 17  1  0
  1 18  1  0
  1 19  1  0
  2  3  1  0
  2 20  1  0
  2 21  1  0
  3  4  1  0
  3 22  1  0
  3 23  1  0
  4 16  1  0
  4  5  1  0
  5  6  2  0
  5 24  1  0
  6  7  1  0
  7 16  2  0
  7  8  1  0
  8  9  2  3
  8 10  1  0
  9 25  1  0
 10 11  2  0
 11 15  1  0
 11 12  1  0
 12 13  2  0
 13 14  1  0
 13 26  1  0
 14 15  1  0
 14 27  1  0
 15 16  1  0
M  END
>  <i_m_ct_stereo_status>  (31) 
1

>  <s_m_source_file>  (31) 
/var/tmp/pbs.5076255.sched01/tmp25ygy55i/01wbi4d2b.sdf

>  <i_m_source_file_index>  (31) 
11

>  <i_lp_mmshare_version>  (31) 
48012

>  <i_f3d_flags>  (31) 
0

>  <s_epik_input>  (31) 
W0NIM11bQ0gyXVtDSDJdbihbY0hdbjEpYyhjMTIpbjNjKG5bY0hdbjMpW25IXWNcMj1OL1tIXQ==

>  <s_epik_cmdline>  (31) 
J2VwaWtfcHl0aG9uJywgJy1waHQnLCAnMi4wJywgJy1waCcsICc3LjAnLCAnLXRuJywgJzgnLCAnLW1hJywgJzIwMCcsICctaW1hZScsICc8aW5maWxlLm1hZT4nLCAnLW9tYWUnLCAnPG91dGZpbGUubWFlPic=

>  <r_epik_Ionization_Penalty>  (31) 
19.7623

>  <r_epik_Ionization_Penalty_Charging>  (31) 
19.7623

>  <r_epik_Ionization_Penalty_Neutral>  (31) 
1.90748e-08

>  <r_epik_State_Penalty>  (31) 
0.000248006

>  <r_epik_Charging_Adjusted_Penalty>  (31) 
19.7625

>  <i_epik_Tot_Q>  (31) 
0

>  <i_epik_Tot_abs_Q>  (31) 
0

>  <s_lp_Force_Field>  (31) 
OPLS3e

>  <r_lp_Energy>  (31) 
33.3775

>  <b_lp_Chiralities_Consistent>  (31) 
1

>  <s_lp_Variant>  (31) 
7:0-2

>  <s_i_glide_gridfile>  (31) 
pfpi4k_grid

>  <i_i_glide_lignum>  (31) 
11

>  <i_i_glide_rotatable_bonds>  (31) 
2

>  <r_i_docking_score>  (31) 
-4.79999

>  <r_i_glide_ligand_efficiency>  (31) 
-0.299999

>  <r_i_glide_ligand_efficiency_sa>  (31) 
-0.755951

>  <r_i_glide_ligand_efficiency_ln>  (31) 
-1.27233

>  <r_i_glide_gscore>  (31) 
-4.79999

>  <r_i_glide_lipo>  (31) 
-0.182783

>  <r_i_glide_hbond>  (31) 
-0.325715

>  <r_i_glide_metal>  (31) 
-0

>  <r_i_glide_rewards>  (31) 
-2.36434

>  <r_i_glide_evdw>  (31) 
-22.683

>  <r_i_glide_ecoul>  (31) 
-6.90839

>  <r_i_glide_erotb>  (31) 
0.355525

>  <r_i_glide_esite>  (31) 
-0.112266

>  <r_i_glide_emodel>  (31) 
-37.3245

>  <r_i_glide_energy>  (31) 
-29.5914

>  <r_i_glide_einternal>  (31) 
1.27144

>  <r_i_glide_intrahb_reward>  (31) 
-0

>  <i_i_glide_confnum>  (31) 
2

>  <i_i_glide_posenum>  (31) 
12

>  <r_i_glide_eff_state_penalty>  (31) 
0

>  <ligand_id>  (31) 
7

>  <original_smiles>  (31) 
CCCn1cnc2c(=N)[nH]c3ncnn3c21

>  <smiles>  (31) 
[H]N=c1nc2nc([H])n([H])n2c2c1nc([H])n2C([H])([H])C([H])([H])C([H])([H])[H]

$$$$
7:1:1
     RDKit          3D

 27 29  0  0  1  0  0  0  0  0999 V2000
    5.6378   -2.8432   -2.9401 C   0  0  0  0  0  0  0  0  0  0  0  0
    4.4426   -3.7973   -2.8420 C   0  0  0  0  0  0  0  0  0  0  0  0
    3.1929   -3.1511   -2.2097 C   0  0  0  0  0  0  0  0  0  0  0  0
    3.4716   -2.6139   -0.8892 N   0  0  0  0  0  0  0  0  0  0  0  0
    3.8270   -1.3401   -0.6141 C   0  0  0  0  0  0  0  0  0  0  0  0
    4.1347   -1.0908    0.6608 N   0  0  0  0  0  0  0  0  0  0  0  0
    3.9128   -2.3191    1.2751 C   0  0  0  0  0  0  0  0  0  0  0  0
    4.0320   -2.7874    2.6830 C   0  0  0  0  0  0  0  0  0  0  0  0
    4.4978   -1.9795    3.5349 N   0  0  0  0  0  0  0  0  0  0  0  0
    3.5768   -4.1255    3.0308 N   0  0  0  0  0  0  0  0  0  0  0  0
    3.1091   -4.8874    2.0825 C   0  0  0  0  0  0  0  0  0  0  0  0
    2.3812   -6.0766    2.1978 N   0  0  0  0  0  0  0  0  0  0  0  0
    1.9271   -6.2940    1.0096 C   0  0  0  0  0  0  0  0  0  0  0  0
    2.3079   -5.3615    0.0732 N   0  0  0  0  0  0  0  0  0  0  0  0
    3.1604   -4.5256    0.7474 N   0  0  0  0  0  0  0  0  0  0  0  0
    3.4789   -3.2300    0.3554 C   0  0  0  0  0  0  0  0  0  0  0  0
    6.4994   -3.3377   -3.3883 H   0  0  0  0  0  0  0  0  0  0  0  0
    5.9526   -2.4816   -1.9614 H   0  0  0  0  0  0  0  0  0  0  0  0
    5.3743   -1.9764   -3.5431 H   0  0  0  0  0  0  0  0  0  0  0  0
    4.1970   -4.1770   -3.8363 H   0  0  0  0  0  0  0  0  0  0  0  0
    4.7383   -4.6571   -2.2482 H   0  0  0  0  0  0  0  0  0  0  0  0
    2.8393   -2.3350   -2.8418 H   0  0  0  0  0  0  0  0  0  0  0  0
    2.3650   -3.8557   -2.1523 H   0  0  0  0  0  0  0  0  0  0  0  0
    3.8972   -0.5826   -1.3789 H   0  0  0  0  0  0  0  0  0  0  0  0
    4.7298   -1.1096    3.0750 H   0  0  0  0  0  0  0  0  0  0  0  0
    1.2817   -7.1157    0.6865 H   0  0  0  0  0  0  0  0  0  0  0  0
    2.4187   -5.5078   -0.9263 H   0  0  0  0  0  0  0  0  0  0  0  0
  1  2  1  0
  1 17  1  0
  1 18  1  0
  1 19  1  0
  2  3  1  0
  2 20  1  0
  2 21  1  0
  3  4  1  0
  3 22  1  0
  3 23  1  0
  4 16  1  0
  4  5  1  0
  5  6  2  0
  5 24  1  0
  6  7  1  0
  7 16  2  0
  7  8  1  0
  8  9  2  3
  8 10  1  0
  9 25  1  0
 10 11  2  0
 11 15  1  0
 11 12  1  0
 12 13  2  0
 13 14  1  0
 13 26  1  0
 14 15  1  0
 14 27  1  0
 15 16  1  0
M  END
>  <i_m_ct_stereo_status>  (32) 
1

>  <s_m_source_file>  (32) 
/var/tmp/pbs.5076255.sched01/tmp25ygy55i/01wbi4d2b.sdf

>  <i_m_source_file_index>  (32) 
11

>  <i_lp_mmshare_version>  (32) 
48012

>  <i_f3d_flags>  (32) 
0

>  <s_epik_input>  (32) 
W0NIM11bQ0gyXVtDSDJdbihbY0hdbjEpYyhjMTIpbjNjKG5bY0hdbjMpW25IXWNcMj1OL1tIXQ==

>  <s_epik_cmdline>  (32) 
J2VwaWtfcHl0aG9uJywgJy1waHQnLCAnMi4wJywgJy1waCcsICc3LjAnLCAnLXRuJywgJzgnLCAnLW1hJywgJzIwMCcsICctaW1hZScsICc8aW5maWxlLm1hZT4nLCAnLW9tYWUnLCAnPG91dGZpbGUubWFlPic=

>  <r_epik_Ionization_Penalty>  (32) 
19.7623

>  <r_epik_Ionization_Penalty_Charging>  (32) 
19.7623

>  <r_epik_Ionization_Penalty_Neutral>  (32) 
1.90748e-08

>  <r_epik_State_Penalty>  (32) 
0.000248006

>  <r_epik_Charging_Adjusted_Penalty>  (32) 
19.7625

>  <i_epik_Tot_Q>  (32) 
0

>  <i_epik_Tot_abs_Q>  (32) 
0

>  <s_lp_Force_Field>  (32) 
OPLS3e

>  <r_lp_Energy>  (32) 
33.3775

>  <b_lp_Chiralities_Consistent>  (32) 
1

>  <s_lp_Variant>  (32) 
7:0-2

>  <s_i_glide_gridfile>  (32) 
pfpi4k_grid

>  <i_i_glide_lignum>  (32) 
11

>  <i_i_glide_rotatable_bonds>  (32) 
2

>  <r_i_docking_score>  (32) 
-3.92866

>  <r_i_glide_ligand_efficiency>  (32) 
-0.245541

>  <r_i_glide_ligand_efficiency_sa>  (32) 
-0.618726

>  <r_i_glide_ligand_efficiency_ln>  (32) 
-1.04137

>  <r_i_glide_gscore>  (32) 
-3.92866

>  <r_i_glide_lipo>  (32) 
-0.116888

>  <r_i_glide_hbond>  (32) 
-0.32

>  <r_i_glide_metal>  (32) 
-0

>  <r_i_glide_rewards>  (32) 
-1.92819

>  <r_i_glide_evdw>  (32) 
-18.3562

>  <r_i_glide_ecoul>  (32) 
-5.04703

>  <r_i_glide_erotb>  (32) 
0.355525

>  <r_i_glide_esite>  (32) 
-0.244242

>  <r_i_glide_emodel>  (32) 
-30.1269

>  <r_i_glide_energy>  (32) 
-23.4032

>  <r_i_glide_einternal>  (32) 
0.359294

>  <r_i_glide_intrahb_reward>  (32) 
-0

>  <i_i_glide_confnum>  (32) 
4

>  <i_i_glide_posenum>  (32) 
17

>  <r_i_glide_eff_state_penalty>  (32) 
0

>  <ligand_id>  (32) 
7

>  <original_smiles>  (32) 
CCCn1cnc2c(=N)[nH]c3ncnn3c21

>  <smiles>  (32) 
[H]N=c1nc2nc([H])n([H])n2c2c1nc([H])n2C([H])([H])C([H])([H])C([H])([H])[H]

$$$$
7:1:2
     RDKit          3D

 27 29  0  0  1  0  0  0  0  0999 V2000
    4.8194   -3.6443   -3.8952 C   0  0  0  0  0  0  0  0  0  0  0  0
    4.9043   -3.1878   -2.4364 C   0  0  0  0  0  0  0  0  0  0  0  0
    3.5245   -2.8780   -1.8338 C   0  0  0  0  0  0  0  0  0  0  0  0
    3.6407   -2.4423   -0.4539 N   0  0  0  0  0  0  0  0  0  0  0  0
    3.9665   -1.1950   -0.0417 C   0  0  0  0  0  0  0  0  0  0  0  0
    4.0845   -1.0399    1.2795 N   0  0  0  0  0  0  0  0  0  0  0  0
    3.7754   -2.3068    1.7667 C   0  0  0  0  0  0  0  0  0  0  0  0
    3.6998   -2.8703    3.1443 C   0  0  0  0  0  0  0  0  0  0  0  0
    4.0527   -2.1325    4.1049 N   0  0  0  0  0  0  0  0  0  0  0  0
    3.1893   -4.2215    3.3299 N   0  0  0  0  0  0  0  0  0  0  0  0
    2.8515   -4.9097    2.2723 C   0  0  0  0  0  0  0  0  0  0  0  0
    2.1073   -6.0896    2.2069 N   0  0  0  0  0  0  0  0  0  0  0  0
    1.8188   -6.2296    0.9533 C   0  0  0  0  0  0  0  0  0  0  0  0
    2.3328   -5.2439    0.1363 N   0  0  0  0  0  0  0  0  0  0  0  0
    3.0857   -4.4602    0.9857 N   0  0  0  0  0  0  0  0  0  0  0  0
    3.4683   -3.1452    0.7337 C   0  0  0  0  0  0  0  0  0  0  0  0
    5.8152   -3.8480   -4.2865 H   0  0  0  0  0  0  0  0  0  0  0  0
    4.3733   -2.8705   -4.5190 H   0  0  0  0  0  0  0  0  0  0  0  0
    4.2256   -4.5531   -3.9961 H   0  0  0  0  0  0  0  0  0  0  0  0
    5.3969   -3.9621   -1.8476 H   0  0  0  0  0  0  0  0  0  0  0  0
    5.5403   -2.3028   -2.3751 H   0  0  0  0  0  0  0  0  0  0  0  0
    3.0348   -2.0826   -2.3963 H   0  0  0  0  0  0  0  0  0  0  0  0
    2.8717   -3.7468   -1.9043 H   0  0  0  0  0  0  0  0  0  0  0  0
    4.1346   -0.3797   -0.7301 H   0  0  0  0  0  0  0  0  0  0  0  0
    4.3536   -1.2361    3.7462 H   0  0  0  0  0  0  0  0  0  0  0  0
    1.2168   -7.0162    0.4994 H   0  0  0  0  0  0  0  0  0  0  0  0
    2.5584   -5.3208   -0.8545 H   0  0  0  0  0  0  0  0  0  0  0  0
  1  2  1  0
  1 17  1  0
  1 18  1  0
  1 19  1  0
  2  3  1  0
  2 20  1  0
  2 21  1  0
  3  4  1  0
  3 22  1  0
  3 23  1  0
  4 16  1  0
  4  5  1  0
  5  6  2  0
  5 24  1  0
  6  7  1  0
  7 16  2  0
  7  8  1  0
  8  9  2  3
  8 10  1  0
  9 25  1  0
 10 11  2  0
 11 15  1  0
 11 12  1  0
 12 13  2  0
 13 14  1  0
 13 26  1  0
 14 15  1  0
 14 27  1  0
 15 16  1  0
M  END
>  <i_m_ct_stereo_status>  (33) 
1

>  <s_m_source_file>  (33) 
/var/tmp/pbs.5076255.sched01/tmp25ygy55i/01wbi4d2b.sdf

>  <i_m_source_file_index>  (33) 
11

>  <i_lp_mmshare_version>  (33) 
48012

>  <i_f3d_flags>  (33) 
0

>  <s_epik_input>  (33) 
W0NIM11bQ0gyXVtDSDJdbihbY0hdbjEpYyhjMTIpbjNjKG5bY0hdbjMpW25IXWNcMj1OL1tIXQ==

>  <s_epik_cmdline>  (33) 
J2VwaWtfcHl0aG9uJywgJy1waHQnLCAnMi4wJywgJy1waCcsICc3LjAnLCAnLXRuJywgJzgnLCAnLW1hJywgJzIwMCcsICctaW1hZScsICc8aW5maWxlLm1hZT4nLCAnLW9tYWUnLCAnPG91dGZpbGUubWFlPic=

>  <r_epik_Ionization_Penalty>  (33) 
19.7623

>  <r_epik_Ionization_Penalty_Charging>  (33) 
19.7623

>  <r_epik_Ionization_Penalty_Neutral>  (33) 
1.90748e-08

>  <r_epik_State_Penalty>  (33) 
0.000248006

>  <r_epik_Charging_Adjusted_Penalty>  (33) 
19.7625

>  <i_epik_Tot_Q>  (33) 
0

>  <i_epik_Tot_abs_Q>  (33) 
0

>  <s_lp_Force_Field>  (33) 
OPLS3e

>  <r_lp_Energy>  (33) 
33.3775

>  <b_lp_Chiralities_Consistent>  (33) 
1

>  <s_lp_Variant>  (33) 
7:0-2

>  <s_i_glide_gridfile>  (33) 
pfpi4k_grid

>  <i_i_glide_lignum>  (33) 
11

>  <i_i_glide_rotatable_bonds>  (33) 
2

>  <r_i_docking_score>  (33) 
-3.89482

>  <r_i_glide_ligand_efficiency>  (33) 
-0.243426

>  <r_i_glide_ligand_efficiency_sa>  (33) 
-0.613396

>  <r_i_glide_ligand_efficiency_ln>  (33) 
-1.0324

>  <r_i_glide_gscore>  (33) 
-3.89482

>  <r_i_glide_lipo>  (33) 
-0.200491

>  <r_i_glide_hbond>  (33) 
-0.32

>  <r_i_glide_metal>  (33) 
-0

>  <r_i_glide_rewards>  (33) 
-1.92797

>  <r_i_glide_evdw>  (33) 
-18.8822

>  <r_i_glide_ecoul>  (33) 
-4.27871

>  <r_i_glide_erotb>  (33) 
0.355525

>  <r_i_glide_esite>  (33) 
-0.215968

>  <r_i_glide_emodel>  (33) 
-29.893

>  <r_i_glide_energy>  (33) 
-23.1609

>  <r_i_glide_einternal>  (33) 
0.279852

>  <r_i_glide_intrahb_reward>  (33) 
-0

>  <i_i_glide_confnum>  (33) 
4

>  <i_i_glide_posenum>  (33) 
5

>  <r_i_glide_eff_state_penalty>  (33) 
0

>  <ligand_id>  (33) 
7

>  <original_smiles>  (33) 
CCCn1cnc2c(=N)[nH]c3ncnn3c21

>  <smiles>  (33) 
[H]N=c1nc2nc([H])n([H])n2c2c1nc([H])n2C([H])([H])C([H])([H])C([H])([H])[H]

$$$$
9:0:0
     RDKit          3D

 87 92  0  0  1  0  0  0  0  0999 V2000
    2.4545  -10.3501   10.0455 C   0  0  0  0  0  0  0  0  0  0  0  0
    2.1298   -9.4801    8.8037 C   0  0  2  0  0  0  0  0  0  0  0  0
    3.2960   -9.6008    7.7966 C   0  0  0  0  0  0  0  0  0  0  0  0
    3.4439   -8.5000    6.7059 C   0  0  2  0  0  0  0  0  0  0  0  0
    3.1414   -7.0928    7.2346 C   0  0  1  0  0  0  0  0  0  0  0  0
    3.5325   -5.9542    6.2142 C   0  0  1  0  0  0  0  0  0  0  0  0
    4.9425   -5.8448    6.2640 O   0  0  0  0  0  0  0  0  0  0  0  0
    2.9870   -6.0963    4.7269 C   0  0  2  0  0  0  0  0  0  0  0  0
    1.6258   -5.8193    4.9201 O   0  0  0  0  0  0  0  0  0  0  0  0
    3.1793   -7.5939    4.3222 C   0  0  1  0  0  0  0  0  0  0  0  0
    4.6713   -7.8394    3.8832 C   0  0  0  0  0  0  0  0  0  0  0  0
    5.4330   -6.6388    3.2716 C   0  0  1  0  0  0  0  0  0  0  0  0
    6.4373   -7.2065    2.4533 O   0  0  0  0  0  0  0  0  0  0  0  0
    4.4507   -5.7075    2.5289 C   0  0  2  0  0  0  0  0  0  0  0  0
    4.9926   -4.8247    1.3191 C   0  0  2  0  0  0  0  0  0  0  0  0
    4.9623   -5.7330    0.0631 C   0  0  0  0  0  0  0  0  0  0  0  0
    6.4255   -4.3185    1.4664 C   0  0  0  0  0  0  0  0  0  0  0  0
    6.9259   -3.2899    0.7484 C   0  0  0  0  0  0  0  0  0  0  0  0
    6.0982   -2.5458   -0.2238 C   0  0  0  0  0  0  0  0  0  0  0  0
    6.6082   -1.8598   -1.1105 O   0  0  0  0  0  0  0  0  0  0  0  0
    4.5509   -2.5958   -0.0912 C   0  0  0  0  0  0  0  0  0  0  0  0
    4.1059   -1.1423    0.2282 C   0  0  0  0  0  0  0  0  0  0  0  0
    3.9039   -2.9772   -1.4514 C   0  0  0  0  0  0  0  0  0  0  0  0
    4.1353   -3.5396    1.0969 C   0  0  1  0  0  0  0  0  0  0  0  0
    2.6273   -3.8150    1.2831 C   0  0  0  0  0  0  0  0  0  0  0  0
    2.2281   -4.6033    2.5764 C   0  0  1  0  0  0  0  0  0  0  0  0
    1.4136   -5.6802    2.1124 O   0  0  0  0  0  0  0  0  0  0  0  0
    3.4179   -5.0571    3.5405 C   0  0  1  0  0  0  0  0  0  0  0  0
    3.9598   -3.7614    4.2268 C   0  0  0  0  0  0  0  0  0  0  0  0
    2.6698   -8.6849    5.3704 C   0  0  1  0  0  0  0  0  0  0  0  0
    2.9270  -10.0849    4.7407 C   0  0  0  0  0  0  0  0  0  0  0  0
    1.1381   -8.6168    5.6811 C   0  0  0  0  0  0  0  0  0  0  0  0
    0.6398   -7.7019    6.8421 C   0  0  0  0  0  0  0  0  0  0  0  0
    1.6970   -7.1189    7.8470 C   0  0  2  0  0  0  0  0  0  0  0  0
    1.2338   -5.6964    8.2479 C   0  0  0  0  0  0  0  0  0  0  0  0
    1.7967   -8.0071    9.1467 C   0  0  1  0  0  0  0  0  0  0  0  0
    0.6031   -7.8987   10.1280 C   0  0  0  0  0  0  0  0  0  0  0  0
    3.2840   -9.9281   10.6125 H   0  0  0  0  0  0  0  0  0  0  0  0
    2.7443  -11.3574    9.7406 H   0  0  0  0  0  0  0  0  0  0  0  0
    1.6052  -10.4665   10.7199 H   0  0  0  0  0  0  0  0  0  0  0  0
    1.2491   -9.9264    8.3443 H   0  0  0  0  0  0  0  0  0  0  0  0
    4.2237   -9.6186    8.3692 H   0  0  0  0  0  0  0  0  0  0  0  0
    3.2452  -10.5885    7.3442 H   0  0  0  0  0  0  0  0  0  0  0  0
    4.5046   -8.5508    6.4919 H   0  0  0  0  0  0  0  0  0  0  0  0
    3.8160   -6.9336    8.0777 H   0  0  0  0  0  0  0  0  0  0  0  0
    3.1972   -5.0221    6.6508 H   0  0  0  0  0  0  0  0  0  0  0  0
    5.3108   -6.6493    5.9345 H   0  0  0  0  0  0  0  0  0  0  0  0
    1.3070   -6.4446    5.5506 H   0  0  0  0  0  0  0  0  0  0  0  0
    2.5852   -7.7433    3.4204 H   0  0  0  0  0  0  0  0  0  0  0  0
    5.3027   -8.2040    4.6860 H   0  0  0  0  0  0  0  0  0  0  0  0
    4.6663   -8.6557    3.1571 H   0  0  0  0  0  0  0  0  0  0  0  0
    5.9555   -6.0504    4.0222 H   0  0  0  0  0  0  0  0  0  0  0  0
    7.0554   -7.6745    2.9943 H   0  0  0  0  0  0  0  0  0  0  0  0
    3.8385   -6.4367    2.0030 H   0  0  0  0  0  0  0  0  0  0  0  0
    3.9494   -5.9221   -0.2879 H   0  0  0  0  0  0  0  0  0  0  0  0
    5.4122   -6.7046    0.2491 H   0  0  0  0  0  0  0  0  0  0  0  0
    5.5251   -5.3097   -0.7631 H   0  0  0  0  0  0  0  0  0  0  0  0
    7.0734   -4.8164    2.1704 H   0  0  0  0  0  0  0  0  0  0  0  0
    7.9420   -2.9693    0.8747 H   0  0  0  0  0  0  0  0  0  0  0  0
    3.0245   -1.0473    0.3266 H   0  0  0  0  0  0  0  0  0  0  0  0
    4.4063   -0.4463   -0.5557 H   0  0  0  0  0  0  0  0  0  0  0  0
    4.5522   -0.7795    1.1562 H   0  0  0  0  0  0  0  0  0  0  0  0
    2.8197   -2.8413   -1.4361 H   0  0  0  0  0  0  0  0  0  0  0  0
    4.0959   -4.0077   -1.7445 H   0  0  0  0  0  0  0  0  0  0  0  0
    4.2812   -2.3506   -2.2609 H   0  0  0  0  0  0  0  0  0  0  0  0
    4.4081   -2.9055    1.9259 H   0  0  0  0  0  0  0  0  0  0  0  0
    2.0914   -2.8638    1.2964 H   0  0  0  0  0  0  0  0  0  0  0  0
    2.2542   -4.3321    0.3962 H   0  0  0  0  0  0  0  0  0  0  0  0
    1.5578   -3.9566    3.1512 H   0  0  0  0  0  0  0  0  0  0  0  0
    1.9787   -6.3713    1.7982 H   0  0  0  0  0  0  0  0  0  0  0  0
    3.6324   -2.8436    3.7506 H   0  0  0  0  0  0  0  0  0  0  0  0
    5.0472   -3.7501    4.2962 H   0  0  0  0  0  0  0  0  0  0  0  0
    3.5659   -3.5996    5.2223 H   0  0  0  0  0  0  0  0  0  0  0  0
    2.5456  -10.1292    3.7193 H   0  0  0  0  0  0  0  0  0  0  0  0
    2.4345  -10.8896    5.2869 H   0  0  0  0  0  0  0  0  0  0  0  0
    3.9862  -10.3328    4.7106 H   0  0  0  0  0  0  0  0  0  0  0  0
    0.5989   -8.3568    4.7663 H   0  0  0  0  0  0  0  0  0  0  0  0
    0.7693   -9.6191    5.9102 H   0  0  0  0  0  0  0  0  0  0  0  0
    0.0209   -6.9071    6.4312 H   0  0  0  0  0  0  0  0  0  0  0  0
   -0.0956   -8.2782    7.4014 H   0  0  0  0  0  0  0  0  0  0  0  0
    0.2202   -5.7046    8.6500 H   0  0  0  0  0  0  0  0  0  0  0  0
    1.1860   -5.0217    7.3959 H   0  0  0  0  0  0  0  0  0  0  0  0
    1.8971   -5.2528    8.9959 H   0  0  0  0  0  0  0  0  0  0  0  0
    2.6401   -7.6416    9.7293 H   0  0  0  0  0  0  0  0  0  0  0  0
   -0.3232   -8.2551    9.6821 H   0  0  0  0  0  0  0  0  0  0  0  0
    0.4585   -6.8784   10.4798 H   0  0  0  0  0  0  0  0  0  0  0  0
    0.7749   -8.4756   11.0364 H   0  0  0  0  0  0  0  0  0  0  0  0
  1  2  1  0
  1 38  1  0
  1 39  1  0
  1 40  1  0
  2 36  1  0
  2  3  1  0
  2 41  1  6
  3  4  1  0
  3 42  1  0
  3 43  1  0
  4 30  1  0
  4  5  1  0
  4 44  1  6
  5 34  1  0
  5  6  1  0
  5 45  1  1
  6  7  1  0
  6  8  1  0
  6 46  1  1
  7 47  1  0
  8 28  1  0
  8  9  1  1
  8 10  1  0
  9 48  1  0
 10 11  1  0
 10 30  1  0
 10 49  1  6
 11 12  1  0
 11 50  1  0
 11 51  1  0
 12 13  1  0
 12 14  1  0
 12 52  1  1
 13 53  1  0
 14 28  1  0
 14 15  1  0
 14 54  1  6
 15 24  1  0
 15 16  1  6
 15 17  1  0
 16 55  1  0
 16 56  1  0
 16 57  1  0
 17 18  2  0
 17 58  1  0
 18 19  1  0
 18 59  1  0
 19 20  2  0
 19 21  1  0
 21 22  1  0
 21 23  1  0
 21 24  1  0
 22 60  1  0
 22 61  1  0
 22 62  1  0
 23 63  1  0
 23 64  1  0
 23 65  1  0
 24 25  1  0
 24 66  1  1
 25 26  1  0
 25 67  1  0
 25 68  1  0
 26 27  1  0
 26 28  1  0
 26 69  1  1
 27 70  1  0
 28 29  1  1
 29 71  1  0
 29 72  1  0
 29 73  1  0
 30 31  1  6
 30 32  1  0
 31 74  1  0
 31 75  1  0
 31 76  1  0
 32 33  1  0
 32 77  1  0
 32 78  1  0
 33 34  1  0
 33 79  1  0
 33 80  1  0
 34 35  1  1
 34 36  1  0
 35 81  1  0
 35 82  1  0
 35 83  1  0
 36 37  1  0
 36 84  1  1
 37 85  1  0
 37 86  1  0
 37 87  1  0
M  END
>  <i_m_ct_stereo_status>  (34) 
1

>  <s_m_source_file>  (34) 
/var/tmp/pbs.5076255.sched01/tmp25ygy55i/01wbi4d2b.sdf

>  <i_m_source_file_index>  (34) 
13

>  <i_lp_mmshare_version>  (34) 
48012

>  <i_f3d_flags>  (34) 
0

>  <s_epik_input>  (34) 
W0NIM11bQ0BIXShbQ0gyXTEpW0NASF0oW0NIM10pW0NAXShbQ0gzXSkoW0NIMl1bQ0gyXTIpW0NASF0oW0NASF0zW09IXSlbQ0BASF0xW0NAXTIoW0NIM10pW0NAQEhdKFtDQEBdMzRbT0hdKVtDSDJdW0NAQEhdKFtPSF0pW0NAQEhdNVtDQEBdNihbQ0gzXSlbQ0BASF0oQyhbQ0gzXSkoW0NIM10pQyg9TylbQ0hdPVtDSF02KVtDSDJdW0NAQEhdKFtPSF0pW0NAQF00NVtDSDNd

>  <s_epik_cmdline>  (34) 
J2VwaWtfcHl0aG9uJywgJy1waHQnLCAnMi4wJywgJy1waCcsICc3LjAnLCAnLXRuJywgJzgnLCAnLW1hJywgJzIwMCcsICctaW1hZScsICc8aW5maWxlLm1hZT4nLCAnLW9tYWUnLCAnPG91dGZpbGUubWFlPic=

>  <r_lp_tautomer_probability>  (34) 
1

>  <r_epik_Ionization_Penalty>  (34) 
2.48804e-06

>  <r_epik_Ionization_Penalty_Charging>  (34) 
0

>  <r_epik_Ionization_Penalty_Neutral>  (34) 
2.48804e-06

>  <r_epik_State_Penalty>  (34) 
-0

>  <r_epik_Charging_Adjusted_Penalty>  (34) 
0

>  <i_epik_Tot_Q>  (34) 
0

>  <i_epik_Tot_abs_Q>  (34) 
0

>  <s_lp_Force_Field>  (34) 
OPLS3e

>  <r_lp_Energy>  (34) 
132.531

>  <b_lp_Chiralities_Consistent>  (34) 
1

>  <s_lp_Variant>  (34) 
9:0-1

>  <s_i_glide_gridfile>  (34) 
pfpi4k_grid

>  <i_i_glide_lignum>  (34) 
13

>  <i_i_glide_rotatable_bonds>  (34) 
4

>  <r_i_docking_score>  (34) 
-2.49283

>  <r_i_glide_ligand_efficiency>  (34) 
-0.0673738

>  <r_i_glide_ligand_efficiency_sa>  (34) 
-0.224505

>  <r_i_glide_ligand_efficiency_ln>  (34) 
-0.540637

>  <r_i_glide_gscore>  (34) 
-2.49283

>  <r_i_glide_lipo>  (34) 
-0.285259

>  <r_i_glide_hbond>  (34) 
-0.16

>  <r_i_glide_metal>  (34) 
-0

>  <r_i_glide_rewards>  (34) 
0

>  <r_i_glide_evdw>  (34) 
-27.5757

>  <r_i_glide_ecoul>  (34) 
-4.44812

>  <r_i_glide_erotb>  (34) 
0

>  <r_i_glide_esite>  (34) 
-0.0015686

>  <r_i_glide_emodel>  (34) 
-36.4941

>  <r_i_glide_energy>  (34) 
-32.0238

>  <r_i_glide_einternal>  (34) 
0.51198

>  <r_i_glide_intrahb_reward>  (34) 
-0

>  <i_i_glide_confnum>  (34) 
2

>  <i_i_glide_posenum>  (34) 
40

>  <r_i_glide_eff_state_penalty>  (34) 
0

>  <ligand_id>  (34) 
9

>  <original_smiles>  (34) 
CC1CC2C3C(O)C4(O)C(CC(O)C5C6(C)C=CC(=O)C(C)(C)C6CC(O)C54C)C2(C)CCC3(C)C1C

>  <smiles>  (34) 
[H]OC1([H])C([H])([H])C2([H])C(O[H])(C([H])(O[H])C3([H])C4([H])C([H])([H])C([H])(C([H])([H])[H])C([H])(C([H])([H])[H])C3(C([H])([H])[H])C([H])([H])C([H])([H])C42C([H])([H])[H])C2(C([H])([H])[H])C([H])(O[H])C([H])([H])C3([H])C(C([H])([H])[H])(C([H])([H])[H])C(=O)C([H])=C([H])C3(C([H])([H])[H])C12[H]

$$$$
9:0:1
     RDKit          3D

 87 92  0  0  1  0  0  0  0  0999 V2000
    2.4405  -10.3593   10.0292 C   0  0  0  0  0  0  0  0  0  0  0  0
    2.1124   -9.4554    8.8078 C   0  0  2  0  0  0  0  0  0  0  0  0
    3.2605   -9.6012    7.7793 C   0  0  0  0  0  0  0  0  0  0  0  0
    3.4080   -8.4945    6.6982 C   0  0  2  0  0  0  0  0  0  0  0  0
    3.1853   -7.0939    7.2594 C   0  0  1  0  0  0  0  0  0  0  0  0
    3.5832   -5.9511    6.2510 C   0  0  1  0  0  0  0  0  0  0  0  0
    4.9922   -5.9026    6.2476 O   0  0  0  0  0  0  0  0  0  0  0  0
    2.9947   -6.0433    4.7762 C   0  0  2  0  0  0  0  0  0  0  0  0
    1.6539   -5.7041    4.9944 O   0  0  0  0  0  0  0  0  0  0  0  0
    3.0992   -7.5369    4.3324 C   0  0  1  0  0  0  0  0  0  0  0  0
    4.5682   -7.8317    3.8509 C   0  0  0  0  0  0  0  0  0  0  0  0
    5.3664   -6.6507    3.2279 C   0  0  1  0  0  0  0  0  0  0  0  0
    6.3152   -7.2527    2.3750 O   0  0  0  0  0  0  0  0  0  0  0  0
    4.4057   -5.6691    2.5306 C   0  0  2  0  0  0  0  0  0  0  0  0
    4.9501   -4.7934    1.3236 C   0  0  2  0  0  0  0  0  0  0  0  0
    4.8388   -5.6771    0.0539 C   0  0  0  0  0  0  0  0  0  0  0  0
    6.4099   -4.3520    1.4369 C   0  0  0  0  0  0  0  0  0  0  0  0
    6.9300   -3.3396    0.7155 C   0  0  0  0  0  0  0  0  0  0  0  0
    6.1079   -2.5378   -0.2180 C   0  0  0  0  0  0  0  0  0  0  0  0
    6.5803   -1.8647   -1.1100 O   0  0  0  0  0  0  0  0  0  0  0  0
    4.5620   -2.5267   -0.0313 C   0  0  0  0  0  0  0  0  0  0  0  0
    4.1830   -1.0625    0.3220 C   0  0  0  0  0  0  0  0  0  0  0  0
    3.8496   -2.8480   -1.3754 C   0  0  0  0  0  0  0  0  0  0  0  0
    4.1539   -3.4673    1.1518 C   0  0  1  0  0  0  0  0  0  0  0  0
    2.6416   -3.6825    1.3847 C   0  0  0  0  0  0  0  0  0  0  0  0
    2.2435   -4.4769    2.6741 C   0  0  1  0  0  0  0  0  0  0  0  0
    1.3693   -5.4986    2.2152 O   0  0  0  0  0  0  0  0  0  0  0  0
    3.4393   -5.0021    3.5948 C   0  0  1  0  0  0  0  0  0  0  0  0
    4.0521   -3.7427    4.2842 C   0  0  0  0  0  0  0  0  0  0  0  0
    2.5873   -8.6213    5.3872 C   0  0  1  0  0  0  0  0  0  0  0  0
    2.7615  -10.0161    4.7262 C   0  0  0  0  0  0  0  0  0  0  0  0
    1.0759   -8.5169    5.7581 C   0  0  0  0  0  0  0  0  0  0  0  0
    0.6539   -7.5732    6.9310 C   0  0  0  0  0  0  0  0  0  0  0  0
    1.7667   -7.0682    7.9223 C   0  0  2  0  0  0  0  0  0  0  0  0
    1.3761   -5.6355    8.3584 C   0  0  0  0  0  0  0  0  0  0  0  0
    1.8628   -7.9798    9.2004 C   0  0  1  0  0  0  0  0  0  0  0  0
    0.7053   -7.8376   10.2151 C   0  0  0  0  0  0  0  0  0  0  0  0
    3.3091   -9.9842   10.5786 H   0  0  0  0  0  0  0  0  0  0  0  0
    2.6781  -11.3754    9.7008 H   0  0  0  0  0  0  0  0  0  0  0  0
    1.6117  -10.4551   10.7339 H   0  0  0  0  0  0  0  0  0  0  0  0
    1.2004   -9.8654    8.3727 H   0  0  0  0  0  0  0  0  0  0  0  0
    4.2016   -9.6822    8.3247 H   0  0  0  0  0  0  0  0  0  0  0  0
    3.1348  -10.5718    7.3081 H   0  0  0  0  0  0  0  0  0  0  0  0
    4.4482   -8.5939    6.4397 H   0  0  0  0  0  0  0  0  0  0  0  0
    3.8946   -6.9749    8.0796 H   0  0  0  0  0  0  0  0  0  0  0  0
    3.3072   -5.0110    6.7111 H   0  0  0  0  0  0  0  0  0  0  0  0
    5.3242   -6.7193    5.8915 H   0  0  0  0  0  0  0  0  0  0  0  0
    1.6350   -4.8238    5.3481 H   0  0  0  0  0  0  0  0  0  0  0  0
    2.4689   -7.6463    3.4468 H   0  0  0  0  0  0  0  0  0  0  0  0
    5.2128   -8.2524    4.6163 H   0  0  0  0  0  0  0  0  0  0  0  0
    4.5080   -8.6237    3.1023 H   0  0  0  0  0  0  0  0  0  0  0  0
    5.9319   -6.1053    3.9773 H   0  0  0  0  0  0  0  0  0  0  0  0
    6.9163   -6.5818    2.0700 H   0  0  0  0  0  0  0  0  0  0  0  0
    3.7483   -6.3626    2.0135 H   0  0  0  0  0  0  0  0  0  0  0  0
    3.8087   -5.8184   -0.2645 H   0  0  0  0  0  0  0  0  0  0  0  0
    5.2567   -6.6701    0.2027 H   0  0  0  0  0  0  0  0  0  0  0  0
    5.3862   -5.2686   -0.7904 H   0  0  0  0  0  0  0  0  0  0  0  0
    7.0517   -4.8576    2.1306 H   0  0  0  0  0  0  0  0  0  0  0  0
    7.9633   -3.0467    0.8126 H   0  0  0  0  0  0  0  0  0  0  0  0
    3.1083   -0.9216    0.4582 H   0  0  0  0  0  0  0  0  0  0  0  0
    4.4908   -0.3647   -0.4576 H   0  0  0  0  0  0  0  0  0  0  0  0
    4.6766   -0.7348    1.2402 H   0  0  0  0  0  0  0  0  0  0  0  0
    2.7702   -2.6654   -1.3220 H   0  0  0  0  0  0  0  0  0  0  0  0
    3.9864   -3.8803   -1.6956 H   0  0  0  0  0  0  0  0  0  0  0  0
    4.2300   -2.2254   -2.1864 H   0  0  0  0  0  0  0  0  0  0  0  0
    4.4761   -2.8584    1.9813 H   0  0  0  0  0  0  0  0  0  0  0  0
    2.1417   -2.7125    1.4201 H   0  0  0  0  0  0  0  0  0  0  0  0
    2.2303   -4.1753    0.5010 H   0  0  0  0  0  0  0  0  0  0  0  0
    1.6202   -3.8049    3.2724 H   0  0  0  0  0  0  0  0  0  0  0  0
    1.8972   -6.2184    1.8784 H   0  0  0  0  0  0  0  0  0  0  0  0
    3.7535   -2.7994    3.8300 H   0  0  0  0  0  0  0  0  0  0  0  0
    5.1425   -3.7779    4.3160 H   0  0  0  0  0  0  0  0  0  0  0  0
    3.7020   -3.5801    5.2926 H   0  0  0  0  0  0  0  0  0  0  0  0
    2.3440  -10.0293    3.7151 H   0  0  0  0  0  0  0  0  0  0  0  0
    2.2527  -10.8141    5.2700 H   0  0  0  0  0  0  0  0  0  0  0  0
    3.8059  -10.3132    4.6526 H   0  0  0  0  0  0  0  0  0  0  0  0
    0.5228   -8.1893    4.8716 H   0  0  0  0  0  0  0  0  0  0  0  0
    0.6583   -9.5034    5.9661 H   0  0  0  0  0  0  0  0  0  0  0  0
    0.0644   -6.7430    6.5494 H   0  0  0  0  0  0  0  0  0  0  0  0
   -0.0865   -8.1292    7.5042 H   0  0  0  0  0  0  0  0  0  0  0  0
    0.3756   -5.6040    8.7920 H   0  0  0  0  0  0  0  0  0  0  0  0
    1.3282   -4.9424    7.5199 H   0  0  0  0  0  0  0  0  0  0  0  0
    2.0815   -5.2292    9.0910 H   0  0  0  0  0  0  0  0  0  0  0  0
    2.7419   -7.6604    9.7602 H   0  0  0  0  0  0  0  0  0  0  0  0
   -0.2475   -8.1432    9.7932 H   0  0  0  0  0  0  0  0  0  0  0  0
    0.6169   -6.8210   10.5895 H   0  0  0  0  0  0  0  0  0  0  0  0
    0.8793   -8.4351   11.1071 H   0  0  0  0  0  0  0  0  0  0  0  0
  1  2  1  0
  1 38  1  0
  1 39  1  0
  1 40  1  0
  2 36  1  0
  2  3  1  0
  2 41  1  6
  3  4  1  0
  3 42  1  0
  3 43  1  0
  4 30  1  0
  4  5  1  0
  4 44  1  6
  5 34  1  0
  5  6  1  0
  5 45  1  1
  6  7  1  0
  6  8  1  0
  6 46  1  1
  7 47  1  0
  8 28  1  0
  8  9  1  1
  8 10  1  0
  9 48  1  0
 10 11  1  0
 10 30  1  0
 10 49  1  6
 11 12  1  0
 11 50  1  0
 11 51  1  0
 12 13  1  0
 12 14  1  0
 12 52  1  1
 13 53  1  0
 14 28  1  0
 14 15  1  0
 14 54  1  6
 15 24  1  0
 15 16  1  6
 15 17  1  0
 16 55  1  0
 16 56  1  0
 16 57  1  0
 17 18  2  0
 17 58  1  0
 18 19  1  0
 18 59  1  0
 19 20  2  0
 19 21  1  0
 21 22  1  0
 21 23  1  0
 21 24  1  0
 22 60  1  0
 22 61  1  0
 22 62  1  0
 23 63  1  0
 23 64  1  0
 23 65  1  0
 24 25  1  0
 24 66  1  1
 25 26  1  0
 25 67  1  0
 25 68  1  0
 26 27  1  0
 26 28  1  0
 26 69  1  1
 27 70  1  0
 28 29  1  1
 29 71  1  0
 29 72  1  0
 29 73  1  0
 30 31  1  6
 30 32  1  0
 31 74  1  0
 31 75  1  0
 31 76  1  0
 32 33  1  0
 32 77  1  0
 32 78  1  0
 33 34  1  0
 33 79  1  0
 33 80  1  0
 34 35  1  1
 34 36  1  0
 35 81  1  0
 35 82  1  0
 35 83  1  0
 36 37  1  0
 36 84  1  1
 37 85  1  0
 37 86  1  0
 37 87  1  0
M  END
>  <i_m_ct_stereo_status>  (35) 
1

>  <s_m_source_file>  (35) 
/var/tmp/pbs.5076255.sched01/tmp25ygy55i/01wbi4d2b.sdf

>  <i_m_source_file_index>  (35) 
13

>  <i_lp_mmshare_version>  (35) 
48012

>  <i_f3d_flags>  (35) 
0

>  <s_epik_input>  (35) 
W0NIM11bQ0BIXShbQ0gyXTEpW0NASF0oW0NIM10pW0NAXShbQ0gzXSkoW0NIMl1bQ0gyXTIpW0NASF0oW0NASF0zW09IXSlbQ0BASF0xW0NAXTIoW0NIM10pW0NAQEhdKFtDQEBdMzRbT0hdKVtDSDJdW0NAQEhdKFtPSF0pW0NAQEhdNVtDQEBdNihbQ0gzXSlbQ0BASF0oQyhbQ0gzXSkoW0NIM10pQyg9TylbQ0hdPVtDSF02KVtDSDJdW0NAQEhdKFtPSF0pW0NAQF00NVtDSDNd

>  <s_epik_cmdline>  (35) 
J2VwaWtfcHl0aG9uJywgJy1waHQnLCAnMi4wJywgJy1waCcsICc3LjAnLCAnLXRuJywgJzgnLCAnLW1hJywgJzIwMCcsICctaW1hZScsICc8aW5maWxlLm1hZT4nLCAnLW9tYWUnLCAnPG91dGZpbGUubWFlPic=

>  <r_lp_tautomer_probability>  (35) 
1

>  <r_epik_Ionization_Penalty>  (35) 
2.48804e-06

>  <r_epik_Ionization_Penalty_Charging>  (35) 
0

>  <r_epik_Ionization_Penalty_Neutral>  (35) 
2.48804e-06

>  <r_epik_State_Penalty>  (35) 
-0

>  <r_epik_Charging_Adjusted_Penalty>  (35) 
0

>  <i_epik_Tot_Q>  (35) 
0

>  <i_epik_Tot_abs_Q>  (35) 
0

>  <s_lp_Force_Field>  (35) 
OPLS3e

>  <r_lp_Energy>  (35) 
132.531

>  <b_lp_Chiralities_Consistent>  (35) 
1

>  <s_lp_Variant>  (35) 
9:0-1

>  <s_i_glide_gridfile>  (35) 
pfpi4k_grid

>  <i_i_glide_lignum>  (35) 
13

>  <i_i_glide_rotatable_bonds>  (35) 
4

>  <r_i_docking_score>  (35) 
-2.46868

>  <r_i_glide_ligand_efficiency>  (35) 
-0.0667211

>  <r_i_glide_ligand_efficiency_sa>  (35) 
-0.222329

>  <r_i_glide_ligand_efficiency_ln>  (35) 
-0.535399

>  <r_i_glide_gscore>  (35) 
-2.46868

>  <r_i_glide_lipo>  (35) 
-0.273825

>  <r_i_glide_hbond>  (35) 
-0.16

>  <r_i_glide_metal>  (35) 
-0

>  <r_i_glide_rewards>  (35) 
0

>  <r_i_glide_evdw>  (35) 
-27.5451

>  <r_i_glide_ecoul>  (35) 
-4.37306

>  <r_i_glide_erotb>  (35) 
0

>  <r_i_glide_esite>  (35) 
-0.00164178

>  <r_i_glide_emodel>  (35) 
-36.2046

>  <r_i_glide_energy>  (35) 
-31.9181

>  <r_i_glide_einternal>  (35) 
0.493846

>  <r_i_glide_intrahb_reward>  (35) 
-0

>  <i_i_glide_confnum>  (35) 
2

>  <i_i_glide_posenum>  (35) 
10

>  <r_i_glide_eff_state_penalty>  (35) 
0

>  <ligand_id>  (35) 
9

>  <original_smiles>  (35) 
CC1CC2C3C(O)C4(O)C(CC(O)C5C6(C)C=CC(=O)C(C)(C)C6CC(O)C54C)C2(C)CCC3(C)C1C

>  <smiles>  (35) 
[H]OC1([H])C([H])([H])C2([H])C(O[H])(C([H])(O[H])C3([H])C4([H])C([H])([H])C([H])(C([H])([H])[H])C([H])(C([H])([H])[H])C3(C([H])([H])[H])C([H])([H])C([H])([H])C42C([H])([H])[H])C2(C([H])([H])[H])C([H])(O[H])C([H])([H])C3([H])C(C([H])([H])[H])(C([H])([H])[H])C(=O)C([H])=C([H])C3(C([H])([H])[H])C12[H]

$$$$
9:0:2
     RDKit          3D

 87 92  0  0  1  0  0  0  0  0999 V2000
    0.6691   -8.6053   10.2136 C   0  0  0  0  0  0  0  0  0  0  0  0
    0.7189   -7.4994    9.1278 C   0  0  2  0  0  0  0  0  0  0  0  0
    1.3703   -8.0961    7.8595 C   0  0  0  0  0  0  0  0  0  0  0  0
    1.9418   -7.1040    6.8060 C   0  0  2  0  0  0  0  0  0  0  0  0
    2.6810   -5.9310    7.4473 C   0  0  1  0  0  0  0  0  0  0  0  0
    3.4896   -5.0650    6.4055 C   0  0  1  0  0  0  0  0  0  0  0  0
    4.6331   -5.8100    6.0764 O   0  0  0  0  0  0  0  0  0  0  0  0
    2.7117   -4.5692    5.1100 C   0  0  2  0  0  0  0  0  0  0  0  0
    1.8843   -3.5810    5.6555 O   0  0  0  0  0  0  0  0  0  0  0  0
    1.8463   -5.7667    4.6101 C   0  0  1  0  0  0  0  0  0  0  0  0
    2.7524   -6.7573    3.7893 C   0  0  0  0  0  0  0  0  0  0  0  0
    3.9563   -6.1501    3.0215 C   0  0  1  0  0  0  0  0  0  0  0  0
    4.2509   -7.0445    1.9697 O   0  0  0  0  0  0  0  0  0  0  0  0
    3.6480   -4.6962    2.6046 C   0  0  2  0  0  0  0  0  0  0  0  0
    4.3804   -4.0989    1.3287 C   0  0  2  0  0  0  0  0  0  0  0  0
    3.5616   -4.5552    0.0904 C   0  0  0  0  0  0  0  0  0  0  0  0
    5.8137   -4.5844    1.1180 C   0  0  0  0  0  0  0  0  0  0  0  0
    6.7024   -3.9390    0.3328 C   0  0  0  0  0  0  0  0  0  0  0  0
    6.3472   -2.6837   -0.3599 C   0  0  0  0  0  0  0  0  0  0  0  0
    6.9580   -2.2648   -1.3288 O   0  0  0  0  0  0  0  0  0  0  0  0
    5.1551   -1.8401    0.1741 C   0  0  0  0  0  0  0  0  0  0  0  0
    5.7671   -0.5068    0.6622 C   0  0  0  0  0  0  0  0  0  0  0  0
    4.1752   -1.4737   -0.9757 C   0  0  0  0  0  0  0  0  0  0  0  0
    4.4793   -2.5501    1.3897 C   0  0  1  0  0  0  0  0  0  0  0  0
    3.1987   -1.9005    1.9717 C   0  0  0  0  0  0  0  0  0  0  0  0
    2.6747   -2.5260    3.3053 C   0  0  1  0  0  0  0  0  0  0  0  0
    1.3231   -2.8270    3.0372 O   0  0  0  0  0  0  0  0  0  0  0  0
    3.4669   -3.7836    3.8885 C   0  0  1  0  0  0  0  0  0  0  0  0
    4.8069   -3.2174    4.4486 C   0  0  0  0  0  0  0  0  0  0  0  0
    0.9905   -6.5314    5.7220 C   0  0  1  0  0  0  0  0  0  0  0  0
    0.2054   -7.6579    4.9995 C   0  0  0  0  0  0  0  0  0  0  0  0
   -0.0773   -5.6557    6.4387 C   0  0  0  0  0  0  0  0  0  0  0  0
    0.3375   -4.8426    7.7096 C   0  0  0  0  0  0  0  0  0  0  0  0
    1.6894   -5.2221    8.4231 C   0  0  2  0  0  0  0  0  0  0  0  0
    2.2923   -3.9089    8.9843 C   0  0  0  0  0  0  0  0  0  0  0  0
    1.4508   -6.2237    9.6137 C   0  0  1  0  0  0  0  0  0  0  0  0
    0.7975   -5.6162   10.8785 C   0  0  0  0  0  0  0  0  0  0  0  0
    1.6736   -8.8708   10.5578 H   0  0  0  0  0  0  0  0  0  0  0  0
    0.2228   -9.5162    9.8142 H   0  0  0  0  0  0  0  0  0  0  0  0
    0.0807   -8.3313   11.0919 H   0  0  0  0  0  0  0  0  0  0  0  0
   -0.3139   -7.2440    8.8994 H   0  0  0  0  0  0  0  0  0  0  0  0
    2.1657   -8.7718    8.1668 H   0  0  0  0  0  0  0  0  0  0  0  0
    0.6321   -8.7468    7.3982 H   0  0  0  0  0  0  0  0  0  0  0  0
    2.6655   -7.7255    6.3124 H   0  0  0  0  0  0  0  0  0  0  0  0
    3.4593   -6.3628    8.0814 H   0  0  0  0  0  0  0  0  0  0  0  0
    3.8986   -4.2187    6.9470 H   0  0  0  0  0  0  0  0  0  0  0  0
    4.3642   -6.6176    5.6411 H   0  0  0  0  0  0  0  0  0  0  0  0
    2.4439   -2.8969    6.0094 H   0  0  0  0  0  0  0  0  0  0  0  0
    1.1275   -5.3569    3.8965 H   0  0  0  0  0  0  0  0  0  0  0  0
    3.1581   -7.5790    4.3738 H   0  0  0  0  0  0  0  0  0  0  0  0
    2.1081   -7.2561    3.0604 H   0  0  0  0  0  0  0  0  0  0  0  0
    4.8559   -6.1342    3.6374 H   0  0  0  0  0  0  0  0  0  0  0  0
    3.5023   -7.1126    1.3838 H   0  0  0  0  0  0  0  0  0  0  0  0
    2.6284   -4.7972    2.2385 H   0  0  0  0  0  0  0  0  0  0  0  0
    2.6046   -4.0377    0.0213 H   0  0  0  0  0  0  0  0  0  0  0  0
    3.3398   -5.6211    0.1058 H   0  0  0  0  0  0  0  0  0  0  0  0
    4.0904   -4.3978   -0.8468 H   0  0  0  0  0  0  0  0  0  0  0  0
    6.1297   -5.4816    1.6113 H   0  0  0  0  0  0  0  0  0  0  0  0
    7.7032   -4.2964    0.1795 H   0  0  0  0  0  0  0  0  0  0  0  0
    5.0192    0.1888    1.0528 H   0  0  0  0  0  0  0  0  0  0  0  0
    6.2765    0.0210   -0.1400 H   0  0  0  0  0  0  0  0  0  0  0  0
    6.5146   -0.6636    1.4456 H   0  0  0  0  0  0  0  0  0  0  0  0
    3.4324   -0.7334   -0.6595 H   0  0  0  0  0  0  0  0  0  0  0  0
    3.6208   -2.3339   -1.3479 H   0  0  0  0  0  0  0  0  0  0  0  0
    4.6953   -1.0462   -1.8336 H   0  0  0  0  0  0  0  0  0  0  0  0
    5.2368   -2.3709    2.1367 H   0  0  0  0  0  0  0  0  0  0  0  0
    3.3756   -0.8385    2.1483 H   0  0  0  0  0  0  0  0  0  0  0  0
    2.4204   -1.9194    1.2030 H   0  0  0  0  0  0  0  0  0  0  0  0
    2.6660   -1.7294    4.0540 H   0  0  0  0  0  0  0  0  0  0  0  0
    0.9021   -2.0333    2.7288 H   0  0  0  0  0  0  0  0  0  0  0  0
    5.0415   -2.2106    4.1087 H   0  0  0  0  0  0  0  0  0  0  0  0
    5.6535   -3.8645    4.2225 H   0  0  0  0  0  0  0  0  0  0  0  0
    4.8009   -3.0511    5.5207 H   0  0  0  0  0  0  0  0  0  0  0  0
   -0.3125   -7.2754    4.1140 H   0  0  0  0  0  0  0  0  0  0  0  0
   -0.5683   -8.1124    5.6251 H   0  0  0  0  0  0  0  0  0  0  0  0
    0.8488   -8.4724    4.6753 H   0  0  0  0  0  0  0  0  0  0  0  0
   -0.4789   -4.9335    5.7182 H   0  0  0  0  0  0  0  0  0  0  0  0
   -0.9459   -6.2498    6.7088 H   0  0  0  0  0  0  0  0  0  0  0  0
    0.2909   -3.7772    7.5067 H   0  0  0  0  0  0  0  0  0  0  0  0
   -0.4748   -4.9708    8.4254 H   0  0  0  0  0  0  0  0  0  0  0  0
    1.5915   -3.3891    9.6425 H   0  0  0  0  0  0  0  0  0  0  0  0
    2.5100   -3.1822    8.2002 H   0  0  0  0  0  0  0  0  0  0  0  0
    3.2143   -4.0917    9.5423 H   0  0  0  0  0  0  0  0  0  0  0  0
    2.4329   -6.5464    9.9630 H   0  0  0  0  0  0  0  0  0  0  0  0
   -0.2105   -5.2470   10.6916 H   0  0  0  0  0  0  0  0  0  0  0  0
    1.3907   -4.8031   11.2929 H   0  0  0  0  0  0  0  0  0  0  0  0
    0.7410   -6.3418   11.6907 H   0  0  0  0  0  0  0  0  0  0  0  0
  1  2  1  0
  1 38  1  0
  1 39  1  0
  1 40  1  0
  2 36  1  0
  2  3  1  0
  2 41  1  6
  3  4  1  0
  3 42  1  0
  3 43  1  0
  4 30  1  0
  4  5  1  0
  4 44  1  6
  5 34  1  0
  5  6  1  0
  5 45  1  1
  6  7  1  0
  6  8  1  0
  6 46  1  1
  7 47  1  0
  8 28  1  0
  8  9  1  1
  8 10  1  0
  9 48  1  0
 10 11  1  0
 10 30  1  0
 10 49  1  6
 11 12  1  0
 11 50  1  0
 11 51  1  0
 12 13  1  0
 12 14  1  0
 12 52  1  1
 13 53  1  0
 14 28  1  0
 14 15  1  0
 14 54  1  6
 15 24  1  0
 15 16  1  6
 15 17  1  0
 16 55  1  0
 16 56  1  0
 16 57  1  0
 17 18  2  0
 17 58  1  0
 18 19  1  0
 18 59  1  0
 19 20  2  0
 19 21  1  0
 21 22  1  0
 21 23  1  0
 21 24  1  0
 22 60  1  0
 22 61  1  0
 22 62  1  0
 23 63  1  0
 23 64  1  0
 23 65  1  0
 24 25  1  0
 24 66  1  1
 25 26  1  0
 25 67  1  0
 25 68  1  0
 26 27  1  0
 26 28  1  0
 26 69  1  1
 27 70  1  0
 28 29  1  1
 29 71  1  0
 29 72  1  0
 29 73  1  0
 30 31  1  6
 30 32  1  0
 31 74  1  0
 31 75  1  0
 31 76  1  0
 32 33  1  0
 32 77  1  0
 32 78  1  0
 33 34  1  0
 33 79  1  0
 33 80  1  0
 34 35  1  1
 34 36  1  0
 35 81  1  0
 35 82  1  0
 35 83  1  0
 36 37  1  0
 36 84  1  1
 37 85  1  0
 37 86  1  0
 37 87  1  0
M  END
>  <i_m_ct_stereo_status>  (36) 
1

>  <s_m_source_file>  (36) 
/var/tmp/pbs.5076255.sched01/tmp25ygy55i/01wbi4d2b.sdf

>  <i_m_source_file_index>  (36) 
13

>  <i_lp_mmshare_version>  (36) 
48012

>  <i_f3d_flags>  (36) 
0

>  <s_epik_input>  (36) 
W0NIM11bQ0BIXShbQ0gyXTEpW0NASF0oW0NIM10pW0NAXShbQ0gzXSkoW0NIMl1bQ0gyXTIpW0NASF0oW0NASF0zW09IXSlbQ0BASF0xW0NAXTIoW0NIM10pW0NAQEhdKFtDQEBdMzRbT0hdKVtDSDJdW0NAQEhdKFtPSF0pW0NAQEhdNVtDQEBdNihbQ0gzXSlbQ0BASF0oQyhbQ0gzXSkoW0NIM10pQyg9TylbQ0hdPVtDSF02KVtDSDJdW0NAQEhdKFtPSF0pW0NAQF00NVtDSDNd

>  <s_epik_cmdline>  (36) 
J2VwaWtfcHl0aG9uJywgJy1waHQnLCAnMi4wJywgJy1waCcsICc3LjAnLCAnLXRuJywgJzgnLCAnLW1hJywgJzIwMCcsICctaW1hZScsICc8aW5maWxlLm1hZT4nLCAnLW9tYWUnLCAnPG91dGZpbGUubWFlPic=

>  <r_lp_tautomer_probability>  (36) 
1

>  <r_epik_Ionization_Penalty>  (36) 
2.48804e-06

>  <r_epik_Ionization_Penalty_Charging>  (36) 
0

>  <r_epik_Ionization_Penalty_Neutral>  (36) 
2.48804e-06

>  <r_epik_State_Penalty>  (36) 
-0

>  <r_epik_Charging_Adjusted_Penalty>  (36) 
0

>  <i_epik_Tot_Q>  (36) 
0

>  <i_epik_Tot_abs_Q>  (36) 
0

>  <s_lp_Force_Field>  (36) 
OPLS3e

>  <r_lp_Energy>  (36) 
132.531

>  <b_lp_Chiralities_Consistent>  (36) 
1

>  <s_lp_Variant>  (36) 
9:0-1

>  <s_i_glide_gridfile>  (36) 
pfpi4k_grid

>  <i_i_glide_lignum>  (36) 
13

>  <i_i_glide_rotatable_bonds>  (36) 
4

>  <r_i_docking_score>  (36) 
-2.21488

>  <r_i_glide_ligand_efficiency>  (36) 
-0.0598616

>  <r_i_glide_ligand_efficiency_sa>  (36) 
-0.199472

>  <r_i_glide_ligand_efficiency_ln>  (36) 
-0.480355

>  <r_i_glide_gscore>  (36) 
-2.21488

>  <r_i_glide_lipo>  (36) 
-0.404126

>  <r_i_glide_hbond>  (36) 
-0.16

>  <r_i_glide_metal>  (36) 
-0

>  <r_i_glide_rewards>  (36) 
0

>  <r_i_glide_evdw>  (36) 
-28.3139

>  <r_i_glide_ecoul>  (36) 
-1.56111

>  <r_i_glide_erotb>  (36) 
0

>  <r_i_glide_esite>  (36) 
-0.000891881

>  <r_i_glide_emodel>  (36) 
-33.6393

>  <r_i_glide_energy>  (36) 
-29.875

>  <r_i_glide_einternal>  (36) 
0.395157

>  <r_i_glide_intrahb_reward>  (36) 
-0

>  <i_i_glide_confnum>  (36) 
1

>  <i_i_glide_posenum>  (36) 
1

>  <r_i_glide_eff_state_penalty>  (36) 
0

>  <ligand_id>  (36) 
9

>  <original_smiles>  (36) 
CC1CC2C3C(O)C4(O)C(CC(O)C5C6(C)C=CC(=O)C(C)(C)C6CC(O)C54C)C2(C)CCC3(C)C1C

>  <smiles>  (36) 
[H]OC1([H])C([H])([H])C2([H])C(O[H])(C([H])(O[H])C3([H])C4([H])C([H])([H])C([H])(C([H])([H])[H])C([H])(C([H])([H])[H])C3(C([H])([H])[H])C([H])([H])C([H])([H])C42C([H])([H])[H])C2(C([H])([H])[H])C([H])(O[H])C([H])([H])C3([H])C(C([H])([H])[H])(C([H])([H])[H])C(=O)C([H])=C([H])C3(C([H])([H])[H])C12[H]

$$$$
12:0:0
     RDKit          3D

 35 40  0  0  1  0  0  0  0  0999 V2000
    2.8471   -1.9957   -3.6811 C   0  0  0  0  0  0  0  0  0  0  0  0
    3.8274   -3.1258   -3.5626 C   0  0  0  0  0  0  0  0  0  0  0  0
    3.1956   -2.5317   -2.3062 C   0  0  0  0  0  0  0  0  0  0  0  0
    4.0397   -1.6949   -1.3613 C   0  0  0  0  0  0  0  0  0  0  0  0
    3.3803   -1.4868   -0.0327 N   0  0  2  0  0  0  0  0  0  0  0  0
    3.9458   -0.2865    0.8369 C   0  0  2  0  0  0  0  0  0  0  0  0
    5.0780   -1.0544    1.3105 C   0  0  0  0  0  0  0  0  0  0  0  0
    4.1363   -2.1578    1.7638 C   0  0  1  0  0  0  0  0  0  0  0  0
    2.3497   -1.8417    1.9651 C   0  0  2  0  0  0  0  0  0  0  0  0
    2.0822   -0.7609    2.8172 C   0  0  1  0  0  0  0  0  0  0  0  0
    2.8255   -1.6583    3.7598 C   0  0  2  0  0  0  0  0  0  0  0  0
    3.7024   -0.3262    3.7561 C   0  0  0  0  0  0  0  0  0  0  0  0
    3.1979    0.1468    2.3017 C   0  0  1  0  0  0  0  0  0  0  0  0
    2.7218   -2.8816    2.5838 C   0  0  2  0  0  0  0  0  0  0  0  0
    3.3598   -2.7946    0.9008 C   0  0  1  0  0  0  0  0  0  0  0  0
    1.8555   -2.2457   -4.0542 H   0  0  0  0  0  0  0  0  0  0  0  0
    3.2304   -1.0268   -3.9821 H   0  0  0  0  0  0  0  0  0  0  0  0
    3.4660   -4.0984   -3.8975 H   0  0  0  0  0  0  0  0  0  0  0  0
    4.8657   -2.9175   -3.7965 H   0  0  0  0  0  0  0  0  0  0  0  0
    2.4673   -3.1779   -1.8363 H   0  0  0  0  0  0  0  0  0  0  0  0
    4.9872   -2.1987   -1.2631 H   0  0  0  0  0  0  0  0  0  0  0  0
    4.2327   -0.7346   -1.8084 H   0  0  0  0  0  0  0  0  0  0  0  0
    4.2397    0.5664    0.2463 H   0  0  0  0  0  0  0  0  0  0  0  0
    5.7873   -1.3775    0.5580 H   0  0  0  0  0  0  0  0  0  0  0  0
    5.6518   -0.5444    2.0830 H   0  0  0  0  0  0  0  0  0  0  0  0
    4.7667   -2.8534    2.3583 H   0  0  0  0  0  0  0  0  0  0  0  0
    1.4602   -2.0348    1.3255 H   0  0  0  0  0  0  0  0  0  0  0  0
    1.0479   -0.4687    2.9998 H   0  0  0  0  0  0  0  0  0  0  0  0
    2.2543   -1.8388    4.6629 H   0  0  0  0  0  0  0  0  0  0  0  0
    3.3685    0.3565    4.5537 H   0  0  0  0  0  0  0  0  0  0  0  0
    4.7556   -0.5427    3.9098 H   0  0  0  0  0  0  0  0  0  0  0  0
    2.8942    1.1871    2.3550 H   0  0  0  0  0  0  0  0  0  0  0  0
    1.8627   -3.5246    2.7079 H   0  0  0  0  0  0  0  0  0  0  0  0
    3.8591   -3.6976    0.5492 H   0  0  0  0  0  0  0  0  0  0  0  0
    2.4157   -1.2544   -0.2510 H   0  0  0  0  0  0  0  0  0  0  0  0
  1  3  1  0
  1  2  1  0
  1 16  1  0
  1 17  1  0
  2  3  1  0
  2 18  1  0
  2 19  1  0
  3  4  1  0
  3 20  1  0
  4  5  1  0
  4 21  1  0
  4 22  1  0
  5 15  1  0
  5  6  1  0
  5 35  1  6
  6 13  1  0
  6  7  1  0
  6 23  1  6
  7  8  1  0
  7 24  1  0
  7 25  1  0
  8 15  1  0
  8  9  1  0
  8 26  1  1
  9 14  1  0
  9 10  1  0
  9 27  1  6
 10 13  1  0
 10 11  1  0
 10 28  1  1
 11 12  1  0
 11 14  1  0
 11 29  1  1
 12 13  1  0
 12 30  1  0
 12 31  1  0
 13 32  1  1
 14 15  1  0
 14 33  1  1
 15 34  1  6
M  CHG  1   5   1
M  END
>  <i_m_ct_stereo_status>  (37) 
1

>  <s_m_source_file>  (37) 
/var/tmp/pbs.5076255.sched01/tmp25ygy55i/01wbi4d2b.sdf

>  <i_m_source_file_index>  (37) 
16

>  <i_lp_mmshare_version>  (37) 
48012

>  <i_f3d_flags>  (37) 
0

>  <s_epik_input>  (37) 
W0NIMl0xW0NIMl1bQ0hdMVtDSDJdTjJbQ0BIXShbQ0BIXTNbQ0BIXTRbQ0gyXTUpW0NAQEhdKFtDSDJdNilbQ0BASF0zW0NAQEhdNFtDQEBIXTVbQ0BIXTI2

>  <s_epik_cmdline>  (37) 
J2VwaWtfcHl0aG9uJywgJy1waHQnLCAnMi4wJywgJy1waCcsICc3LjAnLCAnLXRuJywgJzgnLCAnLW1hJywgJzIwMCcsICctaW1hZScsICc8aW5maWxlLm1hZT4nLCAnLW9tYWUnLCAnPG91dGZpbGUubWFlPic=

>  <r_lp_tautomer_probability>  (37) 
1

>  <r_epik_Ionization_Penalty>  (37) 
4.29202e-05

>  <r_epik_Ionization_Penalty_Charging>  (37) 
4.29202e-05

>  <r_epik_Ionization_Penalty_Neutral>  (37) 
0

>  <r_epik_State_Penalty>  (37) 
-0

>  <r_epik_Charging_Adjusted_Penalty>  (37) 
4.29202e-05

>  <i_epik_Tot_Q>  (37) 
1

>  <i_epik_Tot_abs_Q>  (37) 
1

>  <s_lp_Force_Field>  (37) 
OPLS3e

>  <r_lp_Energy>  (37) 
375.093

>  <b_lp_Chiralities_Consistent>  (37) 
1

>  <s_lp_Variant>  (37) 
12:0-1

>  <s_i_glide_gridfile>  (37) 
pfpi4k_grid

>  <i_i_glide_lignum>  (37) 
16

>  <i_i_glide_rotatable_bonds>  (37) 
2

>  <r_i_docking_score>  (37) 
-3.91794

>  <r_i_glide_ligand_efficiency>  (37) 
-0.261196

>  <r_i_glide_ligand_efficiency_sa>  (37) 
-0.644164

>  <r_i_glide_ligand_efficiency_ln>  (37) 
-1.0566

>  <r_i_glide_gscore>  (37) 
-3.91794

>  <r_i_glide_lipo>  (37) 
-0.643195

>  <r_i_glide_hbond>  (37) 
-0.2

>  <r_i_glide_metal>  (37) 
-0

>  <r_i_glide_rewards>  (37) 
-2.02967

>  <r_i_glide_evdw>  (37) 
-19.058

>  <r_i_glide_ecoul>  (37) 
-5.33231

>  <r_i_glide_erotb>  (37) 
0.801138

>  <r_i_glide_esite>  (37) 
-0.0934663

>  <r_i_glide_emodel>  (37) 
-30.8315

>  <r_i_glide_energy>  (37) 
-24.3903

>  <r_i_glide_einternal>  (37) 
0.746944

>  <r_i_glide_intrahb_reward>  (37) 
-0

>  <i_i_glide_confnum>  (37) 
4

>  <i_i_glide_posenum>  (37) 
35

>  <r_i_glide_eff_state_penalty>  (37) 
0

>  <ligand_id>  (37) 
12

>  <original_smiles>  (37) 
C1CC1CN1C2CC3C4C5C(CC52)C4C31

>  <smiles>  (37) 
[H]C1([H])C([H])([H])C1([H])C([H])([H])[N+]1([H])C2([H])C([H])([H])C3([H])C4([H])C5([H])C([H])(C([H])([H])C52[H])C4([H])C31[H]

$$$$
12:0:1
     RDKit          3D

 35 40  0  0  1  0  0  0  0  0999 V2000
    3.6266    0.0900   -5.2834 C   0  0  0  0  0  0  0  0  0  0  0  0
    2.2215    0.3748   -4.9026 C   0  0  0  0  0  0  0  0  0  0  0  0
    3.1669   -0.1981   -3.8726 C   0  0  0  0  0  0  0  0  0  0  0  0
    3.0426   -1.6378   -3.3694 C   0  0  0  0  0  0  0  0  0  0  0  0
    3.2626   -1.7662   -1.8971 N   0  0  2  0  0  0  0  0  0  0  0  0
    4.5537   -1.0686   -1.2898 C   0  0  2  0  0  0  0  0  0  0  0  0
    5.4255   -2.1446   -1.7317 C   0  0  0  0  0  0  0  0  0  0  0  0
    4.5421   -3.1519   -1.0181 C   0  0  1  0  0  0  0  0  0  0  0  0
    3.3293   -2.6149    0.2394 C   0  0  2  0  0  0  0  0  0  0  0  0
    3.9152   -1.8540    1.2662 C   0  0  1  0  0  0  0  0  0  0  0  0
    4.6923   -3.1308    1.4178 C   0  0  2  0  0  0  0  0  0  0  0  0
    5.8441   -2.0577    1.1368 C   0  0  0  0  0  0  0  0  0  0  0  0
    4.8552   -1.0379    0.3748 C   0  0  1  0  0  0  0  0  0  0  0  0
    3.6020   -3.8480    0.3325 C   0  0  2  0  0  0  0  0  0  0  0  0
    3.2737   -3.2946   -1.3605 C   0  0  1  0  0  0  0  0  0  0  0  0
    4.2789    0.9435   -5.4130 H   0  0  0  0  0  0  0  0  0  0  0  0
    3.7850   -0.7373   -5.9783 H   0  0  0  0  0  0  0  0  0  0  0  0
    1.9343    1.4067   -4.7369 H   0  0  0  0  0  0  0  0  0  0  0  0
    1.4152   -0.2636   -5.2755 H   0  0  0  0  0  0  0  0  0  0  0  0
    3.4651    0.5397   -3.1320 H   0  0  0  0  0  0  0  0  0  0  0  0
    2.0549   -2.0414   -3.6067 H   0  0  0  0  0  0  0  0  0  0  0  0
    3.7186   -2.2862   -3.9337 H   0  0  0  0  0  0  0  0  0  0  0  0
    4.8360   -0.1211   -1.7449 H   0  0  0  0  0  0  0  0  0  0  0  0
    5.4924   -2.3112   -2.8025 H   0  0  0  0  0  0  0  0  0  0  0  0
    6.4459   -2.0486   -1.3772 H   0  0  0  0  0  0  0  0  0  0  0  0
    5.1206   -4.1154   -1.0657 H   0  0  0  0  0  0  0  0  0  0  0  0
    2.2221   -2.4170    0.2401 H   0  0  0  0  0  0  0  0  0  0  0  0
    3.2998   -1.4571    2.0666 H   0  0  0  0  0  0  0  0  0  0  0  0
    4.6664   -3.5190    2.4379 H   0  0  0  0  0  0  0  0  0  0  0  0
    6.2196   -1.6240    2.0674 H   0  0  0  0  0  0  0  0  0  0  0  0
    6.6843   -2.4839    0.5852 H   0  0  0  0  0  0  0  0  0  0  0  0
    4.9838   -0.0283    0.7657 H   0  0  0  0  0  0  0  0  0  0  0  0
    2.7780   -4.3682    0.8144 H   0  0  0  0  0  0  0  0  0  0  0  0
    3.1841   -4.0739   -2.1112 H   0  0  0  0  0  0  0  0  0  0  0  0
    2.4323   -1.3512   -1.4515 H   0  0  0  0  0  0  0  0  0  0  0  0
  1  3  1  0
  1  2  1  0
  1 16  1  0
  1 17  1  0
  2  3  1  0
  2 18  1  0
  2 19  1  0
  3  4  1  0
  3 20  1  0
  4  5  1  0
  4 21  1  0
  4 22  1  0
  5 15  1  0
  5  6  1  0
  5 35  1  1
  6 13  1  0
  6  7  1  0
  6 23  1  6
  7  8  1  0
  7 24  1  0
  7 25  1  0
  8 15  1  0
  8  9  1  0
  8 26  1  1
  9 14  1  0
  9 10  1  0
  9 27  1  6
 10 13  1  0
 10 11  1  0
 10 28  1  1
 11 12  1  0
 11 14  1  0
 11 29  1  1
 12 13  1  0
 12 30  1  0
 12 31  1  0
 13 32  1  1
 14 15  1  0
 14 33  1  1
 15 34  1  6
M  CHG  1   5   1
M  END
>  <i_m_ct_stereo_status>  (38) 
1

>  <s_m_source_file>  (38) 
/var/tmp/pbs.5076255.sched01/tmp25ygy55i/01wbi4d2b.sdf

>  <i_m_source_file_index>  (38) 
16

>  <i_lp_mmshare_version>  (38) 
48012

>  <i_f3d_flags>  (38) 
0

>  <s_epik_input>  (38) 
W0NIMl0xW0NIMl1bQ0hdMVtDSDJdTjJbQ0BIXShbQ0BIXTNbQ0BIXTRbQ0gyXTUpW0NAQEhdKFtDSDJdNilbQ0BASF0zW0NAQEhdNFtDQEBIXTVbQ0BIXTI2

>  <s_epik_cmdline>  (38) 
J2VwaWtfcHl0aG9uJywgJy1waHQnLCAnMi4wJywgJy1waCcsICc3LjAnLCAnLXRuJywgJzgnLCAnLW1hJywgJzIwMCcsICctaW1hZScsICc8aW5maWxlLm1hZT4nLCAnLW9tYWUnLCAnPG91dGZpbGUubWFlPic=

>  <r_lp_tautomer_probability>  (38) 
1

>  <r_epik_Ionization_Penalty>  (38) 
4.29202e-05

>  <r_epik_Ionization_Penalty_Charging>  (38) 
4.29202e-05

>  <r_epik_Ionization_Penalty_Neutral>  (38) 
0

>  <r_epik_State_Penalty>  (38) 
-0

>  <r_epik_Charging_Adjusted_Penalty>  (38) 
4.29202e-05

>  <i_epik_Tot_Q>  (38) 
1

>  <i_epik_Tot_abs_Q>  (38) 
1

>  <s_lp_Force_Field>  (38) 
OPLS3e

>  <r_lp_Energy>  (38) 
375.093

>  <b_lp_Chiralities_Consistent>  (38) 
1

>  <s_lp_Variant>  (38) 
12:0-1

>  <s_i_glide_gridfile>  (38) 
pfpi4k_grid

>  <i_i_glide_lignum>  (38) 
16

>  <i_i_glide_rotatable_bonds>  (38) 
2

>  <r_i_docking_score>  (38) 
-3.80993

>  <r_i_glide_ligand_efficiency>  (38) 
-0.253995

>  <r_i_glide_ligand_efficiency_sa>  (38) 
-0.626407

>  <r_i_glide_ligand_efficiency_ln>  (38) 
-1.02748

>  <r_i_glide_gscore>  (38) 
-3.80993

>  <r_i_glide_lipo>  (38) 
-0.715839

>  <r_i_glide_hbond>  (38) 
-0.2

>  <r_i_glide_metal>  (38) 
-0

>  <r_i_glide_rewards>  (38) 
-2.02967

>  <r_i_glide_evdw>  (38) 
-18.4221

>  <r_i_glide_ecoul>  (38) 
-4.40767

>  <r_i_glide_erotb>  (38) 
0.801138

>  <r_i_glide_esite>  (38) 
-0.0833084

>  <r_i_glide_emodel>  (38) 
-28.0113

>  <r_i_glide_energy>  (38) 
-22.8297

>  <r_i_glide_einternal>  (38) 
2.6046

>  <r_i_glide_intrahb_reward>  (38) 
-0

>  <i_i_glide_confnum>  (38) 
4

>  <i_i_glide_posenum>  (38) 
1

>  <r_i_glide_eff_state_penalty>  (38) 
0

>  <ligand_id>  (38) 
12

>  <original_smiles>  (38) 
C1CC1CN1C2CC3C4C5C(CC52)C4C31

>  <smiles>  (38) 
[H]C1([H])C([H])([H])C1([H])C([H])([H])[N+]1([H])C2([H])C([H])([H])C3([H])C4([H])C5([H])C([H])(C([H])([H])C52[H])C4([H])C31[H]

$$$$
12:0:2
     RDKit          3D

 35 40  0  0  1  0  0  0  0  0999 V2000
    2.7358   -2.1474   -3.2145 C   0  0  0  0  0  0  0  0  0  0  0  0
    3.7635   -1.5354   -4.1031 C   0  0  0  0  0  0  0  0  0  0  0  0
    4.0502   -2.8840   -3.4452 C   0  0  0  0  0  0  0  0  0  0  0  0
    5.0671   -3.0157   -2.3242 C   0  0  0  0  0  0  0  0  0  0  0  0
    4.6698   -4.0267   -1.3018 N   0  0  2  0  0  0  0  0  0  0  0  0
    3.2655   -3.8510   -0.5967 C   0  0  2  0  0  0  0  0  0  0  0  0
    3.7793   -2.8219    0.3011 C   0  0  0  0  0  0  0  0  0  0  0  0
    4.8958   -3.7585    0.7414 C   0  0  1  0  0  0  0  0  0  0  0  0
    4.7970   -5.5602    0.4031 C   0  0  2  0  0  0  0  0  0  0  0  0
    3.6117   -6.1328    0.8852 C   0  0  1  0  0  0  0  0  0  0  0  0
    4.2014   -5.6219    2.1775 C   0  0  2  0  0  0  0  0  0  0  0  0
    2.7842   -4.8552    2.1009 C   0  0  0  0  0  0  0  0  0  0  0  0
    2.6759   -4.9937    0.4996 C   0  0  1  0  0  0  0  0  0  0  0  0
    5.6299   -5.2968    1.3150 C   0  0  2  0  0  0  0  0  0  0  0  0
    5.7826   -4.2278   -0.1269 C   0  0  1  0  0  0  0  0  0  0  0  0
    1.8611   -2.6328   -3.6471 H   0  0  0  0  0  0  0  0  0  0  0  0
    2.5723   -1.6146   -2.2746 H   0  0  0  0  0  0  0  0  0  0  0  0
    3.4561   -1.4806   -5.1374 H   0  0  0  0  0  0  0  0  0  0  0  0
    4.2378   -0.6381   -3.7163 H   0  0  0  0  0  0  0  0  0  0  0  0
    4.0107   -3.7579   -4.1064 H   0  0  0  0  0  0  0  0  0  0  0  0
    6.0102   -3.3200   -2.7810 H   0  0  0  0  0  0  0  0  0  0  0  0
    5.2502   -2.0273   -1.8928 H   0  0  0  0  0  0  0  0  0  0  0  0
    2.4458   -3.5560   -1.2525 H   0  0  0  0  0  0  0  0  0  0  0  0
    4.1502   -1.9012   -0.1457 H   0  0  0  0  0  0  0  0  0  0  0  0
    3.0755   -2.5096    1.0611 H   0  0  0  0  0  0  0  0  0  0  0  0
    5.3947   -3.2467    1.6084 H   0  0  0  0  0  0  0  0  0  0  0  0
    5.2126   -6.2437   -0.3911 H   0  0  0  0  0  0  0  0  0  0  0  0
    3.4091   -7.1988    0.7532 H   0  0  0  0  0  0  0  0  0  0  0  0
    4.2508   -6.4002    2.9422 H   0  0  0  0  0  0  0  0  0  0  0  0
    1.9899   -5.4287    2.5956 H   0  0  0  0  0  0  0  0  0  0  0  0
    2.8062   -3.8555    2.5492 H   0  0  0  0  0  0  0  0  0  0  0  0
    1.6936   -5.3763    0.2158 H   0  0  0  0  0  0  0  0  0  0  0  0
    6.3499   -6.1296    1.3616 H   0  0  0  0  0  0  0  0  0  0  0  0
    6.6629   -3.5916   -0.1610 H   0  0  0  0  0  0  0  0  0  0  0  0
    4.6155   -4.9188   -1.7874 H   0  0  0  0  0  0  0  0  0  0  0  0
  1  3  1  0
  1  2  1  0
  1 16  1  0
  1 17  1  0
  2  3  1  0
  2 18  1  0
  2 19  1  0
  3  4  1  0
  3 20  1  0
  4  5  1  0
  4 21  1  0
  4 22  1  0
  5 15  1  0
  5  6  1  0
  5 35  1  6
  6 13  1  0
  6  7  1  0
  6 23  1  6
  7  8  1  0
  7 24  1  0
  7 25  1  0
  8 15  1  0
  8  9  1  0
  8 26  1  1
  9 14  1  0
  9 10  1  0
  9 27  1  6
 10 13  1  0
 10 11  1  0
 10 28  1  1
 11 12  1  0
 11 14  1  0
 11 29  1  1
 12 13  1  0
 12 30  1  0
 12 31  1  0
 13 32  1  1
 14 15  1  0
 14 33  1  1
 15 34  1  6
M  CHG  1   5   1
M  END
>  <i_m_ct_stereo_status>  (39) 
1

>  <s_m_source_file>  (39) 
/var/tmp/pbs.5076255.sched01/tmp25ygy55i/01wbi4d2b.sdf

>  <i_m_source_file_index>  (39) 
16

>  <i_lp_mmshare_version>  (39) 
48012

>  <i_f3d_flags>  (39) 
0

>  <s_epik_input>  (39) 
W0NIMl0xW0NIMl1bQ0hdMVtDSDJdTjJbQ0BIXShbQ0BIXTNbQ0BIXTRbQ0gyXTUpW0NAQEhdKFtDSDJdNilbQ0BASF0zW0NAQEhdNFtDQEBIXTVbQ0BIXTI2

>  <s_epik_cmdline>  (39) 
J2VwaWtfcHl0aG9uJywgJy1waHQnLCAnMi4wJywgJy1waCcsICc3LjAnLCAnLXRuJywgJzgnLCAnLW1hJywgJzIwMCcsICctaW1hZScsICc8aW5maWxlLm1hZT4nLCAnLW9tYWUnLCAnPG91dGZpbGUubWFlPic=

>  <r_lp_tautomer_probability>  (39) 
1

>  <r_epik_Ionization_Penalty>  (39) 
4.29202e-05

>  <r_epik_Ionization_Penalty_Charging>  (39) 
4.29202e-05

>  <r_epik_Ionization_Penalty_Neutral>  (39) 
0

>  <r_epik_State_Penalty>  (39) 
-0

>  <r_epik_Charging_Adjusted_Penalty>  (39) 
4.29202e-05

>  <i_epik_Tot_Q>  (39) 
1

>  <i_epik_Tot_abs_Q>  (39) 
1

>  <s_lp_Force_Field>  (39) 
OPLS3e

>  <r_lp_Energy>  (39) 
375.093

>  <b_lp_Chiralities_Consistent>  (39) 
1

>  <s_lp_Variant>  (39) 
12:0-1

>  <s_i_glide_gridfile>  (39) 
pfpi4k_grid

>  <i_i_glide_lignum>  (39) 
16

>  <i_i_glide_rotatable_bonds>  (39) 
2

>  <r_i_docking_score>  (39) 
-3.49595

>  <r_i_glide_ligand_efficiency>  (39) 
-0.233063

>  <r_i_glide_ligand_efficiency_sa>  (39) 
-0.574784

>  <r_i_glide_ligand_efficiency_ln>  (39) 
-0.9428

>  <r_i_glide_gscore>  (39) 
-3.49595

>  <r_i_glide_lipo>  (39) 
-0.69285

>  <r_i_glide_hbond>  (39) 
0

>  <r_i_glide_metal>  (39) 
-0

>  <r_i_glide_rewards>  (39) 
-2.02967

>  <r_i_glide_evdw>  (39) 
-20.6575

>  <r_i_glide_ecoul>  (39) 
-3.47073

>  <r_i_glide_erotb>  (39) 
0.801138

>  <r_i_glide_esite>  (39) 
-0.0210856

>  <r_i_glide_emodel>  (39) 
-28.3424

>  <r_i_glide_energy>  (39) 
-24.1282

>  <r_i_glide_einternal>  (39) 
2.05993

>  <r_i_glide_intrahb_reward>  (39) 
-0

>  <i_i_glide_confnum>  (39) 
4

>  <i_i_glide_posenum>  (39) 
9

>  <r_i_glide_eff_state_penalty>  (39) 
0

>  <ligand_id>  (39) 
12

>  <original_smiles>  (39) 
C1CC1CN1C2CC3C4C5C(CC52)C4C31

>  <smiles>  (39) 
[H]C1([H])C([H])([H])C1([H])C([H])([H])[N+]1([H])C2([H])C([H])([H])C3([H])C4([H])C5([H])C([H])(C([H])([H])C52[H])C4([H])C31[H]

$$$$
13:0:0
     RDKit          3D

 55 60  0  0  1  0  0  0  0  0999 V2000
    7.6545   -6.6446    2.4590 C   0  0  0  0  0  0  0  0  0  0  0  0
    6.2664   -7.2836    2.2611 C   0  0  0  0  0  0  0  0  0  0  0  0
    6.4351   -8.7666    1.8463 C   0  0  0  0  0  0  0  0  0  0  0  0
    5.4871   -7.2655    3.5650 C   0  0  0  0  0  0  0  0  0  0  0  0
    5.9784   -7.5911    4.6500 O   0  0  0  0  0  0  0  0  0  0  0  0
    4.0672   -6.8658    3.3520 C   0  0  2  0  0  0  0  0  0  0  0  0
    3.3234   -6.3409    4.4733 O   0  0  0  0  0  0  0  0  0  0  0  0
    2.9477   -7.6427    4.0297 C   0  0  1  0  0  0  0  0  0  0  0  0
    1.5465   -7.7265    3.4928 C   0  0  2  0  0  0  0  0  0  0  0  0
    0.8542   -6.4668    3.4218 O   0  0  0  0  0  0  0  0  0  0  0  0
    0.3089   -7.4514    4.2975 C   0  0  1  0  0  0  0  0  0  0  0  0
   -1.0387   -7.9754    3.8407 C   0  0  2  0  0  0  0  0  0  0  0  0
   -1.2705   -8.4246    2.4153 C   0  0  0  0  0  0  0  0  0  0  0  0
   -1.7510   -7.1620    2.8910 O   0  0  0  0  0  0  0  0  0  0  0  0
    3.9997   -6.1346    2.0079 C   0  0  2  0  0  0  0  0  0  0  0  0
    2.8850   -6.6023    1.0329 C   0  0  0  0  0  0  0  0  0  0  0  0
    5.3144   -6.5475    1.2651 C   0  0  1  0  0  0  0  0  0  0  0  0
    5.7785   -5.2375    0.6487 C   0  0  0  0  0  0  0  0  0  0  0  0
    5.0628   -4.1850    1.0686 C   0  0  0  0  0  0  0  0  0  0  0  0
    5.1045   -2.8123    0.5094 C   0  0  0  0  0  0  0  0  0  0  0  0
    6.1130   -2.3511   -0.0238 O   0  0  0  0  0  0  0  0  0  0  0  0
    3.8000   -1.9633    0.5628 C   0  0  1  0  0  0  0  0  0  0  0  0
    4.1246   -0.4621    0.4951 C   0  0  0  0  0  0  0  0  0  0  0  0
    3.0235   -2.2988   -0.5859 O   0  0  0  0  0  0  0  0  0  0  0  0
    2.9603   -2.2782    1.8314 C   0  0  1  0  0  0  0  0  0  0  0  0
    1.7255   -1.5757    1.8372 O   0  0  0  0  0  0  0  0  0  0  0  0
    2.7368   -3.7898    2.0314 C   0  0  0  0  0  0  0  0  0  0  0  0
    4.0809   -4.5627    2.1348 C   0  0  1  0  0  0  0  0  0  0  0  0
    4.6871   -4.1817    3.3539 O   0  0  0  0  0  0  0  0  0  0  0  0
    8.2192   -6.6193    1.5305 H   0  0  0  0  0  0  0  0  0  0  0  0
    8.2449   -7.2159    3.1741 H   0  0  0  0  0  0  0  0  0  0  0  0
    7.5775   -5.6338    2.8530 H   0  0  0  0  0  0  0  0  0  0  0  0
    6.9433   -8.8584    0.8810 H   0  0  0  0  0  0  0  0  0  0  0  0
    5.4633   -9.2708    1.7561 H   0  0  0  0  0  0  0  0  0  0  0  0
    7.0181   -9.3343    2.5820 H   0  0  0  0  0  0  0  0  0  0  0  0
    3.2538   -8.4526    4.6819 H   0  0  0  0  0  0  0  0  0  0  0  0
    1.4254   -8.3816    2.6309 H   0  0  0  0  0  0  0  0  0  0  0  0
    0.4289   -7.1900    5.3504 H   0  0  0  0  0  0  0  0  0  0  0  0
   -1.6683   -8.4563    4.5881 H   0  0  0  0  0  0  0  0  0  0  0  0
   -0.5101   -8.3182    1.6405 H   0  0  0  0  0  0  0  0  0  0  0  0
   -2.0280   -9.1874    2.2397 H   0  0  0  0  0  0  0  0  0  0  0  0
    3.0571   -6.2001    0.0281 H   0  0  0  0  0  0  0  0  0  0  0  0
    1.8773   -6.2899    1.2973 H   0  0  0  0  0  0  0  0  0  0  0  0
    2.8927   -7.6920    0.9409 H   0  0  0  0  0  0  0  0  0  0  0  0
    5.0929   -7.2309    0.4280 H   0  0  0  0  0  0  0  0  0  0  0  0
    6.5017   -5.2159   -0.1514 H   0  0  0  0  0  0  0  0  0  0  0  0
    4.7345   -0.1406    1.3368 H   0  0  0  0  0  0  0  0  0  0  0  0
    3.2165    0.1358    0.5174 H   0  0  0  0  0  0  0  0  0  0  0  0
    4.6551   -0.2101   -0.4187 H   0  0  0  0  0  0  0  0  0  0  0  0
    2.3031   -1.6912   -0.7046 H   0  0  0  0  0  0  0  0  0  0  0  0
    3.4921   -1.8964    2.7010 H   0  0  0  0  0  0  0  0  0  0  0  0
    1.4210   -1.4319    0.9443 H   0  0  0  0  0  0  0  0  0  0  0  0
    2.1447   -3.9649    2.9279 H   0  0  0  0  0  0  0  0  0  0  0  0
    2.1271   -4.1341    1.1983 H   0  0  0  0  0  0  0  0  0  0  0  0
    4.6837   -3.2375    3.4059 H   0  0  0  0  0  0  0  0  0  0  0  0
  1  2  1  0
  1 30  1  0
  1 31  1  0
  1 32  1  0
  2 17  1  0
  2  3  1  0
  2  4  1  0
  3 33  1  0
  3 34  1  0
  3 35  1  0
  4  5  2  0
  4  6  1  0
  6  8  1  0
  6  7  1  1
  6 15  1  0
  7  8  1  0
  8  9  1  0
  8 36  1  1
  9 11  1  0
  9 10  1  0
  9 37  1  6
 10 11  1  0
 11 12  1  0
 11 38  1  1
 12 14  1  0
 12 13  1  0
 12 39  1  1
 13 14  1  0
 13 40  1  0
 13 41  1  0
 15 28  1  0
 15 16  1  6
 15 17  1  0
 16 42  1  0
 16 43  1  0
 16 44  1  0
 17 18  1  0
 17 45  1  6
 18 19  2  0
 18 46  1  0
 19 28  1  0
 19 20  1  0
 20 21  2  0
 20 22  1  0
 22 23  1  0
 22 24  1  6
 22 25  1  0
 23 47  1  0
 23 48  1  0
 23 49  1  0
 24 50  1  0
 25 26  1  0
 25 27  1  0
 25 51  1  1
 26 52  1  0
 27 28  1  0
 27 53  1  0
 27 54  1  0
 28 29  1  1
 29 55  1  0
M  END
>  <i_m_ct_stereo_status>  (40) 
1

>  <s_m_source_file>  (40) 
/var/tmp/pbs.5076255.sched01/tmp25ygy55i/01wbi4d2b.sdf

>  <i_m_source_file_index>  (40) 
17

>  <i_lp_mmshare_version>  (40) 
48012

>  <i_f3d_flags>  (40) 
0

>  <s_epik_input>  (40) 
Tz1DMVtDQEBdKFtDSDNdKShbT0hdKVtDQEBIXShbT0hdKVtDSDJdW0NAXTIoW09IXSlDMT1bQ0hdW0NAQEhdKEMoW0NIM10pKFtDSDNdKUMzPU8pW0NAQF0yKFtDSDNdKVtDQF0zNE9bQ0BIXTRbQ0BASF01T1tDQEhdNVtDQEBIXTZbQ0gyXU82

>  <s_epik_cmdline>  (40) 
J2VwaWtfcHl0aG9uJywgJy1waHQnLCAnMi4wJywgJy1waCcsICc3LjAnLCAnLXRuJywgJzgnLCAnLW1hJywgJzIwMCcsICctaW1hZScsICc8aW5maWxlLm1hZT4nLCAnLW9tYWUnLCAnPG91dGZpbGUubWFlPic=

>  <r_lp_tautomer_probability>  (40) 
1

>  <r_epik_Ionization_Penalty>  (40) 
4.84716e-06

>  <r_epik_Ionization_Penalty_Charging>  (40) 
0

>  <r_epik_Ionization_Penalty_Neutral>  (40) 
4.84716e-06

>  <r_epik_State_Penalty>  (40) 
-0

>  <r_epik_Charging_Adjusted_Penalty>  (40) 
0

>  <i_epik_Tot_Q>  (40) 
0

>  <i_epik_Tot_abs_Q>  (40) 
0

>  <s_lp_Force_Field>  (40) 
OPLS3e

>  <r_lp_Energy>  (40) 
41.4854

>  <b_lp_Chiralities_Consistent>  (40) 
1

>  <s_lp_Variant>  (40) 
13:0-1

>  <s_i_glide_gridfile>  (40) 
pfpi4k_grid

>  <i_i_glide_lignum>  (40) 
17

>  <i_i_glide_rotatable_bonds>  (40) 
5

>  <r_i_docking_score>  (40) 
-3.68945

>  <r_i_glide_ligand_efficiency>  (40) 
-0.127223

>  <r_i_glide_ligand_efficiency_sa>  (40) 
-0.390868

>  <r_i_glide_ligand_efficiency_ln>  (40) 
-0.844791

>  <r_i_glide_gscore>  (40) 
-3.68945

>  <r_i_glide_lipo>  (40) 
-0.495003

>  <r_i_glide_hbond>  (40) 
-0.137937

>  <r_i_glide_metal>  (40) 
-0

>  <r_i_glide_rewards>  (40) 
-0.677598

>  <r_i_glide_evdw>  (40) 
-27.0406

>  <r_i_glide_ecoul>  (40) 
-8.43301

>  <r_i_glide_erotb>  (40) 
0.238066

>  <r_i_glide_esite>  (40) 
0

>  <r_i_glide_emodel>  (40) 
-39.6913

>  <r_i_glide_energy>  (40) 
-35.4736

>  <r_i_glide_einternal>  (40) 
10.1208

>  <r_i_glide_intrahb_reward>  (40) 
-0

>  <i_i_glide_confnum>  (40) 
3

>  <i_i_glide_posenum>  (40) 
1

>  <r_i_glide_eff_state_penalty>  (40) 
0

>  <ligand_id>  (40) 
13

>  <original_smiles>  (40) 
CC1(C)C(=O)C2(OC2C2OC2C2CO2)C2(C)C1C=C1C(=O)C(C)(O)C(O)CC12O

>  <smiles>  (40) 
[H]OC1([H])C([H])([H])C2(O[H])C(=C([H])C3([H])C(C([H])([H])[H])(C([H])([H])[H])C(=O)C4(OC4([H])C4([H])OC4([H])C4([H])OC4([H])[H])C32C([H])([H])[H])C(=O)C1(O[H])C([H])([H])[H]

$$$$
13:0:1
     RDKit          3D

 55 60  0  0  1  0  0  0  0  0999 V2000
    7.5777   -6.8081    2.3547 C   0  0  0  0  0  0  0  0  0  0  0  0
    6.1682   -7.4072    2.1796 C   0  0  0  0  0  0  0  0  0  0  0  0
    6.2833   -8.8929    1.7556 C   0  0  0  0  0  0  0  0  0  0  0  0
    5.4136   -7.3782    3.4949 C   0  0  0  0  0  0  0  0  0  0  0  0
    5.9225   -7.7030    4.5734 O   0  0  0  0  0  0  0  0  0  0  0  0
    4.0065   -6.9348    3.3145 C   0  0  2  0  0  0  0  0  0  0  0  0
    3.3137   -6.3828    4.4540 O   0  0  0  0  0  0  0  0  0  0  0  0
    2.8774   -7.6691    4.0233 C   0  0  1  0  0  0  0  0  0  0  0  0
    1.4688   -7.7073    3.5107 C   0  0  2  0  0  0  0  0  0  0  0  0
    0.8142   -6.4259    3.4462 O   0  0  0  0  0  0  0  0  0  0  0  0
    0.2535   -7.3925    4.3332 C   0  0  1  0  0  0  0  0  0  0  0  0
   -1.1154   -7.8778    3.9011 C   0  0  2  0  0  0  0  0  0  0  0  0
   -1.3788   -8.4165    2.5071 C   0  0  0  0  0  0  0  0  0  0  0  0
   -1.7733   -7.0915    2.8871 O   0  0  0  0  0  0  0  0  0  0  0  0
    3.9322   -6.1836    1.9811 C   0  0  2  0  0  0  0  0  0  0  0  0
    2.7873   -6.6121    1.0241 C   0  0  0  0  0  0  0  0  0  0  0  0
    5.2169   -6.6352    1.2070 C   0  0  1  0  0  0  0  0  0  0  0  0
    5.7101   -5.3316    0.5968 C   0  0  0  0  0  0  0  0  0  0  0  0
    5.0403   -4.2594    1.0402 C   0  0  0  0  0  0  0  0  0  0  0  0
    5.1068   -2.8857    0.4829 C   0  0  0  0  0  0  0  0  0  0  0  0
    6.1173   -2.4557   -0.0740 O   0  0  0  0  0  0  0  0  0  0  0  0
    3.8325   -1.9959    0.5611 C   0  0  1  0  0  0  0  0  0  0  0  0
    4.1994   -0.5017    0.4823 C   0  0  0  0  0  0  0  0  0  0  0  0
    3.0200   -2.2970   -0.5747 O   0  0  0  0  0  0  0  0  0  0  0  0
    3.0076   -2.2953    1.8437 C   0  0  1  0  0  0  0  0  0  0  0  0
    1.7909   -1.5614    1.8692 O   0  0  0  0  0  0  0  0  0  0  0  0
    2.7398   -3.7995    2.0368 C   0  0  0  0  0  0  0  0  0  0  0  0
    4.0593   -4.6120    2.1157 C   0  0  1  0  0  0  0  0  0  0  0  0
    4.6812   -4.2368    3.3289 O   0  0  0  0  0  0  0  0  0  0  0  0
    8.1245   -6.7951    1.4158 H   0  0  0  0  0  0  0  0  0  0  0  0
    8.1640   -7.4010    3.0548 H   0  0  0  0  0  0  0  0  0  0  0  0
    7.5419   -5.7980    2.7542 H   0  0  0  0  0  0  0  0  0  0  0  0
    6.7737   -8.9994    0.7831 H   0  0  0  0  0  0  0  0  0  0  0  0
    5.2944   -9.3658    1.6807 H   0  0  0  0  0  0  0  0  0  0  0  0
    6.8616   -9.4800    2.4799 H   0  0  0  0  0  0  0  0  0  0  0  0
    3.1698   -8.4943    4.6624 H   0  0  0  0  0  0  0  0  0  0  0  0
    1.3213   -8.3526    2.6461 H   0  0  0  0  0  0  0  0  0  0  0  0
    0.4001   -7.1270    5.3827 H   0  0  0  0  0  0  0  0  0  0  0  0
   -1.7808   -8.2417    4.6822 H   0  0  0  0  0  0  0  0  0  0  0  0
   -0.6225   -8.4189    1.7215 H   0  0  0  0  0  0  0  0  0  0  0  0
   -2.1833   -9.1402    2.3977 H   0  0  0  0  0  0  0  0  0  0  0  0
    2.9538   -6.2102    0.0185 H   0  0  0  0  0  0  0  0  0  0  0  0
    1.7947   -6.2682    1.3035 H   0  0  0  0  0  0  0  0  0  0  0  0
    2.7564   -7.7010    0.9263 H   0  0  0  0  0  0  0  0  0  0  0  0
    4.9624   -7.3053    0.3658 H   0  0  0  0  0  0  0  0  0  0  0  0
    6.4076   -5.3285   -0.2280 H   0  0  0  0  0  0  0  0  0  0  0  0
    4.8209   -0.1973    1.3217 H   0  0  0  0  0  0  0  0  0  0  0  0
    3.3117    0.1270    0.4968 H   0  0  0  0  0  0  0  0  0  0  0  0
    4.7361   -0.2618   -0.4321 H   0  0  0  0  0  0  0  0  0  0  0  0
    2.3145   -1.6721   -0.6736 H   0  0  0  0  0  0  0  0  0  0  0  0
    3.5704   -1.9440    2.7075 H   0  0  0  0  0  0  0  0  0  0  0  0
    1.4451   -1.4610    0.9866 H   0  0  0  0  0  0  0  0  0  0  0  0
    2.1658   -3.9652    2.9468 H   0  0  0  0  0  0  0  0  0  0  0  0
    2.1089   -4.1261    1.2145 H   0  0  0  0  0  0  0  0  0  0  0  0
    5.4933   -4.7192    3.4081 H   0  0  0  0  0  0  0  0  0  0  0  0
  1  2  1  0
  1 30  1  0
  1 31  1  0
  1 32  1  0
  2 17  1  0
  2  3  1  0
  2  4  1  0
  3 33  1  0
  3 34  1  0
  3 35  1  0
  4  5  2  0
  4  6  1  0
  6  8  1  0
  6  7  1  1
  6 15  1  0
  7  8  1  0
  8  9  1  0
  8 36  1  1
  9 11  1  0
  9 10  1  0
  9 37  1  6
 10 11  1  0
 11 12  1  0
 11 38  1  1
 12 14  1  0
 12 13  1  0
 12 39  1  1
 13 14  1  0
 13 40  1  0
 13 41  1  0
 15 28  1  0
 15 16  1  6
 15 17  1  0
 16 42  1  0
 16 43  1  0
 16 44  1  0
 17 18  1  0
 17 45  1  6
 18 19  2  0
 18 46  1  0
 19 28  1  0
 19 20  1  0
 20 21  2  0
 20 22  1  0
 22 23  1  0
 22 24  1  6
 22 25  1  0
 23 47  1  0
 23 48  1  0
 23 49  1  0
 24 50  1  0
 25 26  1  0
 25 27  1  0
 25 51  1  1
 26 52  1  0
 27 28  1  0
 27 53  1  0
 27 54  1  0
 28 29  1  1
 29 55  1  0
M  END
>  <i_m_ct_stereo_status>  (41) 
1

>  <s_m_source_file>  (41) 
/var/tmp/pbs.5076255.sched01/tmp25ygy55i/01wbi4d2b.sdf

>  <i_m_source_file_index>  (41) 
17

>  <i_lp_mmshare_version>  (41) 
48012

>  <i_f3d_flags>  (41) 
0

>  <s_epik_input>  (41) 
Tz1DMVtDQEBdKFtDSDNdKShbT0hdKVtDQEBIXShbT0hdKVtDSDJdW0NAXTIoW09IXSlDMT1bQ0hdW0NAQEhdKEMoW0NIM10pKFtDSDNdKUMzPU8pW0NAQF0yKFtDSDNdKVtDQF0zNE9bQ0BIXTRbQ0BASF01T1tDQEhdNVtDQEBIXTZbQ0gyXU82

>  <s_epik_cmdline>  (41) 
J2VwaWtfcHl0aG9uJywgJy1waHQnLCAnMi4wJywgJy1waCcsICc3LjAnLCAnLXRuJywgJzgnLCAnLW1hJywgJzIwMCcsICctaW1hZScsICc8aW5maWxlLm1hZT4nLCAnLW9tYWUnLCAnPG91dGZpbGUubWFlPic=

>  <r_lp_tautomer_probability>  (41) 
1

>  <r_epik_Ionization_Penalty>  (41) 
4.84716e-06

>  <r_epik_Ionization_Penalty_Charging>  (41) 
0

>  <r_epik_Ionization_Penalty_Neutral>  (41) 
4.84716e-06

>  <r_epik_State_Penalty>  (41) 
-0

>  <r_epik_Charging_Adjusted_Penalty>  (41) 
0

>  <i_epik_Tot_Q>  (41) 
0

>  <i_epik_Tot_abs_Q>  (41) 
0

>  <s_lp_Force_Field>  (41) 
OPLS3e

>  <r_lp_Energy>  (41) 
41.4854

>  <b_lp_Chiralities_Consistent>  (41) 
1

>  <s_lp_Variant>  (41) 
13:0-1

>  <s_i_glide_gridfile>  (41) 
pfpi4k_grid

>  <i_i_glide_lignum>  (41) 
17

>  <i_i_glide_rotatable_bonds>  (41) 
5

>  <r_i_docking_score>  (41) 
-3.67785

>  <r_i_glide_ligand_efficiency>  (41) 
-0.126822

>  <r_i_glide_ligand_efficiency_sa>  (41) 
-0.389638

>  <r_i_glide_ligand_efficiency_ln>  (41) 
-0.842134

>  <r_i_glide_gscore>  (41) 
-3.67785

>  <r_i_glide_lipo>  (41) 
-0.513525

>  <r_i_glide_hbond>  (41) 
-0.13784

>  <r_i_glide_metal>  (41) 
-0

>  <r_i_glide_rewards>  (41) 
-0.678364

>  <r_i_glide_evdw>  (41) 
-27.5489

>  <r_i_glide_ecoul>  (41) 
-8.05828

>  <r_i_glide_erotb>  (41) 
0.238066

>  <r_i_glide_esite>  (41) 
0

>  <r_i_glide_emodel>  (41) 
-39.7854

>  <r_i_glide_energy>  (41) 
-35.6071

>  <r_i_glide_einternal>  (41) 
10.1063

>  <r_i_glide_intrahb_reward>  (41) 
-0

>  <i_i_glide_confnum>  (41) 
3

>  <i_i_glide_posenum>  (41) 
17

>  <r_i_glide_eff_state_penalty>  (41) 
0

>  <ligand_id>  (41) 
13

>  <original_smiles>  (41) 
CC1(C)C(=O)C2(OC2C2OC2C2CO2)C2(C)C1C=C1C(=O)C(C)(O)C(O)CC12O

>  <smiles>  (41) 
[H]OC1([H])C([H])([H])C2(O[H])C(=C([H])C3([H])C(C([H])([H])[H])(C([H])([H])[H])C(=O)C4(OC4([H])C4([H])OC4([H])C4([H])OC4([H])[H])C32C([H])([H])[H])C(=O)C1(O[H])C([H])([H])[H]

$$$$
13:0:2
     RDKit          3D

 55 60  0  0  1  0  0  0  0  0999 V2000
    7.8448   -6.1428    2.7841 C   0  0  0  0  0  0  0  0  0  0  0  0
    6.5673   -6.8349    2.2981 C   0  0  0  0  0  0  0  0  0  0  0  0
    6.9156   -8.2464    1.7751 C   0  0  0  0  0  0  0  0  0  0  0  0
    5.5854   -7.0018    3.4567 C   0  0  0  0  0  0  0  0  0  0  0  0
    5.9159   -7.4006    4.5726 O   0  0  0  0  0  0  0  0  0  0  0  0
    4.1911   -6.6713    3.0330 C   0  0  2  0  0  0  0  0  0  0  0  0
    3.2391   -6.3285    4.0643 O   0  0  0  0  0  0  0  0  0  0  0  0
    3.0373   -7.5848    3.4272 C   0  0  1  0  0  0  0  0  0  0  0  0
    1.7438   -7.6727    2.6581 C   0  0  2  0  0  0  0  0  0  0  0  0
    1.0879   -6.4071    2.4803 O   0  0  0  0  0  0  0  0  0  0  0  0
    0.4059   -7.3723    3.2707 C   0  0  1  0  0  0  0  0  0  0  0  0
   -0.8374   -7.8715    2.6128 C   0  0  2  0  0  0  0  0  0  0  0  0
   -1.8098   -8.6692    3.3987 C   0  0  0  0  0  0  0  0  0  0  0  0
   -0.9186   -9.2928    2.4707 O   0  0  0  0  0  0  0  0  0  0  0  0
    4.2941   -5.7979    1.7778 C   0  0  2  0  0  0  0  0  0  0  0  0
    3.3968   -6.2338    0.5892 C   0  0  0  0  0  0  0  0  0  0  0  0
    5.7387   -6.0389    1.2338 C   0  0  1  0  0  0  0  0  0  0  0  0
    6.1767   -4.6424    0.8248 C   0  0  0  0  0  0  0  0  0  0  0  0
    5.3149   -3.6934    1.2171 C   0  0  0  0  0  0  0  0  0  0  0  0
    5.3278   -2.2690    0.8137 C   0  0  0  0  0  0  0  0  0  0  0  0
    6.3709   -1.6864    0.5033 O   0  0  0  0  0  0  0  0  0  0  0  0
    3.9602   -1.5208    0.7319 C   0  0  1  0  0  0  0  0  0  0  0  0
    4.1700   -0.0062    0.8790 C   0  0  0  0  0  0  0  0  0  0  0  0
    3.4182   -1.7679   -0.5595 O   0  0  0  0  0  0  0  0  0  0  0  0
    2.9606   -2.0252    1.8078 C   0  0  1  0  0  0  0  0  0  0  0  0
    1.6822   -1.4094    1.6790 O   0  0  0  0  0  0  0  0  0  0  0  0
    2.8401   -3.5598    1.8240 C   0  0  0  0  0  0  0  0  0  0  0  0
    4.2144   -4.2459    2.0695 C   0  0  1  0  0  0  0  0  0  0  0  0
    4.5846   -3.9520    3.4072 O   0  0  0  0  0  0  0  0  0  0  0  0
    8.5464   -5.9654    1.9713 H   0  0  0  0  0  0  0  0  0  0  0  0
    8.3636   -6.7384    3.5381 H   0  0  0  0  0  0  0  0  0  0  0  0
    7.6023   -5.1910    3.2483 H   0  0  0  0  0  0  0  0  0  0  0  0
    7.5780   -8.1925    0.9106 H   0  0  0  0  0  0  0  0  0  0  0  0
    6.0173   -8.7947    1.4758 H   0  0  0  0  0  0  0  0  0  0  0  0
    7.4186   -8.8476    2.5386 H   0  0  0  0  0  0  0  0  0  0  0  0
    3.2905   -8.4471    4.0519 H   0  0  0  0  0  0  0  0  0  0  0  0
    1.7529   -8.2991    1.7655 H   0  0  0  0  0  0  0  0  0  0  0  0
    0.3550   -7.1159    4.3343 H   0  0  0  0  0  0  0  0  0  0  0  0
   -1.1828   -7.3463    1.7290 H   0  0  0  0  0  0  0  0  0  0  0  0
   -1.5854   -8.8604    4.4447 H   0  0  0  0  0  0  0  0  0  0  0  0
   -2.8469   -8.6490    3.0926 H   0  0  0  0  0  0  0  0  0  0  0  0
    3.7282   -5.7496   -0.3313 H   0  0  0  0  0  0  0  0  0  0  0  0
    2.3419   -5.9927    0.6587 H   0  0  0  0  0  0  0  0  0  0  0  0
    3.4961   -7.3174    0.4713 H   0  0  0  0  0  0  0  0  0  0  0  0
    5.7135   -6.6359    0.3209 H   0  0  0  0  0  0  0  0  0  0  0  0
    7.0089   -4.4902    0.1590 H   0  0  0  0  0  0  0  0  0  0  0  0
    4.6093    0.2627    1.8459 H   0  0  0  0  0  0  0  0  0  0  0  0
    3.2352    0.5452    0.7938 H   0  0  0  0  0  0  0  0  0  0  0  0
    4.8302    0.3612    0.1033 H   0  0  0  0  0  0  0  0  0  0  0  0
    2.5483   -1.3768   -0.6424 H   0  0  0  0  0  0  0  0  0  0  0  0
    3.3198   -1.7025    2.7847 H   0  0  0  0  0  0  0  0  0  0  0  0
    1.4145   -1.3339    0.7601 H   0  0  0  0  0  0  0  0  0  0  0  0
    2.1341   -3.8680    2.5945 H   0  0  0  0  0  0  0  0  0  0  0  0
    2.3950   -3.8513    0.8743 H   0  0  0  0  0  0  0  0  0  0  0  0
    4.4948   -3.0221    3.5422 H   0  0  0  0  0  0  0  0  0  0  0  0
  1  2  1  0
  1 30  1  0
  1 31  1  0
  1 32  1  0
  2 17  1  0
  2  3  1  0
  2  4  1  0
  3 33  1  0
  3 34  1  0
  3 35  1  0
  4  5  2  0
  4  6  1  0
  6  8  1  0
  6  7  1  1
  6 15  1  0
  7  8  1  0
  8  9  1  0
  8 36  1  1
  9 11  1  0
  9 10  1  0
  9 37  1  6
 10 11  1  0
 11 12  1  0
 11 38  1  1
 12 14  1  0
 12 13  1  0
 12 39  1  6
 13 14  1  0
 13 40  1  0
 13 41  1  0
 15 28  1  0
 15 16  1  6
 15 17  1  0
 16 42  1  0
 16 43  1  0
 16 44  1  0
 17 18  1  0
 17 45  1  6
 18 19  2  0
 18 46  1  0
 19 28  1  0
 19 20  1  0
 20 21  2  0
 20 22  1  0
 22 23  1  0
 22 24  1  6
 22 25  1  0
 23 47  1  0
 23 48  1  0
 23 49  1  0
 24 50  1  0
 25 26  1  0
 25 27  1  0
 25 51  1  1
 26 52  1  0
 27 28  1  0
 27 53  1  0
 27 54  1  0
 28 29  1  1
 29 55  1  0
M  END
>  <i_m_ct_stereo_status>  (42) 
1

>  <s_m_source_file>  (42) 
/var/tmp/pbs.5076255.sched01/tmp25ygy55i/01wbi4d2b.sdf

>  <i_m_source_file_index>  (42) 
17

>  <i_lp_mmshare_version>  (42) 
48012

>  <i_f3d_flags>  (42) 
0

>  <s_epik_input>  (42) 
Tz1DMVtDQEBdKFtDSDNdKShbT0hdKVtDQEBIXShbT0hdKVtDSDJdW0NAXTIoW09IXSlDMT1bQ0hdW0NAQEhdKEMoW0NIM10pKFtDSDNdKUMzPU8pW0NAQF0yKFtDSDNdKVtDQF0zNE9bQ0BIXTRbQ0BASF01T1tDQEhdNVtDQEBIXTZbQ0gyXU82

>  <s_epik_cmdline>  (42) 
J2VwaWtfcHl0aG9uJywgJy1waHQnLCAnMi4wJywgJy1waCcsICc3LjAnLCAnLXRuJywgJzgnLCAnLW1hJywgJzIwMCcsICctaW1hZScsICc8aW5maWxlLm1hZT4nLCAnLW9tYWUnLCAnPG91dGZpbGUubWFlPic=

>  <r_lp_tautomer_probability>  (42) 
1

>  <r_epik_Ionization_Penalty>  (42) 
4.84716e-06

>  <r_epik_Ionization_Penalty_Charging>  (42) 
0

>  <r_epik_Ionization_Penalty_Neutral>  (42) 
4.84716e-06

>  <r_epik_State_Penalty>  (42) 
-0

>  <r_epik_Charging_Adjusted_Penalty>  (42) 
0

>  <i_epik_Tot_Q>  (42) 
0

>  <i_epik_Tot_abs_Q>  (42) 
0

>  <s_lp_Force_Field>  (42) 
OPLS3e

>  <r_lp_Energy>  (42) 
41.4854

>  <b_lp_Chiralities_Consistent>  (42) 
1

>  <s_lp_Variant>  (42) 
13:0-1

>  <s_i_glide_gridfile>  (42) 
pfpi4k_grid

>  <i_i_glide_lignum>  (42) 
17

>  <i_i_glide_rotatable_bonds>  (42) 
5

>  <r_i_docking_score>  (42) 
-3.09551

>  <r_i_glide_ligand_efficiency>  (42) 
-0.106742

>  <r_i_glide_ligand_efficiency_sa>  (42) 
-0.327945

>  <r_i_glide_ligand_efficiency_ln>  (42) 
-0.708794

>  <r_i_glide_gscore>  (42) 
-3.09551

>  <r_i_glide_lipo>  (42) 
-0.508473

>  <r_i_glide_hbond>  (42) 
0

>  <r_i_glide_metal>  (42) 
-0

>  <r_i_glide_rewards>  (42) 
-0.702206

>  <r_i_glide_evdw>  (42) 
-25.8626

>  <r_i_glide_ecoul>  (42) 
-5.5318

>  <r_i_glide_erotb>  (42) 
0.238066

>  <r_i_glide_esite>  (42) 
0

>  <r_i_glide_emodel>  (42) 
-36.0021

>  <r_i_glide_energy>  (42) 
-31.3944

>  <r_i_glide_einternal>  (42) 
4.91568

>  <r_i_glide_intrahb_reward>  (42) 
-0

>  <i_i_glide_confnum>  (42) 
2

>  <i_i_glide_posenum>  (42) 
8

>  <r_i_glide_eff_state_penalty>  (42) 
0

>  <ligand_id>  (42) 
13

>  <original_smiles>  (42) 
CC1(C)C(=O)C2(OC2C2OC2C2CO2)C2(C)C1C=C1C(=O)C(C)(O)C(O)CC12O

>  <smiles>  (42) 
[H]OC1([H])C([H])([H])C2(O[H])C(=C([H])C3([H])C(C([H])([H])[H])(C([H])([H])[H])C(=O)C4(OC4([H])C4([H])OC4([H])C4([H])OC4([H])[H])C32C([H])([H])[H])C(=O)C1(O[H])C([H])([H])[H]

$$$$
14:0:0
     RDKit          3D

 25 27  0  0  1  0  0  0  0  0999 V2000
   -7.6508  -11.1178   -6.7736 C   0  0  0  0  0  0  0  0  0  0  0  0
   -6.2722  -10.7618   -6.4551 N   0  0  0  0  0  0  0  0  0  0  0  0
   -5.3770  -11.7710   -6.3247 N   0  0  0  0  0  0  0  0  0  0  0  0
   -4.2407  -11.1943   -5.9437 C   0  0  0  0  0  0  0  0  0  0  0  0
   -4.3747   -9.7853   -5.8155 C   0  0  0  0  0  0  0  0  0  0  0  0
   -5.6643   -9.5470   -6.1773 C   0  0  0  0  0  0  0  0  0  0  0  0
   -6.2724   -8.3210   -6.2065 N   0  0  0  0  0  0  0  0  0  0  0  0
   -6.0004   -7.4419   -5.1209 C   0  0  0  0  0  0  0  0  0  0  0  0
   -6.5462   -6.2181   -5.0333 C   0  0  0  0  0  0  0  0  0  0  0  0
   -7.4303   -5.7875   -6.0549 C   0  0  0  0  0  0  0  0  0  0  0  0
   -8.2749   -4.2640   -6.1346 S   0  0  0  0  0  0  0  0  0  0  0  0
   -8.9943   -4.7432   -7.6554 C   0  0  0  0  0  0  0  0  0  0  0  0
   -8.6061   -6.0016   -8.0405 C   0  0  0  0  0  0  0  0  0  0  0  0
   -7.6943   -6.5962   -7.1311 C   0  0  0  0  0  0  0  0  0  0  0  0
   -7.0318   -7.9317   -7.2763 C   0  0  0  0  0  0  0  0  0  0  0  0
   -7.1686   -8.6083   -8.3108 O   0  0  0  0  0  0  0  0  0  0  0  0
   -8.2333  -10.2441   -7.0583 H   0  0  0  0  0  0  0  0  0  0  0  0
   -8.1228  -11.5880   -5.9070 H   0  0  0  0  0  0  0  0  0  0  0  0
   -7.6669  -11.8359   -7.5973 H   0  0  0  0  0  0  0  0  0  0  0  0
   -3.3592  -11.8077   -5.7698 H   0  0  0  0  0  0  0  0  0  0  0  0
   -3.6218   -9.0670   -5.5125 H   0  0  0  0  0  0  0  0  0  0  0  0
   -5.3459   -7.8481   -4.3536 H   0  0  0  0  0  0  0  0  0  0  0  0
   -6.3434   -5.5661   -4.1938 H   0  0  0  0  0  0  0  0  0  0  0  0
   -9.6549   -4.0702   -8.1711 H   0  0  0  0  0  0  0  0  0  0  0  0
   -8.9243   -6.5056   -8.9408 H   0  0  0  0  0  0  0  0  0  0  0  0
  1  2  1  0
  1 17  1  0
  1 18  1  0
  1 19  1  0
  2  6  1  0
  2  3  1  0
  3  4  2  0
  4  5  1  0
  4 20  1  0
  5  6  2  0
  5 21  1  0
  6  7  1  0
  7 15  1  0
  7  8  1  0
  8  9  2  0
  8 22  1  0
  9 10  1  0
  9 23  1  0
 10 14  2  0
 10 11  1  0
 11 12  1  0
 12 13  2  0
 12 24  1  0
 13 14  1  0
 13 25  1  0
 14 15  1  0
 15 16  2  0
M  END
>  <i_m_ct_stereo_status>  (43) 
1

>  <s_m_source_file>  (43) 
/var/tmp/pbs.5076255.sched01/tmp25ygy55i/01wbi4d2b.sdf

>  <i_m_source_file_index>  (43) 
18

>  <i_lp_mmshare_version>  (43) 
48012

>  <i_f3d_flags>  (43) 
0

>  <s_epik_input>  (43) 
W0NIM11uMW5bY0hdW2NIXWMxLW4oW2NIXVtjSF0yKWMoPU8pYyhjMjMpW2NIXVtjSF1zMw==

>  <s_epik_cmdline>  (43) 
J2VwaWtfcHl0aG9uJywgJy1waHQnLCAnMi4wJywgJy1waCcsICc3LjAnLCAnLXRuJywgJzgnLCAnLW1hJywgJzIwMCcsICctaW1hZScsICc8aW5maWxlLm1hZT4nLCAnLW9tYWUnLCAnPG91dGZpbGUubWFlPic=

>  <r_lp_tautomer_probability>  (43) 
1

>  <r_epik_Ionization_Penalty>  (43) 
0.000263394

>  <r_epik_Ionization_Penalty_Charging>  (43) 
1.50262e-08

>  <r_epik_Ionization_Penalty_Neutral>  (43) 
0.000263379

>  <r_epik_State_Penalty>  (43) 
-0

>  <r_epik_Charging_Adjusted_Penalty>  (43) 
1.50262e-08

>  <i_epik_Tot_Q>  (43) 
0

>  <i_epik_Tot_abs_Q>  (43) 
0

>  <s_lp_Force_Field>  (43) 
OPLS3e

>  <r_lp_Energy>  (43) 
37.5806

>  <b_lp_Chiralities_Consistent>  (43) 
1

>  <s_lp_Variant>  (43) 
14:0-1

>  <s_i_glide_gridfile>  (43) 
pfpi4k_grid

>  <i_i_glide_lignum>  (43) 
18

>  <i_i_glide_rotatable_bonds>  (43) 
1

>  <r_i_docking_score>  (43) 
-6.54343

>  <r_i_glide_ligand_efficiency>  (43) 
-0.408964

>  <r_i_glide_ligand_efficiency_sa>  (43) 
-1.03053

>  <r_i_glide_ligand_efficiency_ln>  (43) 
-1.73447

>  <r_i_glide_gscore>  (43) 
-6.54343

>  <r_i_glide_lipo>  (43) 
-2.2014

>  <r_i_glide_hbond>  (43) 
0

>  <r_i_glide_metal>  (43) 
-0

>  <r_i_glide_rewards>  (43) 
-3.13501

>  <r_i_glide_evdw>  (43) 
-29.3652

>  <r_i_glide_ecoul>  (43) 
-0.390256

>  <r_i_glide_erotb>  (43) 
0.319779

>  <r_i_glide_esite>  (43) 
0

>  <r_i_glide_emodel>  (43) 
-41.0077

>  <r_i_glide_energy>  (43) 
-29.7555

>  <r_i_glide_einternal>  (43) 
0.470625

>  <r_i_glide_intrahb_reward>  (43) 
-0

>  <i_i_glide_confnum>  (43) 
1

>  <i_i_glide_posenum>  (43) 
22

>  <r_i_glide_eff_state_penalty>  (43) 
0

>  <ligand_id>  (43) 
14

>  <original_smiles>  (43) 
Cn1nccc1-n1ccc2sccc2c1=O

>  <smiles>  (43) 
[H]c1nn(C([H])([H])[H])c(-n2c([H])c([H])c3sc([H])c([H])c3c2=O)c1[H]

$$$$
14:0:1
     RDKit          3D

 25 27  0  0  1  0  0  0  0  0999 V2000
  -11.6449   -7.5682   -7.8754 C   0  0  0  0  0  0  0  0  0  0  0  0
  -10.6668   -8.2035   -8.7525 N   0  0  0  0  0  0  0  0  0  0  0  0
  -11.1326   -8.9523   -9.7804 N   0  0  0  0  0  0  0  0  0  0  0  0
  -10.0610   -9.4738  -10.3653 C   0  0  0  0  0  0  0  0  0  0  0  0
   -8.8527   -9.0850   -9.7157 C   0  0  0  0  0  0  0  0  0  0  0  0
   -9.2834   -8.2600   -8.7167 C   0  0  0  0  0  0  0  0  0  0  0  0
   -8.4853   -7.6415   -7.7983 N   0  0  0  0  0  0  0  0  0  0  0  0
   -7.4939   -8.4526   -7.1632 C   0  0  0  0  0  0  0  0  0  0  0  0
   -6.6471   -7.9447   -6.2490 C   0  0  0  0  0  0  0  0  0  0  0  0
   -6.7620   -6.5802   -5.8914 C   0  0  0  0  0  0  0  0  0  0  0  0
   -5.7980   -5.7291   -4.7164 S   0  0  0  0  0  0  0  0  0  0  0  0
   -6.6880   -4.2604   -5.0395 C   0  0  0  0  0  0  0  0  0  0  0  0
   -7.6628   -4.4461   -5.9822 C   0  0  0  0  0  0  0  0  0  0  0  0
   -7.6905   -5.7740   -6.4868 C   0  0  0  0  0  0  0  0  0  0  0  0
   -8.5861   -6.2947   -7.5671 C   0  0  0  0  0  0  0  0  0  0  0  0
   -9.3542   -5.5393   -8.1869 O   0  0  0  0  0  0  0  0  0  0  0  0
  -11.1837   -6.8090   -7.2437 H   0  0  0  0  0  0  0  0  0  0  0  0
  -12.1144   -8.3163   -7.2313 H   0  0  0  0  0  0  0  0  0  0  0  0
  -12.4174   -7.0778   -8.4684 H   0  0  0  0  0  0  0  0  0  0  0  0
  -10.1918  -10.1205  -11.2268 H   0  0  0  0  0  0  0  0  0  0  0  0
   -7.8406   -9.3671   -9.9567 H   0  0  0  0  0  0  0  0  0  0  0  0
   -7.4883   -9.4925   -7.4650 H   0  0  0  0  0  0  0  0  0  0  0  0
   -5.8991   -8.5592   -5.7684 H   0  0  0  0  0  0  0  0  0  0  0  0
   -6.4265   -3.3531   -4.5152 H   0  0  0  0  0  0  0  0  0  0  0  0
   -8.3312   -3.6796   -6.3435 H   0  0  0  0  0  0  0  0  0  0  0  0
  1  2  1  0
  1 17  1  0
  1 18  1  0
  1 19  1  0
  2  6  1  0
  2  3  1  0
  3  4  2  0
  4  5  1  0
  4 20  1  0
  5  6  2  0
  5 21  1  0
  6  7  1  0
  7 15  1  0
  7  8  1  0
  8  9  2  0
  8 22  1  0
  9 10  1  0
  9 23  1  0
 10 14  2  0
 10 11  1  0
 11 12  1  0
 12 13  2  0
 12 24  1  0
 13 14  1  0
 13 25  1  0
 14 15  1  0
 15 16  2  0
M  END
>  <i_m_ct_stereo_status>  (44) 
1

>  <s_m_source_file>  (44) 
/var/tmp/pbs.5076255.sched01/tmp25ygy55i/01wbi4d2b.sdf

>  <i_m_source_file_index>  (44) 
18

>  <i_lp_mmshare_version>  (44) 
48012

>  <i_f3d_flags>  (44) 
0

>  <s_epik_input>  (44) 
W0NIM11uMW5bY0hdW2NIXWMxLW4oW2NIXVtjSF0yKWMoPU8pYyhjMjMpW2NIXVtjSF1zMw==

>  <s_epik_cmdline>  (44) 
J2VwaWtfcHl0aG9uJywgJy1waHQnLCAnMi4wJywgJy1waCcsICc3LjAnLCAnLXRuJywgJzgnLCAnLW1hJywgJzIwMCcsICctaW1hZScsICc8aW5maWxlLm1hZT4nLCAnLW9tYWUnLCAnPG91dGZpbGUubWFlPic=

>  <r_lp_tautomer_probability>  (44) 
1

>  <r_epik_Ionization_Penalty>  (44) 
0.000263394

>  <r_epik_Ionization_Penalty_Charging>  (44) 
1.50262e-08

>  <r_epik_Ionization_Penalty_Neutral>  (44) 
0.000263379

>  <r_epik_State_Penalty>  (44) 
-0

>  <r_epik_Charging_Adjusted_Penalty>  (44) 
1.50262e-08

>  <i_epik_Tot_Q>  (44) 
0

>  <i_epik_Tot_abs_Q>  (44) 
0

>  <s_lp_Force_Field>  (44) 
OPLS3e

>  <r_lp_Energy>  (44) 
37.5806

>  <b_lp_Chiralities_Consistent>  (44) 
1

>  <s_lp_Variant>  (44) 
14:0-1

>  <s_i_glide_gridfile>  (44) 
pfpi4k_grid

>  <i_i_glide_lignum>  (44) 
18

>  <i_i_glide_rotatable_bonds>  (44) 
1

>  <r_i_docking_score>  (44) 
-5.81634

>  <r_i_glide_ligand_efficiency>  (44) 
-0.363521

>  <r_i_glide_ligand_efficiency_sa>  (44) 
-0.916016

>  <r_i_glide_ligand_efficiency_ln>  (44) 
-1.54174

>  <r_i_glide_gscore>  (44) 
-5.81634

>  <r_i_glide_lipo>  (44) 
-2.11798

>  <r_i_glide_hbond>  (44) 
0

>  <r_i_glide_metal>  (44) 
-0

>  <r_i_glide_rewards>  (44) 
-2.52276

>  <r_i_glide_evdw>  (44) 
-25.836

>  <r_i_glide_ecoul>  (44) 
-1.30324

>  <r_i_glide_erotb>  (44) 
0.319779

>  <r_i_glide_esite>  (44) 
-0.00809013

>  <r_i_glide_emodel>  (44) 
-37.488

>  <r_i_glide_energy>  (44) 
-27.1392

>  <r_i_glide_einternal>  (44) 
0.0803879

>  <r_i_glide_intrahb_reward>  (44) 
-0

>  <i_i_glide_confnum>  (44) 
5

>  <i_i_glide_posenum>  (44) 
25

>  <r_i_glide_eff_state_penalty>  (44) 
0

>  <ligand_id>  (44) 
14

>  <original_smiles>  (44) 
Cn1nccc1-n1ccc2sccc2c1=O

>  <smiles>  (44) 
[H]c1nn(C([H])([H])[H])c(-n2c([H])c([H])c3sc([H])c([H])c3c2=O)c1[H]

$$$$
14:0:2
     RDKit          3D

 25 27  0  0  1  0  0  0  0  0999 V2000
   -4.7326  -11.4633   -5.5047 C   0  0  0  0  0  0  0  0  0  0  0  0
   -5.4620  -11.2573   -6.7484 N   0  0  0  0  0  0  0  0  0  0  0  0
   -5.5612  -12.3059   -7.5998 N   0  0  0  0  0  0  0  0  0  0  0  0
   -6.2440  -11.8494   -8.6389 C   0  0  0  0  0  0  0  0  0  0  0  0
   -6.6012  -10.4819   -8.5005 C   0  0  0  0  0  0  0  0  0  0  0  0
   -6.0708  -10.1323   -7.2853 C   0  0  0  0  0  0  0  0  0  0  0  0
   -6.1024   -8.8869   -6.7195 N   0  0  0  0  0  0  0  0  0  0  0  0
   -4.9270   -8.4559   -6.0470 C   0  0  0  0  0  0  0  0  0  0  0  0
   -4.8422   -7.2850   -5.4090 C   0  0  0  0  0  0  0  0  0  0  0  0
   -5.9506   -6.4099   -5.4255 C   0  0  0  0  0  0  0  0  0  0  0  0
   -6.0240   -4.8215   -4.7304 S   0  0  0  0  0  0  0  0  0  0  0  0
   -7.6534   -4.6293   -5.3143 C   0  0  0  0  0  0  0  0  0  0  0  0
   -8.0758   -5.7223   -6.0246 C   0  0  0  0  0  0  0  0  0  0  0  0
   -7.0911   -6.7452   -6.0946 C   0  0  0  0  0  0  0  0  0  0  0  0
   -7.2099   -8.0635   -6.7998 C   0  0  0  0  0  0  0  0  0  0  0  0
   -8.2491   -8.3605   -7.3976 O   0  0  0  0  0  0  0  0  0  0  0  0
   -4.9832  -10.6942   -4.7731 H   0  0  0  0  0  0  0  0  0  0  0  0
   -3.6595  -11.4185   -5.6971 H   0  0  0  0  0  0  0  0  0  0  0  0
   -4.9826  -12.4250   -5.0566 H   0  0  0  0  0  0  0  0  0  0  0  0
   -6.4326  -12.5173   -9.4704 H   0  0  0  0  0  0  0  0  0  0  0  0
   -7.1329   -9.8499   -9.1964 H   0  0  0  0  0  0  0  0  0  0  0  0
   -4.0689   -9.1215   -6.0964 H   0  0  0  0  0  0  0  0  0  0  0  0
   -3.9303   -7.0035   -4.9140 H   0  0  0  0  0  0  0  0  0  0  0  0
   -8.1895   -3.7193   -5.0994 H   0  0  0  0  0  0  0  0  0  0  0  0
   -9.0444   -5.8307   -6.4853 H   0  0  0  0  0  0  0  0  0  0  0  0
  1  2  1  0
  1 17  1  0
  1 18  1  0
  1 19  1  0
  2  6  1  0
  2  3  1  0
  3  4  2  0
  4  5  1  0
  4 20  1  0
  5  6  2  0
  5 21  1  0
  6  7  1  0
  7 15  1  0
  7  8  1  0
  8  9  2  0
  8 22  1  0
  9 10  1  0
  9 23  1  0
 10 14  2  0
 10 11  1  0
 11 12  1  0
 12 13  2  0
 12 24  1  0
 13 14  1  0
 13 25  1  0
 14 15  1  0
 15 16  2  0
M  END
>  <i_m_ct_stereo_status>  (45) 
1

>  <s_m_source_file>  (45) 
/var/tmp/pbs.5076255.sched01/tmp25ygy55i/01wbi4d2b.sdf

>  <i_m_source_file_index>  (45) 
18

>  <i_lp_mmshare_version>  (45) 
48012

>  <i_f3d_flags>  (45) 
0

>  <s_epik_input>  (45) 
W0NIM11uMW5bY0hdW2NIXWMxLW4oW2NIXVtjSF0yKWMoPU8pYyhjMjMpW2NIXVtjSF1zMw==

>  <s_epik_cmdline>  (45) 
J2VwaWtfcHl0aG9uJywgJy1waHQnLCAnMi4wJywgJy1waCcsICc3LjAnLCAnLXRuJywgJzgnLCAnLW1hJywgJzIwMCcsICctaW1hZScsICc8aW5maWxlLm1hZT4nLCAnLW9tYWUnLCAnPG91dGZpbGUubWFlPic=

>  <r_lp_tautomer_probability>  (45) 
1

>  <r_epik_Ionization_Penalty>  (45) 
0.000263394

>  <r_epik_Ionization_Penalty_Charging>  (45) 
1.50262e-08

>  <r_epik_Ionization_Penalty_Neutral>  (45) 
0.000263379

>  <r_epik_State_Penalty>  (45) 
-0

>  <r_epik_Charging_Adjusted_Penalty>  (45) 
1.50262e-08

>  <i_epik_Tot_Q>  (45) 
0

>  <i_epik_Tot_abs_Q>  (45) 
0

>  <s_lp_Force_Field>  (45) 
OPLS3e

>  <r_lp_Energy>  (45) 
37.5806

>  <b_lp_Chiralities_Consistent>  (45) 
1

>  <s_lp_Variant>  (45) 
14:0-1

>  <s_i_glide_gridfile>  (45) 
pfpi4k_grid

>  <i_i_glide_lignum>  (45) 
18

>  <i_i_glide_rotatable_bonds>  (45) 
1

>  <r_i_docking_score>  (45) 
-5.39736

>  <r_i_glide_ligand_efficiency>  (45) 
-0.337335

>  <r_i_glide_ligand_efficiency_sa>  (45) 
-0.850032

>  <r_i_glide_ligand_efficiency_ln>  (45) 
-1.43068

>  <r_i_glide_gscore>  (45) 
-5.39736

>  <r_i_glide_lipo>  (45) 
-2.36023

>  <r_i_glide_hbond>  (45) 
0

>  <r_i_glide_metal>  (45) 
-0

>  <r_i_glide_rewards>  (45) 
-1.84736

>  <r_i_glide_evdw>  (45) 
-28.5622

>  <r_i_glide_ecoul>  (45) 
-0.542944

>  <r_i_glide_erotb>  (45) 
0.319779

>  <r_i_glide_esite>  (45) 
0

>  <r_i_glide_emodel>  (45) 
-37.7698

>  <r_i_glide_energy>  (45) 
-29.1052

>  <r_i_glide_einternal>  (45) 
1.5956

>  <r_i_glide_intrahb_reward>  (45) 
-0

>  <i_i_glide_confnum>  (45) 
5

>  <i_i_glide_posenum>  (45) 
32

>  <r_i_glide_eff_state_penalty>  (45) 
0

>  <ligand_id>  (45) 
14

>  <original_smiles>  (45) 
Cn1nccc1-n1ccc2sccc2c1=O

>  <smiles>  (45) 
[H]c1nn(C([H])([H])[H])c(-n2c([H])c([H])c3sc([H])c([H])c3c2=O)c1[H]

$$$$
15:0:0
     RDKit          3D

 75 80  0  0  1  0  0  0  0  0999 V2000
    3.0695   -9.3393    5.2215 C   0  0  0  0  0  0  0  0  0  0  0  0
    1.7744   -9.1739    4.4000 C   0  0  2  0  0  0  0  0  0  0  0  0
    1.9889   -9.4695    2.9128 C   0  0  0  0  0  0  0  0  0  0  0  0
    2.8812   -8.4062    2.2508 C   0  0  0  0  0  0  0  0  0  0  0  0
    2.4089   -6.9182    2.4074 C   0  0  1  0  0  0  0  0  0  0  0  0
    1.1703   -6.7703    1.4711 C   0  0  0  0  0  0  0  0  0  0  0  0
    1.9150   -6.6604    3.8628 C   0  0  0  0  0  0  0  0  0  0  0  0
    2.1582   -5.4817    4.4906 C   0  0  0  0  0  0  0  0  0  0  0  0
    1.6008   -5.0335    5.8374 C   0  0  0  0  0  0  0  0  0  0  0  0
    1.3125   -3.5708    5.6214 C   0  0  2  0  0  0  0  0  0  0  0  0
    0.6216   -3.2070    4.4086 O   0  0  0  0  0  0  0  0  0  0  0  0
    2.0585   -3.1149    4.4151 C   0  0  2  0  0  0  0  0  0  0  0  0
    2.8572   -4.2832    3.8655 C   0  0  2  0  0  0  0  0  0  0  0  0
    3.0576   -4.4024    2.3246 C   0  0  1  0  0  0  0  0  0  0  0  0
    3.7592   -3.1316    1.6388 C   0  0  1  0  0  0  0  0  0  0  0  0
    2.6388   -2.0487    1.5100 C   0  0  0  0  0  0  0  0  0  0  0  0
    4.9307   -2.5680    2.5062 C   0  0  0  0  0  0  0  0  0  0  0  0
    5.7132   -1.3991    1.8819 C   0  0  0  0  0  0  0  0  0  0  0  0
    6.2797   -1.7448    0.4995 C   0  0  1  0  0  0  0  0  0  0  0  0
    7.3494   -2.6570    0.6562 O   0  0  0  0  0  0  0  0  0  0  0  0
    5.1984   -2.2811   -0.4796 C   0  0  0  0  0  0  0  0  0  0  0  0
    4.3275   -1.0812   -0.9335 C   0  0  0  0  0  0  0  0  0  0  0  0
    5.8843   -2.7576   -1.7907 C   0  0  0  0  0  0  0  0  0  0  0  0
    4.3158   -3.4252    0.1846 C   0  0  1  0  0  0  0  0  0  0  0  0
    4.9829   -4.8127    0.1301 C   0  0  0  0  0  0  0  0  0  0  0  0
    3.9934   -5.9112    0.5106 C   0  0  1  0  0  0  0  0  0  0  0  0
    4.6131   -7.1187    0.1225 O   0  0  0  0  0  0  0  0  0  0  0  0
    3.5794   -5.8701    2.0192 C   0  0  2  0  0  0  0  0  0  0  0  0
    4.8545   -6.2002    2.8696 C   0  0  0  0  0  0  0  0  0  0  0  0
    1.1425   -7.7796    4.5882 C   0  0  1  0  0  0  0  0  0  0  0  0
   -0.3739   -7.7562    4.3033 C   0  0  0  0  0  0  0  0  0  0  0  0
    3.8155   -8.5879    4.9646 H   0  0  0  0  0  0  0  0  0  0  0  0
    3.5136  -10.3202    5.0546 H   0  0  0  0  0  0  0  0  0  0  0  0
    2.8706   -9.2515    6.2902 H   0  0  0  0  0  0  0  0  0  0  0  0
    1.0750   -9.9181    4.7870 H   0  0  0  0  0  0  0  0  0  0  0  0
    2.4445  -10.4525    2.7968 H   0  0  0  0  0  0  0  0  0  0  0  0
    1.0288   -9.5434    2.4043 H   0  0  0  0  0  0  0  0  0  0  0  0
    3.8796   -8.5564    2.6537 H   0  0  0  0  0  0  0  0  0  0  0  0
    2.9561   -8.6691    1.1944 H   0  0  0  0  0  0  0  0  0  0  0  0
    1.4214   -6.7997    0.4161 H   0  0  0  0  0  0  0  0  0  0  0  0
    0.6011   -5.8644    1.6606 H   0  0  0  0  0  0  0  0  0  0  0  0
    0.4674   -7.5896    1.5805 H   0  0  0  0  0  0  0  0  0  0  0  0
    0.7004   -5.5503    6.1621 H   0  0  0  0  0  0  0  0  0  0  0  0
    2.3684   -5.1335    6.6083 H   0  0  0  0  0  0  0  0  0  0  0  0
    1.1654   -2.9092    6.4713 H   0  0  0  0  0  0  0  0  0  0  0  0
    2.4723   -2.1089    4.3859 H   0  0  0  0  0  0  0  0  0  0  0  0
    3.8331   -4.2290    4.3498 H   0  0  0  0  0  0  0  0  0  0  0  0
    2.0610   -4.3800    1.8955 H   0  0  0  0  0  0  0  0  0  0  0  0
    2.9660   -1.0489    1.7844 H   0  0  0  0  0  0  0  0  0  0  0  0
    1.7565   -2.2379    2.1151 H   0  0  0  0  0  0  0  0  0  0  0  0
    2.2379   -1.9990    0.4996 H   0  0  0  0  0  0  0  0  0  0  0  0
    4.5660   -2.2354    3.4770 H   0  0  0  0  0  0  0  0  0  0  0  0
    5.6526   -3.3493    2.7160 H   0  0  0  0  0  0  0  0  0  0  0  0
    5.0852   -0.5150    1.8148 H   0  0  0  0  0  0  0  0  0  0  0  0
    6.5269   -1.1047    2.5427 H   0  0  0  0  0  0  0  0  0  0  0  0
    6.7237   -0.8402    0.0829 H   0  0  0  0  0  0  0  0  0  0  0  0
    7.0107   -3.4378    1.0647 H   0  0  0  0  0  0  0  0  0  0  0  0
    3.4580   -1.4061   -1.5057 H   0  0  0  0  0  0  0  0  0  0  0  0
    4.8893   -0.3903   -1.5621 H   0  0  0  0  0  0  0  0  0  0  0  0
    3.9673   -0.4775   -0.1048 H   0  0  0  0  0  0  0  0  0  0  0  0
    5.1602   -3.1820   -2.4868 H   0  0  0  0  0  0  0  0  0  0  0  0
    6.6554   -3.5076   -1.6184 H   0  0  0  0  0  0  0  0  0  0  0  0
    6.3895   -1.9370   -2.2986 H   0  0  0  0  0  0  0  0  0  0  0  0
    3.4564   -3.5381   -0.4768 H   0  0  0  0  0  0  0  0  0  0  0  0
    5.3107   -5.0383   -0.8849 H   0  0  0  0  0  0  0  0  0  0  0  0
    5.8766   -4.8609    0.7481 H   0  0  0  0  0  0  0  0  0  0  0  0
    3.1275   -5.7743   -0.1316 H   0  0  0  0  0  0  0  0  0  0  0  0
    4.6556   -7.1319   -0.8217 H   0  0  0  0  0  0  0  0  0  0  0  0
    5.5843   -5.4015    2.8898 H   0  0  0  0  0  0  0  0  0  0  0  0
    5.4001   -7.0647    2.4954 H   0  0  0  0  0  0  0  0  0  0  0  0
    4.6253   -6.4307    3.9089 H   0  0  0  0  0  0  0  0  0  0  0  0
    1.2203   -7.5898    5.6582 H   0  0  0  0  0  0  0  0  0  0  0  0
   -0.7854   -6.7552    4.4283 H   0  0  0  0  0  0  0  0  0  0  0  0
   -0.9021   -8.4134    4.9948 H   0  0  0  0  0  0  0  0  0  0  0  0
   -0.6319   -8.1016    3.3055 H   0  0  0  0  0  0  0  0  0  0  0  0
  1  2  1  0
  1 32  1  0
  1 33  1  0
  1 34  1  0
  2 30  1  0
  2  3  1  0
  2 35  1  1
  3  4  1  0
  3 36  1  0
  3 37  1  0
  4  5  1  0
  4 38  1  0
  4 39  1  0
  5 28  1  0
  5  6  1  6
  5  7  1  0
  6 40  1  0
  6 41  1  0
  6 42  1  0
  7  8  2  0
  7 30  1  0
  8 13  1  0
  8  9  1  0
  9 10  1  0
  9 43  1  0
  9 44  1  0
 10 12  1  0
 10 11  1  0
 10 45  1  1
 11 12  1  0
 12 13  1  0
 12 46  1  1
 13 14  1  0
 13 47  1  1
 14 28  1  0
 14 15  1  0
 14 48  1  6
 15 24  1  0
 15 16  1  6
 15 17  1  0
 16 49  1  0
 16 50  1  0
 16 51  1  0
 17 18  1  0
 17 52  1  0
 17 53  1  0
 18 19  1  0
 18 54  1  0
 18 55  1  0
 19 20  1  0
 19 21  1  0
 19 56  1  6
 20 57  1  0
 21 22  1  0
 21 23  1  0
 21 24  1  0
 22 58  1  0
 22 59  1  0
 22 60  1  0
 23 61  1  0
 23 62  1  0
 23 63  1  0
 24 25  1  0
 24 64  1  6
 25 26  1  0
 25 65  1  0
 25 66  1  0
 26 27  1  0
 26 28  1  0
 26 67  1  6
 27 68  1  0
 28 29  1  1
 29 69  1  0
 29 70  1  0
 29 71  1  0
 30 31  1  0
 30 72  1  1
 31 73  1  0
 31 74  1  0
 31 75  1  0
M  END
>  <i_m_ct_stereo_status>  (46) 
1

>  <s_m_source_file>  (46) 
/var/tmp/pbs.5076255.sched01/tmp25ygy55i/01wbi4d2b.sdf

>  <i_m_source_file_index>  (46) 
19

>  <i_lp_mmshare_version>  (46) 
48012

>  <i_f3d_flags>  (46) 
0

>  <s_epik_input>  (46) 
W0NIMl0xW0NIMl1bQ0BASF0oW0NIM10pW0NASF0oW0NIM10pQyhbQ0BdMTJbQ0gzXSk9QzNbQ0BIXShbQ0BASF00W0NAQEhdKE80KVtDSDJdMylbQ0BIXTVbQ0BdNihbQ0gzXSlbQ0BASF0oQyhbQ0gzXSkoW0NIM10pW0NASF0oW09IXSlbQ0gyXVtDSDJdNilbQ0gyXVtDQEBIXShbT0hdKVtDQF0yNVtDSDNd

>  <s_epik_cmdline>  (46) 
J2VwaWtfcHl0aG9uJywgJy1waHQnLCAnMi4wJywgJy1waCcsICc3LjAnLCAnLXRuJywgJzgnLCAnLW1hJywgJzIwMCcsICctaW1hZScsICc8aW5maWxlLm1hZT4nLCAnLW9tYWUnLCAnPG91dGZpbGUubWFlPic=

>  <r_lp_tautomer_probability>  (46) 
1

>  <r_epik_Ionization_Penalty>  (46) 
4.24134e-06

>  <r_epik_Ionization_Penalty_Charging>  (46) 
0

>  <r_epik_Ionization_Penalty_Neutral>  (46) 
4.24134e-06

>  <r_epik_State_Penalty>  (46) 
-0

>  <r_epik_Charging_Adjusted_Penalty>  (46) 
0

>  <i_epik_Tot_Q>  (46) 
0

>  <i_epik_Tot_abs_Q>  (46) 
0

>  <s_lp_Force_Field>  (46) 
OPLS3e

>  <r_lp_Energy>  (46) 
85.7513

>  <b_lp_Chiralities_Consistent>  (46) 
1

>  <s_lp_Variant>  (46) 
15:0-1

>  <s_i_glide_gridfile>  (46) 
pfpi4k_grid

>  <i_i_glide_lignum>  (46) 
19

>  <i_i_glide_rotatable_bonds>  (46) 
2

>  <r_i_docking_score>  (46) 
-2.64267

>  <r_i_glide_ligand_efficiency>  (46) 
-0.0852473

>  <r_i_glide_ligand_efficiency_sa>  (46) 
-0.267794

>  <r_i_glide_ligand_efficiency_ln>  (46) 
-0.596002

>  <r_i_glide_gscore>  (46) 
-2.64267

>  <r_i_glide_lipo>  (46) 
-0.465453

>  <r_i_glide_hbond>  (46) 
0

>  <r_i_glide_metal>  (46) 
-0

>  <r_i_glide_rewards>  (46) 
-0.486497

>  <r_i_glide_evdw>  (46) 
-32.0112

>  <r_i_glide_ecoul>  (46) 
-0.601053

>  <r_i_glide_erotb>  (46) 
0

>  <r_i_glide_esite>  (46) 
0

>  <r_i_glide_emodel>  (46) 
-37.6801

>  <r_i_glide_energy>  (46) 
-32.6122

>  <r_i_glide_einternal>  (46) 
0.350754

>  <r_i_glide_intrahb_reward>  (46) 
-0

>  <i_i_glide_confnum>  (46) 
2

>  <i_i_glide_posenum>  (46) 
35

>  <r_i_glide_eff_state_penalty>  (46) 
0

>  <ligand_id>  (46) 
15

>  <original_smiles>  (46) 
CC1CCC2(C)C(=C3CC4OC4C3C3C4(C)CCC(O)C(C)(C)C4CC(O)C32C)C1C

>  <smiles>  (46) 
[H]OC1([H])C([H])([H])C([H])([H])C2(C([H])([H])[H])C([H])(C([H])([H])C([H])(O[H])C3(C([H])([H])[H])C2([H])C2([H])C(=C4C([H])(C([H])([H])[H])C([H])(C([H])([H])[H])C([H])([H])C([H])([H])C43C([H])([H])[H])C([H])([H])C3([H])OC32[H])C1(C([H])([H])[H])C([H])([H])[H]

$$$$
15:0:1
     RDKit          3D

 75 80  0  0  1  0  0  0  0  0999 V2000
    5.2828   -8.1642    5.9945 C   0  0  0  0  0  0  0  0  0  0  0  0
    3.7689   -8.1614    5.7057 C   0  0  2  0  0  0  0  0  0  0  0  0
    3.4384   -8.7814    4.3472 C   0  0  0  0  0  0  0  0  0  0  0  0
    3.9467   -7.9056    3.1929 C   0  0  0  0  0  0  0  0  0  0  0  0
    3.4647   -6.4132    3.1947 C   0  0  1  0  0  0  0  0  0  0  0  0
    1.9630   -6.4577    2.7747 C   0  0  0  0  0  0  0  0  0  0  0  0
    3.5298   -5.8309    4.6367 C   0  0  0  0  0  0  0  0  0  0  0  0
    3.9095   -4.5503    4.8640 C   0  0  0  0  0  0  0  0  0  0  0  0
    3.8578   -3.8079    6.1937 C   0  0  0  0  0  0  0  0  0  0  0  0
    3.4099   -2.4251    5.7957 C   0  0  2  0  0  0  0  0  0  0  0  0
    2.3011   -2.3238    4.8819 O   0  0  0  0  0  0  0  0  0  0  0  0
    3.6278   -2.2590    4.3351 C   0  0  2  0  0  0  0  0  0  0  0  0
    4.2445   -3.5313    3.7817 C   0  0  2  0  0  0  0  0  0  0  0  0
    3.8630   -3.9914    2.3442 C   0  0  1  0  0  0  0  0  0  0  0  0
    4.1746   -2.9168    1.1932 C   0  0  1  0  0  0  0  0  0  0  0  0
    3.0162   -1.8702    1.2705 C   0  0  0  0  0  0  0  0  0  0  0  0
    5.5410   -2.1934    1.4199 C   0  0  0  0  0  0  0  0  0  0  0  0
    5.9555   -1.2046    0.3182 C   0  0  0  0  0  0  0  0  0  0  0  0
    5.9927   -1.8589   -1.0676 C   0  0  1  0  0  0  0  0  0  0  0  0
    7.1389   -2.6876   -1.1346 O   0  0  0  0  0  0  0  0  0  0  0  0
    4.6750   -2.5853   -1.4360 C   0  0  0  0  0  0  0  0  0  0  0  0
    3.6235   -1.4999   -1.7810 C   0  0  0  0  0  0  0  0  0  0  0  0
    4.8575   -3.3394   -2.7792 C   0  0  0  0  0  0  0  0  0  0  0  0
    4.1755   -3.5376   -0.2652 C   0  0  1  0  0  0  0  0  0  0  0  0
    4.8704   -4.9146   -0.2666 C   0  0  0  0  0  0  0  0  0  0  0  0
    4.1554   -5.8841    0.6794 C   0  0  1  0  0  0  0  0  0  0  0  0
    4.6085   -7.1870    0.3827 O   0  0  0  0  0  0  0  0  0  0  0  0
    4.3333   -5.4984    2.1837 C   0  0  2  0  0  0  0  0  0  0  0  0
    5.8536   -5.6528    2.5401 C   0  0  0  0  0  0  0  0  0  0  0  0
    3.1587   -6.7508    5.8176 C   0  0  1  0  0  0  0  0  0  0  0  0
    1.6476   -6.7671    6.1233 C   0  0  0  0  0  0  0  0  0  0  0  0
    5.8267   -7.5007    5.3229 H   0  0  0  0  0  0  0  0  0  0  0  0
    5.6983   -9.1648    5.8815 H   0  0  0  0  0  0  0  0  0  0  0  0
    5.4883   -7.8376    7.0143 H   0  0  0  0  0  0  0  0  0  0  0  0
    3.3113   -8.7904    6.4716 H   0  0  0  0  0  0  0  0  0  0  0  0
    3.8834   -9.7733    4.2776 H   0  0  0  0  0  0  0  0  0  0  0  0
    2.3659   -8.9489    4.2637 H   0  0  0  0  0  0  0  0  0  0  0  0
    5.0305   -7.9808    3.2090 H   0  0  0  0  0  0  0  0  0  0  0  0
    3.6331   -8.4016    2.2735 H   0  0  0  0  0  0  0  0  0  0  0  0
    1.8161   -6.7382    1.7346 H   0  0  0  0  0  0  0  0  0  0  0  0
    1.4338   -5.5241    2.9576 H   0  0  0  0  0  0  0  0  0  0  0  0
    1.4089   -7.2153    3.3171 H   0  0  0  0  0  0  0  0  0  0  0  0
    3.1745   -4.2255    6.9305 H   0  0  0  0  0  0  0  0  0  0  0  0
    4.8587   -3.7471    6.6253 H   0  0  0  0  0  0  0  0  0  0  0  0
    3.5449   -1.5905    6.4801 H   0  0  0  0  0  0  0  0  0  0  0  0
    3.9343   -1.2901    3.9403 H   0  0  0  0  0  0  0  0  0  0  0  0
    5.3228   -3.3875    3.8406 H   0  0  0  0  0  0  0  0  0  0  0  0
    2.7784   -4.0454    2.3260 H   0  0  0  0  0  0  0  0  0  0  0  0
    3.3522   -0.8397    1.1813 H   0  0  0  0  0  0  0  0  0  0  0  0
    2.4381   -1.9052    2.1897 H   0  0  0  0  0  0  0  0  0  0  0  0
    2.2670   -2.0413    0.5006 H   0  0  0  0  0  0  0  0  0  0  0  0
    5.5414   -1.6483    2.3623 H   0  0  0  0  0  0  0  0  0  0  0  0
    6.3419   -2.9202    1.4938 H   0  0  0  0  0  0  0  0  0  0  0  0
    5.2905   -0.3448    0.3052 H   0  0  0  0  0  0  0  0  0  0  0  0
    6.9373   -0.7943    0.5543 H   0  0  0  0  0  0  0  0  0  0  0  0
    6.1532   -1.0792   -1.8108 H   0  0  0  0  0  0  0  0  0  0  0  0
    7.1981   -3.0600   -2.0029 H   0  0  0  0  0  0  0  0  0  0  0  0
    2.6287   -1.9296   -1.9136 H   0  0  0  0  0  0  0  0  0  0  0  0
    3.8695   -0.9667   -2.7007 H   0  0  0  0  0  0  0  0  0  0  0  0
    3.5471   -0.7273   -1.0218 H   0  0  0  0  0  0  0  0  0  0  0  0
    3.9479   -3.8766   -3.0494 H   0  0  0  0  0  0  0  0  0  0  0  0
    5.6737   -4.0586   -2.7552 H   0  0  0  0  0  0  0  0  0  0  0  0
    5.0833   -2.6530   -3.5966 H   0  0  0  0  0  0  0  0  0  0  0  0
    3.1429   -3.7753   -0.5211 H   0  0  0  0  0  0  0  0  0  0  0  0
    4.8176   -5.3687   -1.2552 H   0  0  0  0  0  0  0  0  0  0  0  0
    5.9307   -4.8237   -0.0376 H   0  0  0  0  0  0  0  0  0  0  0  0
    3.1074   -5.8523    0.3901 H   0  0  0  0  0  0  0  0  0  0  0  0
    5.5095   -7.2665    0.6568 H   0  0  0  0  0  0  0  0  0  0  0  0
    6.4815   -4.8805    2.1144 H   0  0  0  0  0  0  0  0  0  0  0  0
    6.2833   -6.5872    2.1864 H   0  0  0  0  0  0  0  0  0  0  0  0
    6.0413   -5.6395    3.6128 H   0  0  0  0  0  0  0  0  0  0  0  0
    3.6136   -6.3293    6.7124 H   0  0  0  0  0  0  0  0  0  0  0  0
    1.2431   -5.7568    6.1756 H   0  0  0  0  0  0  0  0  0  0  0  0
    1.4595   -7.2423    7.0863 H   0  0  0  0  0  0  0  0  0  0  0  0
    1.0623   -7.3199    5.3926 H   0  0  0  0  0  0  0  0  0  0  0  0
  1  2  1  0
  1 32  1  0
  1 33  1  0
  1 34  1  0
  2 30  1  0
  2  3  1  0
  2 35  1  1
  3  4  1  0
  3 36  1  0
  3 37  1  0
  4  5  1  0
  4 38  1  0
  4 39  1  0
  5 28  1  0
  5  6  1  6
  5  7  1  0
  6 40  1  0
  6 41  1  0
  6 42  1  0
  7  8  2  0
  7 30  1  0
  8 13  1  0
  8  9  1  0
  9 10  1  0
  9 43  1  0
  9 44  1  0
 10 12  1  0
 10 11  1  0
 10 45  1  1
 11 12  1  0
 12 13  1  0
 12 46  1  1
 13 14  1  0
 13 47  1  6
 14 28  1  0
 14 15  1  0
 14 48  1  1
 15 24  1  0
 15 16  1  6
 15 17  1  0
 16 49  1  0
 16 50  1  0
 16 51  1  0
 17 18  1  0
 17 52  1  0
 17 53  1  0
 18 19  1  0
 18 54  1  0
 18 55  1  0
 19 20  1  0
 19 21  1  0
 19 56  1  6
 20 57  1  0
 21 22  1  0
 21 23  1  0
 21 24  1  0
 22 58  1  0
 22 59  1  0
 22 60  1  0
 23 61  1  0
 23 62  1  0
 23 63  1  0
 24 25  1  0
 24 64  1  6
 25 26  1  0
 25 65  1  0
 25 66  1  0
 26 27  1  0
 26 28  1  0
 26 67  1  6
 27 68  1  0
 28 29  1  1
 29 69  1  0
 29 70  1  0
 29 71  1  0
 30 31  1  0
 30 72  1  1
 31 73  1  0
 31 74  1  0
 31 75  1  0
M  END
>  <i_m_ct_stereo_status>  (47) 
1

>  <s_m_source_file>  (47) 
/var/tmp/pbs.5076255.sched01/tmp25ygy55i/01wbi4d2b.sdf

>  <i_m_source_file_index>  (47) 
19

>  <i_lp_mmshare_version>  (47) 
48012

>  <i_f3d_flags>  (47) 
0

>  <s_epik_input>  (47) 
W0NIMl0xW0NIMl1bQ0BASF0oW0NIM10pW0NASF0oW0NIM10pQyhbQ0BdMTJbQ0gzXSk9QzNbQ0BIXShbQ0BASF00W0NAQEhdKE80KVtDSDJdMylbQ0BIXTVbQ0BdNihbQ0gzXSlbQ0BASF0oQyhbQ0gzXSkoW0NIM10pW0NASF0oW09IXSlbQ0gyXVtDSDJdNilbQ0gyXVtDQEBIXShbT0hdKVtDQF0yNVtDSDNd

>  <s_epik_cmdline>  (47) 
J2VwaWtfcHl0aG9uJywgJy1waHQnLCAnMi4wJywgJy1waCcsICc3LjAnLCAnLXRuJywgJzgnLCAnLW1hJywgJzIwMCcsICctaW1hZScsICc8aW5maWxlLm1hZT4nLCAnLW9tYWUnLCAnPG91dGZpbGUubWFlPic=

>  <r_lp_tautomer_probability>  (47) 
1

>  <r_epik_Ionization_Penalty>  (47) 
4.24134e-06

>  <r_epik_Ionization_Penalty_Charging>  (47) 
0

>  <r_epik_Ionization_Penalty_Neutral>  (47) 
4.24134e-06

>  <r_epik_State_Penalty>  (47) 
-0

>  <r_epik_Charging_Adjusted_Penalty>  (47) 
0

>  <i_epik_Tot_Q>  (47) 
0

>  <i_epik_Tot_abs_Q>  (47) 
0

>  <s_lp_Force_Field>  (47) 
OPLS3e

>  <r_lp_Energy>  (47) 
85.7513

>  <b_lp_Chiralities_Consistent>  (47) 
1

>  <s_lp_Variant>  (47) 
15:0-1

>  <s_i_glide_gridfile>  (47) 
pfpi4k_grid

>  <i_i_glide_lignum>  (47) 
19

>  <i_i_glide_rotatable_bonds>  (47) 
2

>  <r_i_docking_score>  (47) 
-2.60912

>  <r_i_glide_ligand_efficiency>  (47) 
-0.0841652

>  <r_i_glide_ligand_efficiency_sa>  (47) 
-0.264395

>  <r_i_glide_ligand_efficiency_ln>  (47) 
-0.588437

>  <r_i_glide_gscore>  (47) 
-2.60912

>  <r_i_glide_lipo>  (47) 
-0.46488

>  <r_i_glide_hbond>  (47) 
-0.0799727

>  <r_i_glide_metal>  (47) 
-0

>  <r_i_glide_rewards>  (47) 
-0.486497

>  <r_i_glide_evdw>  (47) 
-27.7247

>  <r_i_glide_ecoul>  (47) 
-1.27691

>  <r_i_glide_erotb>  (47) 
0

>  <r_i_glide_esite>  (47) 
0

>  <r_i_glide_emodel>  (47) 
-33.9985

>  <r_i_glide_energy>  (47) 
-29.0016

>  <r_i_glide_einternal>  (47) 
0.385287

>  <r_i_glide_intrahb_reward>  (47) 
-0

>  <i_i_glide_confnum>  (47) 
2

>  <i_i_glide_posenum>  (47) 
5

>  <r_i_glide_eff_state_penalty>  (47) 
0

>  <ligand_id>  (47) 
15

>  <original_smiles>  (47) 
CC1CCC2(C)C(=C3CC4OC4C3C3C4(C)CCC(O)C(C)(C)C4CC(O)C32C)C1C

>  <smiles>  (47) 
[H]OC1([H])C([H])([H])C([H])([H])C2(C([H])([H])[H])C([H])(C([H])([H])C([H])(O[H])C3(C([H])([H])[H])C2([H])C2([H])C(=C4C([H])(C([H])([H])[H])C([H])(C([H])([H])[H])C([H])([H])C([H])([H])C43C([H])([H])[H])C([H])([H])C3([H])OC32[H])C1(C([H])([H])[H])C([H])([H])[H]

$$$$
15:0:2
     RDKit          3D

 75 80  0  0  1  0  0  0  0  0999 V2000
    3.0645   -9.4466    5.4131 C   0  0  0  0  0  0  0  0  0  0  0  0
    1.7812   -9.3213    4.5689 C   0  0  2  0  0  0  0  0  0  0  0  0
    2.0224   -9.6686    3.0994 C   0  0  0  0  0  0  0  0  0  0  0  0
    2.9098   -8.6210    2.4124 C   0  0  0  0  0  0  0  0  0  0  0  0
    2.4232   -7.1317    2.5071 C   0  0  1  0  0  0  0  0  0  0  0  0
    1.1993   -7.0283    1.5443 C   0  0  0  0  0  0  0  0  0  0  0  0
    1.9071   -6.8272    3.9444 C   0  0  0  0  0  0  0  0  0  0  0  0
    2.1329   -5.6274    4.5340 C   0  0  0  0  0  0  0  0  0  0  0  0
    1.5485   -5.1384    5.8548 C   0  0  0  0  0  0  0  0  0  0  0  0
    1.2541   -3.6884    5.5815 C   0  0  2  0  0  0  0  0  0  0  0  0
    0.5819   -3.3652    4.3494 O   0  0  0  0  0  0  0  0  0  0  0  0
    2.0149   -3.2675    4.3760 C   0  0  2  0  0  0  0  0  0  0  0  0
    2.8300   -4.4437    3.8762 C   0  0  2  0  0  0  0  0  0  0  0  0
    3.0505   -4.6140    2.3446 C   0  0  1  0  0  0  0  0  0  0  0  0
    3.7539   -3.3616    1.6231 C   0  0  1  0  0  0  0  0  0  0  0  0
    2.6261   -2.2949    1.4419 C   0  0  0  0  0  0  0  0  0  0  0  0
    4.9051   -2.7558    2.4888 C   0  0  0  0  0  0  0  0  0  0  0  0
    5.6858   -1.6022    1.8359 C   0  0  0  0  0  0  0  0  0  0  0  0
    6.2786   -1.9922    0.4792 C   0  0  1  0  0  0  0  0  0  0  0  0
    7.3480   -2.8896    0.6985 O   0  0  0  0  0  0  0  0  0  0  0  0
    5.2189   -2.5697   -0.4971 C   0  0  0  0  0  0  0  0  0  0  0  0
    4.3436   -1.3968   -1.0104 C   0  0  0  0  0  0  0  0  0  0  0  0
    5.9287   -3.0753   -1.7834 C   0  0  0  0  0  0  0  0  0  0  0  0
    4.3371   -3.7021    0.1894 C   0  0  1  0  0  0  0  0  0  0  0  0
    5.0106   -5.0886    0.1960 C   0  0  0  0  0  0  0  0  0  0  0  0
    4.0150   -6.1750    0.6060 C   0  0  1  0  0  0  0  0  0  0  0  0
    4.6146   -7.4141    0.2961 O   0  0  0  0  0  0  0  0  0  0  0  0
    3.5878   -6.0837    2.1021 C   0  0  2  0  0  0  0  0  0  0  0  0
    4.8561   -6.3741    2.9792 C   0  0  0  0  0  0  0  0  0  0  0  0
    1.1349   -7.9285    4.6966 C   0  0  1  0  0  0  0  0  0  0  0  0
   -0.3766   -7.9300    4.3887 C   0  0  0  0  0  0  0  0  0  0  0  0
    3.8066   -8.6962    5.1429 H   0  0  0  0  0  0  0  0  0  0  0  0
    3.5212  -10.4278    5.2858 H   0  0  0  0  0  0  0  0  0  0  0  0
    2.8471   -9.3263    6.4745 H   0  0  0  0  0  0  0  0  0  0  0  0
    1.0835  -10.0596    4.9690 H   0  0  0  0  0  0  0  0  0  0  0  0
    2.4890  -10.6507    3.0235 H   0  0  0  0  0  0  0  0  0  0  0  0
    1.0721   -9.7703    2.5780 H   0  0  0  0  0  0  0  0  0  0  0  0
    3.9055   -8.7471    2.8310 H   0  0  0  0  0  0  0  0  0  0  0  0
    2.9829   -8.9345    1.3723 H   0  0  0  0  0  0  0  0  0  0  0  0
    1.4603   -7.0839    0.4912 H   0  0  0  0  0  0  0  0  0  0  0  0
    0.6152   -6.1245    1.6955 H   0  0  0  0  0  0  0  0  0  0  0  0
    0.5046   -7.8517    1.6728 H   0  0  0  0  0  0  0  0  0  0  0  0
    0.6479   -5.6529    6.1812 H   0  0  0  0  0  0  0  0  0  0  0  0
    2.3059   -5.2036    6.6405 H   0  0  0  0  0  0  0  0  0  0  0  0
    1.0895   -2.9986    6.4088 H   0  0  0  0  0  0  0  0  0  0  0  0
    2.4226   -2.2587    4.3149 H   0  0  0  0  0  0  0  0  0  0  0  0
    3.8000   -4.3647    4.3696 H   0  0  0  0  0  0  0  0  0  0  0  0
    2.0600   -4.6140    1.8987 H   0  0  0  0  0  0  0  0  0  0  0  0
    2.9427   -1.2841    1.6836 H   0  0  0  0  0  0  0  0  0  0  0  0
    1.7416   -2.4700    2.0465 H   0  0  0  0  0  0  0  0  0  0  0  0
    2.2347   -2.2810    0.4267 H   0  0  0  0  0  0  0  0  0  0  0  0
    4.5261   -2.3936    3.4416 H   0  0  0  0  0  0  0  0  0  0  0  0
    5.6351   -3.5212    2.7272 H   0  0  0  0  0  0  0  0  0  0  0  0
    5.0508   -0.7267    1.7266 H   0  0  0  0  0  0  0  0  0  0  0  0
    6.4904   -1.2795    2.4958 H   0  0  0  0  0  0  0  0  0  0  0  0
    6.7186   -1.0957    0.0405 H   0  0  0  0  0  0  0  0  0  0  0  0
    7.7442   -3.0945   -0.1357 H   0  0  0  0  0  0  0  0  0  0  0  0
    3.4858   -1.7507   -1.5837 H   0  0  0  0  0  0  0  0  0  0  0  0
    4.9078   -0.7191   -1.6527 H   0  0  0  0  0  0  0  0  0  0  0  0
    3.9605   -0.7688   -0.2105 H   0  0  0  0  0  0  0  0  0  0  0  0
    5.2166   -3.5292   -2.4743 H   0  0  0  0  0  0  0  0  0  0  0  0
    6.6914   -3.8235   -1.5740 H   0  0  0  0  0  0  0  0  0  0  0  0
    6.4384   -2.2694   -2.3132 H   0  0  0  0  0  0  0  0  0  0  0  0
    3.4891   -3.8443   -0.4829 H   0  0  0  0  0  0  0  0  0  0  0  0
    5.3547   -5.3554   -0.8029 H   0  0  0  0  0  0  0  0  0  0  0  0
    5.8969   -5.0985    0.8288 H   0  0  0  0  0  0  0  0  0  0  0  0
    3.1624   -6.0611   -0.0570 H   0  0  0  0  0  0  0  0  0  0  0  0
    4.0019   -8.1100    0.4984 H   0  0  0  0  0  0  0  0  0  0  0  0
    5.5775   -5.5671    2.9810 H   0  0  0  0  0  0  0  0  0  0  0  0
    5.4183   -7.2441    2.6448 H   0  0  0  0  0  0  0  0  0  0  0  0
    4.6158   -6.5718    4.0243 H   0  0  0  0  0  0  0  0  0  0  0  0
    1.1965   -7.6986    5.7586 H   0  0  0  0  0  0  0  0  0  0  0  0
   -0.7994   -6.9289    4.4739 H   0  0  0  0  0  0  0  0  0  0  0  0
   -0.9090   -8.5686    5.0947 H   0  0  0  0  0  0  0  0  0  0  0  0
   -0.6170   -8.3140    3.4010 H   0  0  0  0  0  0  0  0  0  0  0  0
  1  2  1  0
  1 32  1  0
  1 33  1  0
  1 34  1  0
  2 30  1  0
  2  3  1  0
  2 35  1  1
  3  4  1  0
  3 36  1  0
  3 37  1  0
  4  5  1  0
  4 38  1  0
  4 39  1  0
  5 28  1  0
  5  6  1  6
  5  7  1  0
  6 40  1  0
  6 41  1  0
  6 42  1  0
  7  8  2  0
  7 30  1  0
  8 13  1  0
  8  9  1  0
  9 10  1  0
  9 43  1  0
  9 44  1  0
 10 12  1  0
 10 11  1  0
 10 45  1  1
 11 12  1  0
 12 13  1  0
 12 46  1  1
 13 14  1  0
 13 47  1  1
 14 28  1  0
 14 15  1  0
 14 48  1  6
 15 24  1  0
 15 16  1  6
 15 17  1  0
 16 49  1  0
 16 50  1  0
 16 51  1  0
 17 18  1  0
 17 52  1  0
 17 53  1  0
 18 19  1  0
 18 54  1  0
 18 55  1  0
 19 20  1  0
 19 21  1  0
 19 56  1  6
 20 57  1  0
 21 22  1  0
 21 23  1  0
 21 24  1  0
 22 58  1  0
 22 59  1  0
 22 60  1  0
 23 61  1  0
 23 62  1  0
 23 63  1  0
 24 25  1  0
 24 64  1  6
 25 26  1  0
 25 65  1  0
 25 66  1  0
 26 27  1  0
 26 28  1  0
 26 67  1  6
 27 68  1  0
 28 29  1  1
 29 69  1  0
 29 70  1  0
 29 71  1  0
 30 31  1  0
 30 72  1  1
 31 73  1  0
 31 74  1  0
 31 75  1  0
M  END
>  <i_m_ct_stereo_status>  (48) 
1

>  <s_m_source_file>  (48) 
/var/tmp/pbs.5076255.sched01/tmp25ygy55i/01wbi4d2b.sdf

>  <i_m_source_file_index>  (48) 
19

>  <i_lp_mmshare_version>  (48) 
48012

>  <i_f3d_flags>  (48) 
0

>  <s_epik_input>  (48) 
W0NIMl0xW0NIMl1bQ0BASF0oW0NIM10pW0NASF0oW0NIM10pQyhbQ0BdMTJbQ0gzXSk9QzNbQ0BIXShbQ0BASF00W0NAQEhdKE80KVtDSDJdMylbQ0BIXTVbQ0BdNihbQ0gzXSlbQ0BASF0oQyhbQ0gzXSkoW0NIM10pW0NASF0oW09IXSlbQ0gyXVtDSDJdNilbQ0gyXVtDQEBIXShbT0hdKVtDQF0yNVtDSDNd

>  <s_epik_cmdline>  (48) 
J2VwaWtfcHl0aG9uJywgJy1waHQnLCAnMi4wJywgJy1waCcsICc3LjAnLCAnLXRuJywgJzgnLCAnLW1hJywgJzIwMCcsICctaW1hZScsICc8aW5maWxlLm1hZT4nLCAnLW9tYWUnLCAnPG91dGZpbGUubWFlPic=

>  <r_lp_tautomer_probability>  (48) 
1

>  <r_epik_Ionization_Penalty>  (48) 
4.24134e-06

>  <r_epik_Ionization_Penalty_Charging>  (48) 
0

>  <r_epik_Ionization_Penalty_Neutral>  (48) 
4.24134e-06

>  <r_epik_State_Penalty>  (48) 
-0

>  <r_epik_Charging_Adjusted_Penalty>  (48) 
0

>  <i_epik_Tot_Q>  (48) 
0

>  <i_epik_Tot_abs_Q>  (48) 
0

>  <s_lp_Force_Field>  (48) 
OPLS3e

>  <r_lp_Energy>  (48) 
85.7513

>  <b_lp_Chiralities_Consistent>  (48) 
1

>  <s_lp_Variant>  (48) 
15:0-1

>  <s_i_glide_gridfile>  (48) 
pfpi4k_grid

>  <i_i_glide_lignum>  (48) 
19

>  <i_i_glide_rotatable_bonds>  (48) 
2

>  <r_i_docking_score>  (48) 
-2.50707

>  <r_i_glide_ligand_efficiency>  (48) 
-0.0808732

>  <r_i_glide_ligand_efficiency_sa>  (48) 
-0.254054

>  <r_i_glide_ligand_efficiency_ln>  (48) 
-0.565421

>  <r_i_glide_gscore>  (48) 
-2.50707

>  <r_i_glide_lipo>  (48) 
-0.563686

>  <r_i_glide_hbond>  (48) 
0

>  <r_i_glide_metal>  (48) 
-0

>  <r_i_glide_rewards>  (48) 
-0.486497

>  <r_i_glide_evdw>  (48) 
-31.8965

>  <r_i_glide_ecoul>  (48) 
0.91957

>  <r_i_glide_erotb>  (48) 
0

>  <r_i_glide_esite>  (48) 
0

>  <r_i_glide_emodel>  (48) 
-35.6319

>  <r_i_glide_energy>  (48) 
-30.9769

>  <r_i_glide_einternal>  (48) 
0.694659

>  <r_i_glide_intrahb_reward>  (48) 
-0

>  <i_i_glide_confnum>  (48) 
1

>  <i_i_glide_posenum>  (48) 
1

>  <r_i_glide_eff_state_penalty>  (48) 
0

>  <ligand_id>  (48) 
15

>  <original_smiles>  (48) 
CC1CCC2(C)C(=C3CC4OC4C3C3C4(C)CCC(O)C(C)(C)C4CC(O)C32C)C1C

>  <smiles>  (48) 
[H]OC1([H])C([H])([H])C([H])([H])C2(C([H])([H])[H])C([H])(C([H])([H])C([H])(O[H])C3(C([H])([H])[H])C2([H])C2([H])C(=C4C([H])(C([H])([H])[H])C([H])(C([H])([H])[H])C([H])([H])C([H])([H])C43C([H])([H])[H])C([H])([H])C3([H])OC32[H])C1(C([H])([H])[H])C([H])([H])[H]

$$$$
16:0:0
     RDKit          3D

 38 40  0  0  1  0  0  0  0  0999 V2000
    3.8901    1.0347    7.1317 C   0  0  0  0  0  0  0  0  0  0  0  0
    3.4015    0.5299    5.7692 C   0  0  2  0  0  0  0  0  0  0  0  0
    4.4866   -0.2397    5.0016 C   0  0  0  0  0  0  0  0  0  0  0  0
    4.1299   -0.4251    3.5376 C   0  0  0  0  0  0  0  0  0  0  0  0
    4.7876   -1.4261    2.7865 C   0  0  0  0  0  0  0  0  0  0  0  0
    4.4517   -1.6368    1.4376 C   0  0  0  0  0  0  0  0  0  0  0  0
    3.4752   -0.8343    0.8284 C   0  0  0  0  0  0  0  0  0  0  0  0
    2.8366    0.1787    1.5638 C   0  0  0  0  0  0  0  0  0  0  0  0
    3.1408    0.3835    2.9339 C   0  0  0  0  0  0  0  0  0  0  0  0
    2.3055    1.3442    3.7668 C   0  0  1  0  0  0  0  0  0  0  0  0
    2.9827    1.6453    4.9756 O   0  0  0  0  0  0  0  0  0  0  0  0
    2.1384    2.5463    3.0071 O   0  0  0  0  0  0  0  0  0  0  0  0
    1.4664    3.6008    3.6612 C   0  0  1  0  0  0  0  0  0  0  0  0
    1.4471    4.7825    2.8901 O   0  0  0  0  0  0  0  0  0  0  0  0
    0.0276    3.1792    4.0309 C   0  0  1  0  0  0  0  0  0  0  0  0
   -0.8181    3.0318    2.8814 O   0  0  0  0  0  0  0  0  0  0  0  0
    0.0964    1.8535    4.8238 C   0  0  1  0  0  0  0  0  0  0  0  0
   -1.2075    1.4020    5.0863 O   0  0  0  0  0  0  0  0  0  0  0  0
    0.8771    0.7726    4.0728 C   0  0  1  0  0  0  0  0  0  0  0  0
    0.1791    0.3761    2.9102 O   0  0  0  0  0  0  0  0  0  0  0  0
    4.1565    0.1839    7.7602 H   0  0  0  0  0  0  0  0  0  0  0  0
    3.0945    1.5723    7.6504 H   0  0  0  0  0  0  0  0  0  0  0  0
    4.7569    1.6957    7.0578 H   0  0  0  0  0  0  0  0  0  0  0  0
    2.5600   -0.1314    5.9832 H   0  0  0  0  0  0  0  0  0  0  0  0
    5.4340    0.3022    5.0234 H   0  0  0  0  0  0  0  0  0  0  0  0
    4.6439   -1.2123    5.4775 H   0  0  0  0  0  0  0  0  0  0  0  0
    5.5213   -2.0545    3.2610 H   0  0  0  0  0  0  0  0  0  0  0  0
    4.9383   -2.4171    0.8706 H   0  0  0  0  0  0  0  0  0  0  0  0
    3.1630   -1.0219   -0.1910 H   0  0  0  0  0  0  0  0  0  0  0  0
    2.0535    0.7392    1.0786 H   0  0  0  0  0  0  0  0  0  0  0  0
    2.0448    3.8686    4.5554 H   0  0  0  0  0  0  0  0  0  0  0  0
    0.9928    4.6128    2.0469 H   0  0  0  0  0  0  0  0  0  0  0  0
   -0.3920    3.9749    4.6539 H   0  0  0  0  0  0  0  0  0  0  0  0
   -0.4545    3.5132    2.1530 H   0  0  0  0  0  0  0  0  0  0  0  0
    0.5808    2.0413    5.7842 H   0  0  0  0  0  0  0  0  0  0  0  0
   -1.5885    1.2631    4.2156 H   0  0  0  0  0  0  0  0  0  0  0  0
    0.9378   -0.1643    4.6579 H   0  0  0  0  0  0  0  0  0  0  0  0
    0.1160    1.1397    2.3384 H   0  0  0  0  0  0  0  0  0  0  0  0
  1  2  1  0
  1 21  1  0
  1 22  1  0
  1 23  1  0
  2 11  1  0
  2  3  1  0
  2 24  1  1
  3  4  1  0
  3 25  1  0
  3 26  1  0
  4  9  2  0
  4  5  1  0
  5  6  2  0
  5 27  1  0
  6  7  1  0
  6 28  1  0
  7  8  2  0
  7 29  1  0
  8  9  1  0
  8 30  1  0
  9 10  1  0
 10 19  1  0
 10 11  1  1
 10 12  1  0
 12 13  1  0
 13 14  1  0
 13 15  1  0
 13 31  1  1
 14 32  1  0
 15 16  1  0
 15 17  1  0
 15 33  1  1
 16 34  1  0
 17 18  1  0
 17 19  1  0
 17 35  1  1
 18 36  1  0
 19 20  1  0
 19 37  1  1
 20 38  1  0
M  END
>  <i_m_ct_stereo_status>  (49) 
1

>  <s_m_source_file>  (49) 
/var/tmp/pbs.5076255.sched01/tmp25ygy55i/01wbi4d2b.sdf

>  <i_m_source_file_index>  (49) 
20

>  <i_lp_mmshare_version>  (49) 
48012

>  <i_f3d_flags>  (49) 
0

>  <s_epik_input>  (49) 
W2NIXTFbY0hdW2NIXVtjSF1jKFtDSDJdW0NASF0oTzIpW0NIM10pYzFbQ0BdMjNPW0NAQEhdKFtPSF0pW0NAQEhdKFtPSF0pW0NAQEhdKFtPSF0pW0NASF0zW09IXQ==

>  <s_epik_cmdline>  (49) 
J2VwaWtfcHl0aG9uJywgJy1waHQnLCAnMi4wJywgJy1waCcsICc3LjAnLCAnLXRuJywgJzgnLCAnLW1hJywgJzIwMCcsICctaW1hZScsICc8aW5maWxlLm1hZT4nLCAnLW9tYWUnLCAnPG91dGZpbGUubWFlPic=

>  <r_lp_tautomer_probability>  (49) 
1

>  <r_epik_Ionization_Penalty>  (49) 
4.99583e-06

>  <r_epik_Ionization_Penalty_Charging>  (49) 
0

>  <r_epik_Ionization_Penalty_Neutral>  (49) 
4.99583e-06

>  <r_epik_State_Penalty>  (49) 
-0

>  <r_epik_Charging_Adjusted_Penalty>  (49) 
0

>  <i_epik_Tot_Q>  (49) 
0

>  <i_epik_Tot_abs_Q>  (49) 
0

>  <s_epik_Chemistry_Notes>  (49) 
This compound contains an acetal/aminal-like group ( X-CH(R)-Y where X, Y are N, S, or O) that may be acid/base labile, releasing an aldehyde.

>  <s_lp_Force_Field>  (49) 
OPLS3e

>  <r_lp_Energy>  (49) 
32.1607

>  <b_lp_Chiralities_Consistent>  (49) 
1

>  <s_lp_Variant>  (49) 
16:0-1

>  <s_i_glide_gridfile>  (49) 
pfpi4k_grid

>  <i_i_glide_lignum>  (49) 
20

>  <i_i_glide_rotatable_bonds>  (49) 
4

>  <r_i_docking_score>  (49) 
-4.21583

>  <r_i_glide_ligand_efficiency>  (49) 
-0.210791

>  <r_i_glide_ligand_efficiency_sa>  (49) 
-0.572176

>  <r_i_glide_ligand_efficiency_ln>  (49) 
-1.05508

>  <r_i_glide_gscore>  (49) 
-4.21583

>  <r_i_glide_lipo>  (49) 
-0.152307

>  <r_i_glide_hbond>  (49) 
0

>  <r_i_glide_metal>  (49) 
-0

>  <r_i_glide_rewards>  (49) 
-1.98439

>  <r_i_glide_evdw>  (49) 
-15.2923

>  <r_i_glide_ecoul>  (49) 
-8.34425

>  <r_i_glide_erotb>  (49) 
0

>  <r_i_glide_esite>  (49) 
-0.0628752

>  <r_i_glide_emodel>  (49) 
-35.6526

>  <r_i_glide_energy>  (49) 
-23.6366

>  <r_i_glide_einternal>  (49) 
1.0697

>  <r_i_glide_intrahb_reward>  (49) 
-0.5

>  <i_i_glide_confnum>  (49) 
1

>  <i_i_glide_posenum>  (49) 
3

>  <r_i_glide_eff_state_penalty>  (49) 
0

>  <ligand_id>  (49) 
16

>  <original_smiles>  (49) 
CC1Cc2ccccc2C2(O1)OC(O)C(O)C(O)C2O

>  <smiles>  (49) 
[H]OC1([H])OC2(OC([H])(C([H])([H])[H])C([H])([H])c3c([H])c([H])c([H])c([H])c32)C([H])(O[H])C([H])(O[H])C1([H])O[H]

$$$$
16:0:1
     RDKit          3D

 38 40  0  0  1  0  0  0  0  0999 V2000
    1.2285   -1.9767    6.9579 C   0  0  0  0  0  0  0  0  0  0  0  0
    1.0199   -0.7660    6.0320 C   0  0  2  0  0  0  0  0  0  0  0  0
   -0.4099   -0.1932    6.1428 C   0  0  0  0  0  0  0  0  0  0  0  0
   -0.7448    0.7349    4.9933 C   0  0  0  0  0  0  0  0  0  0  0  0
   -1.8038    1.6603    5.1300 C   0  0  0  0  0  0  0  0  0  0  0  0
   -2.1180    2.5436    4.0826 C   0  0  0  0  0  0  0  0  0  0  0  0
   -1.3901    2.4970    2.8819 C   0  0  0  0  0  0  0  0  0  0  0  0
   -0.3432    1.5658    2.7329 C   0  0  0  0  0  0  0  0  0  0  0  0
    0.0089    0.6945    3.7972 C   0  0  0  0  0  0  0  0  0  0  0  0
    1.2727   -0.1667    3.7001 C   0  0  1  0  0  0  0  0  0  0  0  0
    1.2445   -1.1860    4.6836 O   0  0  0  0  0  0  0  0  0  0  0  0
    1.2836   -0.7530    2.4080 O   0  0  0  0  0  0  0  0  0  0  0  0
    2.3321   -1.6634    2.1566 C   0  0  1  0  0  0  0  0  0  0  0  0
    2.2254   -2.2734    0.8834 O   0  0  0  0  0  0  0  0  0  0  0  0
    3.6910   -0.9535    2.2586 C   0  0  1  0  0  0  0  0  0  0  0  0
    3.8605   -0.0407    1.1994 O   0  0  0  0  0  0  0  0  0  0  0  0
    3.7507   -0.2368    3.6253 C   0  0  1  0  0  0  0  0  0  0  0  0
    4.9575    0.4573    3.8345 O   0  0  0  0  0  0  0  0  0  0  0  0
    2.5696    0.7092    3.8440 C   0  0  1  0  0  0  0  0  0  0  0  0
    2.6246    1.7959    2.9138 O   0  0  0  0  0  0  0  0  0  0  0  0
    1.1302   -1.6740    7.9994 H   0  0  0  0  0  0  0  0  0  0  0  0
    2.2385   -2.3621    6.8437 H   0  0  0  0  0  0  0  0  0  0  0  0
    0.5378   -2.8045    6.7734 H   0  0  0  0  0  0  0  0  0  0  0  0
    1.7481   -0.0031    6.3219 H   0  0  0  0  0  0  0  0  0  0  0  0
   -1.1590   -0.9924    6.1235 H   0  0  0  0  0  0  0  0  0  0  0  0
   -0.5122    0.3445    7.0914 H   0  0  0  0  0  0  0  0  0  0  0  0
   -2.3455    1.7110    6.0577 H   0  0  0  0  0  0  0  0  0  0  0  0
   -2.9122    3.2661    4.2062 H   0  0  0  0  0  0  0  0  0  0  0  0
   -1.5647    3.2212    2.1042 H   0  0  0  0  0  0  0  0  0  0  0  0
    0.2289    1.5919    1.8102 H   0  0  0  0  0  0  0  0  0  0  0  0
    2.2918   -2.4911    2.8703 H   0  0  0  0  0  0  0  0  0  0  0  0
    1.8216   -1.6471    0.2847 H   0  0  0  0  0  0  0  0  0  0  0  0
    4.4822   -1.7057    2.1565 H   0  0  0  0  0  0  0  0  0  0  0  0
    3.1412    0.5874    1.2317 H   0  0  0  0  0  0  0  0  0  0  0  0
    3.7320   -1.0286    4.3651 H   0  0  0  0  0  0  0  0  0  0  0  0
    4.9873    1.1680    3.1982 H   0  0  0  0  0  0  0  0  0  0  0  0
    2.6330    1.1495    4.8429 H   0  0  0  0  0  0  0  0  0  0  0  0
    3.4570    2.2712    2.9724 H   0  0  0  0  0  0  0  0  0  0  0  0
  1  2  1  0
  1 21  1  0
  1 22  1  0
  1 23  1  0
  2 11  1  0
  2  3  1  0
  2 24  1  1
  3  4  1  0
  3 25  1  0
  3 26  1  0
  4  9  2  0
  4  5  1  0
  5  6  2  0
  5 27  1  0
  6  7  1  0
  6 28  1  0
  7  8  2  0
  7 29  1  0
  8  9  1  0
  8 30  1  0
  9 10  1  0
 10 19  1  0
 10 11  1  1
 10 12  1  0
 12 13  1  0
 13 14  1  0
 13 15  1  0
 13 31  1  1
 14 32  1  0
 15 16  1  0
 15 17  1  0
 15 33  1  1
 16 34  1  0
 17 18  1  0
 17 19  1  0
 17 35  1  1
 18 36  1  0
 19 20  1  0
 19 37  1  1
 20 38  1  0
M  END
>  <i_m_ct_stereo_status>  (50) 
1

>  <s_m_source_file>  (50) 
/var/tmp/pbs.5076255.sched01/tmp25ygy55i/01wbi4d2b.sdf

>  <i_m_source_file_index>  (50) 
20

>  <i_lp_mmshare_version>  (50) 
48012

>  <i_f3d_flags>  (50) 
0

>  <s_epik_input>  (50) 
W2NIXTFbY0hdW2NIXVtjSF1jKFtDSDJdW0NASF0oTzIpW0NIM10pYzFbQ0BdMjNPW0NAQEhdKFtPSF0pW0NAQEhdKFtPSF0pW0NAQEhdKFtPSF0pW0NASF0zW09IXQ==

>  <s_epik_cmdline>  (50) 
J2VwaWtfcHl0aG9uJywgJy1waHQnLCAnMi4wJywgJy1waCcsICc3LjAnLCAnLXRuJywgJzgnLCAnLW1hJywgJzIwMCcsICctaW1hZScsICc8aW5maWxlLm1hZT4nLCAnLW9tYWUnLCAnPG91dGZpbGUubWFlPic=

>  <r_lp_tautomer_probability>  (50) 
1

>  <r_epik_Ionization_Penalty>  (50) 
4.99583e-06

>  <r_epik_Ionization_Penalty_Charging>  (50) 
0

>  <r_epik_Ionization_Penalty_Neutral>  (50) 
4.99583e-06

>  <r_epik_State_Penalty>  (50) 
-0

>  <r_epik_Charging_Adjusted_Penalty>  (50) 
0

>  <i_epik_Tot_Q>  (50) 
0

>  <i_epik_Tot_abs_Q>  (50) 
0

>  <s_epik_Chemistry_Notes>  (50) 
This compound contains an acetal/aminal-like group ( X-CH(R)-Y where X, Y are N, S, or O) that may be acid/base labile, releasing an aldehyde.

>  <s_lp_Force_Field>  (50) 
OPLS3e

>  <r_lp_Energy>  (50) 
32.1607

>  <b_lp_Chiralities_Consistent>  (50) 
1

>  <s_lp_Variant>  (50) 
16:0-1

>  <s_i_glide_gridfile>  (50) 
pfpi4k_grid

>  <i_i_glide_lignum>  (50) 
20

>  <i_i_glide_rotatable_bonds>  (50) 
4

>  <r_i_docking_score>  (50) 
-3.35835

>  <r_i_glide_ligand_efficiency>  (50) 
-0.167917

>  <r_i_glide_ligand_efficiency_sa>  (50) 
-0.455798

>  <r_i_glide_ligand_efficiency_ln>  (50) 
-0.840483

>  <r_i_glide_gscore>  (50) 
-3.35835

>  <r_i_glide_lipo>  (50) 
-0.012628

>  <r_i_glide_hbond>  (50) 
0

>  <r_i_glide_metal>  (50) 
-0

>  <r_i_glide_rewards>  (50) 
-1.98439

>  <r_i_glide_evdw>  (50) 
-17.0721

>  <r_i_glide_ecoul>  (50) 
-3.14341

>  <r_i_glide_erotb>  (50) 
0

>  <r_i_glide_esite>  (50) 
-0.0362085

>  <r_i_glide_emodel>  (50) 
-30.2313

>  <r_i_glide_energy>  (50) 
-20.2155

>  <r_i_glide_einternal>  (50) 
2.08545

>  <r_i_glide_intrahb_reward>  (50) 
-0.5

>  <i_i_glide_confnum>  (50) 
1

>  <i_i_glide_posenum>  (50) 
35

>  <r_i_glide_eff_state_penalty>  (50) 
0

>  <ligand_id>  (50) 
16

>  <original_smiles>  (50) 
CC1Cc2ccccc2C2(O1)OC(O)C(O)C(O)C2O

>  <smiles>  (50) 
[H]OC1([H])OC2(OC([H])(C([H])([H])[H])C([H])([H])c3c([H])c([H])c([H])c([H])c32)C([H])(O[H])C([H])(O[H])C1([H])O[H]

$$$$
16:0:2
     RDKit          3D

 38 40  0  0  1  0  0  0  0  0999 V2000
    1.2071   -1.1178    7.7224 C   0  0  0  0  0  0  0  0  0  0  0  0
    0.9636   -0.0296    6.6710 C   0  0  2  0  0  0  0  0  0  0  0  0
   -0.4288    0.5946    6.7764 C   0  0  0  0  0  0  0  0  0  0  0  0
   -0.7970    1.3995    5.5474 C   0  0  0  0  0  0  0  0  0  0  0  0
   -1.8384    2.3396    5.6252 C   0  0  0  0  0  0  0  0  0  0  0  0
   -2.1858    3.1069    4.4949 C   0  0  0  0  0  0  0  0  0  0  0  0
   -1.5059    2.9259    3.2813 C   0  0  0  0  0  0  0  0  0  0  0  0
   -0.4803    1.9621    3.1927 C   0  0  0  0  0  0  0  0  0  0  0  0
   -0.1036    1.1960    4.3210 C   0  0  0  0  0  0  0  0  0  0  0  0
    1.1232    0.2994    4.2741 C   0  0  1  0  0  0  0  0  0  0  0  0
    1.1012   -0.5922    5.3653 O   0  0  0  0  0  0  0  0  0  0  0  0
    1.0628   -0.4326    3.0632 O   0  0  0  0  0  0  0  0  0  0  0  0
    2.0765   -1.3844    2.8766 C   0  0  1  0  0  0  0  0  0  0  0  0
    1.8772   -2.1029    1.6835 O   0  0  0  0  0  0  0  0  0  0  0  0
    3.4505   -0.6971    2.8249 C   0  0  1  0  0  0  0  0  0  0  0  0
    3.5760    0.0837    1.6547 O   0  0  0  0  0  0  0  0  0  0  0  0
    3.6003    0.1543    4.1018 C   0  0  1  0  0  0  0  0  0  0  0  0
    4.7940    0.8907    4.0787 O   0  0  0  0  0  0  0  0  0  0  0  0
    2.4394    1.1387    4.2731 C   0  0  1  0  0  0  0  0  0  0  0  0
    2.4652    2.1307    3.2635 O   0  0  0  0  0  0  0  0  0  0  0  0
    1.1505   -0.6815    8.7196 H   0  0  0  0  0  0  0  0  0  0  0  0
    2.2089   -1.5338    7.6155 H   0  0  0  0  0  0  0  0  0  0  0  0
    0.4933   -1.9406    7.6625 H   0  0  0  0  0  0  0  0  0  0  0  0
    1.7219    0.7292    6.8461 H   0  0  0  0  0  0  0  0  0  0  0  0
   -1.1860   -0.1835    6.8748 H   0  0  0  0  0  0  0  0  0  0  0  0
   -0.4819    1.2264    7.6666 H   0  0  0  0  0  0  0  0  0  0  0  0
   -2.3608    2.4994    6.5564 H   0  0  0  0  0  0  0  0  0  0  0  0
   -2.9773    3.8358    4.5695 H   0  0  0  0  0  0  0  0  0  0  0  0
   -1.7331    3.5472    2.4256 H   0  0  0  0  0  0  0  0  0  0  0  0
    0.0386    1.8712    2.2468 H   0  0  0  0  0  0  0  0  0  0  0  0
    2.0443   -2.1284    3.6744 H   0  0  0  0  0  0  0  0  0  0  0  0
    1.8479   -1.4772    0.9644 H   0  0  0  0  0  0  0  0  0  0  0  0
    4.2312   -1.4635    2.7971 H   0  0  0  0  0  0  0  0  0  0  0  0
    2.9527    0.8007    1.7374 H   0  0  0  0  0  0  0  0  0  0  0  0
    3.6408   -0.5092    4.9639 H   0  0  0  0  0  0  0  0  0  0  0  0
    4.6587    1.5699    3.4263 H   0  0  0  0  0  0  0  0  0  0  0  0
    2.5413    1.7080    5.2036 H   0  0  0  0  0  0  0  0  0  0  0  0
    1.6424    2.6141    3.2927 H   0  0  0  0  0  0  0  0  0  0  0  0
  1  2  1  0
  1 21  1  0
  1 22  1  0
  1 23  1  0
  2 11  1  0
  2  3  1  0
  2 24  1  1
  3  4  1  0
  3 25  1  0
  3 26  1  0
  4  9  2  0
  4  5  1  0
  5  6  2  0
  5 27  1  0
  6  7  1  0
  6 28  1  0
  7  8  2  0
  7 29  1  0
  8  9  1  0
  8 30  1  0
  9 10  1  0
 10 19  1  0
 10 11  1  1
 10 12  1  0
 12 13  1  0
 13 14  1  0
 13 15  1  0
 13 31  1  1
 14 32  1  0
 15 16  1  0
 15 17  1  0
 15 33  1  6
 16 34  1  0
 17 18  1  0
 17 19  1  0
 17 35  1  1
 18 36  1  0
 19 20  1  0
 19 37  1  1
 20 38  1  0
M  END
>  <i_m_ct_stereo_status>  (51) 
1

>  <s_m_source_file>  (51) 
/var/tmp/pbs.5076255.sched01/tmp25ygy55i/01wbi4d2b.sdf

>  <i_m_source_file_index>  (51) 
20

>  <i_lp_mmshare_version>  (51) 
48012

>  <i_f3d_flags>  (51) 
0

>  <s_epik_input>  (51) 
W2NIXTFbY0hdW2NIXVtjSF1jKFtDSDJdW0NASF0oTzIpW0NIM10pYzFbQ0BdMjNPW0NAQEhdKFtPSF0pW0NAQEhdKFtPSF0pW0NAQEhdKFtPSF0pW0NASF0zW09IXQ==

>  <s_epik_cmdline>  (51) 
J2VwaWtfcHl0aG9uJywgJy1waHQnLCAnMi4wJywgJy1waCcsICc3LjAnLCAnLXRuJywgJzgnLCAnLW1hJywgJzIwMCcsICctaW1hZScsICc8aW5maWxlLm1hZT4nLCAnLW9tYWUnLCAnPG91dGZpbGUubWFlPic=

>  <r_lp_tautomer_probability>  (51) 
1

>  <r_epik_Ionization_Penalty>  (51) 
4.99583e-06

>  <r_epik_Ionization_Penalty_Charging>  (51) 
0

>  <r_epik_Ionization_Penalty_Neutral>  (51) 
4.99583e-06

>  <r_epik_State_Penalty>  (51) 
-0

>  <r_epik_Charging_Adjusted_Penalty>  (51) 
0

>  <i_epik_Tot_Q>  (51) 
0

>  <i_epik_Tot_abs_Q>  (51) 
0

>  <s_epik_Chemistry_Notes>  (51) 
This compound contains an acetal/aminal-like group ( X-CH(R)-Y where X, Y are N, S, or O) that may be acid/base labile, releasing an aldehyde.

>  <s_lp_Force_Field>  (51) 
OPLS3e

>  <r_lp_Energy>  (51) 
32.1607

>  <b_lp_Chiralities_Consistent>  (51) 
1

>  <s_lp_Variant>  (51) 
16:0-1

>  <s_i_glide_gridfile>  (51) 
pfpi4k_grid

>  <i_i_glide_lignum>  (51) 
20

>  <i_i_glide_rotatable_bonds>  (51) 
4

>  <r_i_docking_score>  (51) 
-2.90043

>  <r_i_glide_ligand_efficiency>  (51) 
-0.145022

>  <r_i_glide_ligand_efficiency_sa>  (51) 
-0.393649

>  <r_i_glide_ligand_efficiency_ln>  (51) 
-0.725883

>  <r_i_glide_gscore>  (51) 
-2.90043

>  <r_i_glide_lipo>  (51) 
-0.0215057

>  <r_i_glide_hbond>  (51) 
0

>  <r_i_glide_metal>  (51) 
-0

>  <r_i_glide_rewards>  (51) 
-1.98439

>  <r_i_glide_evdw>  (51) 
-16.1871

>  <r_i_glide_ecoul>  (51) 
-0.46286

>  <r_i_glide_erotb>  (51) 
0

>  <r_i_glide_esite>  (51) 
-0.0157497

>  <r_i_glide_emodel>  (51) 
-26.0291

>  <r_i_glide_energy>  (51) 
-16.65

>  <r_i_glide_einternal>  (51) 
0.698123

>  <r_i_glide_intrahb_reward>  (51) 
-0.5

>  <i_i_glide_confnum>  (51) 
1

>  <i_i_glide_posenum>  (51) 
12

>  <r_i_glide_eff_state_penalty>  (51) 
0

>  <ligand_id>  (51) 
16

>  <original_smiles>  (51) 
CC1Cc2ccccc2C2(O1)OC(O)C(O)C(O)C2O

>  <smiles>  (51) 
[H]OC1([H])OC2(OC([H])(C([H])([H])[H])C([H])([H])c3c([H])c([H])c([H])c([H])c32)C([H])(O[H])C([H])(O[H])C1([H])O[H]

$$$$
17:0:0
     RDKit          3D

 71 77  0  0  1  0  0  0  0  0999 V2000
    2.5581   -8.7479    8.6319 C   0  0  0  0  0  0  0  0  0  0  0  0
    1.9518   -8.2658    7.3008 C   0  0  2  0  0  0  0  0  0  0  0  0
    1.1253   -9.3898    6.6391 C   0  0  0  0  0  0  0  0  0  0  0  0
    0.3838   -8.9238    5.3699 C   0  0  0  0  0  0  0  0  0  0  0  0
    1.2959   -8.3097    4.2712 C   0  0  1  0  0  0  0  0  0  0  0  0
    0.4626   -7.8941    2.9310 C   0  0  1  0  0  0  0  0  0  0  0  0
   -1.0017   -7.4693    3.2109 C   0  0  0  0  0  0  0  0  0  0  0  0
    1.0238   -7.0526    1.6639 C   0  0  0  0  0  0  0  0  0  0  0  0
    2.1928   -6.0272    1.8478 C   0  0  1  0  0  0  0  0  0  0  0  0
    3.1064   -5.4448    0.8482 N   0  0  0  0  0  0  0  0  0  0  0  0
    2.7625   -4.6572   -0.1612 C   0  0  0  0  0  0  0  0  0  0  0  0
    1.6479   -4.6527   -0.7049 O   0  0  0  0  0  0  0  0  0  0  0  0
    3.8306   -3.9024   -0.4748 N   0  0  0  0  0  0  0  0  0  0  0  0
    3.8380   -2.8867   -1.4939 C   0  0  0  0  0  0  0  0  0  0  0  0
    3.0861   -3.0255   -2.6935 C   0  0  0  0  0  0  0  0  0  0  0  0
    3.0829   -2.0218   -3.6753 C   0  0  0  0  0  0  0  0  0  0  0  0
    3.8455   -0.8608   -3.4989 C   0  0  0  0  0  0  0  0  0  0  0  0
    4.6100   -0.7211   -2.3255 C   0  0  0  0  0  0  0  0  0  0  0  0
    4.5922   -1.7043   -1.3247 C   0  0  0  0  0  0  0  0  0  0  0  0
    4.8892   -4.2216    0.3112 C   0  0  0  0  0  0  0  0  0  0  0  0
    6.0427   -3.7837    0.2328 O   0  0  0  0  0  0  0  0  0  0  0  0
    4.4986   -5.1609    1.1671 N   0  0  0  0  0  0  0  0  0  0  0  0
    5.4423   -6.0601    1.9265 C   0  0  0  0  0  0  0  0  0  0  0  0
    5.9151   -5.5792    3.3739 C   0  0  0  0  0  0  0  0  0  0  0  0
    5.5890   -6.4987    4.6463 C   0  0  1  0  0  0  0  0  0  0  0  0
    4.9969   -5.8445    5.9447 C   0  0  0  0  0  0  0  0  0  0  0  0
    4.0584   -6.7304    6.8717 C   0  0  0  0  0  0  0  0  0  0  0  0
    3.0053   -7.7673    6.2853 C   0  0  2  0  0  0  0  0  0  0  0  0
    2.2853   -7.2945    4.9916 C   0  0  2  0  0  0  0  0  0  0  0  0
    1.6092   -6.0665    5.2873 O   0  0  0  0  0  0  0  0  0  0  0  0
    1.0827   -5.4969    3.9803 O   0  0  0  0  0  0  0  0  0  0  0  0
    2.1912   -5.2178    3.1501 C   0  0  2  0  0  0  0  0  0  0  0  0
    2.2872   -3.6775    3.0392 C   0  0  0  0  0  0  0  0  0  0  0  0
    3.3633   -5.6737    3.7256 O   0  0  0  0  0  0  0  0  0  0  0  0
    3.4027   -7.0393    4.0106 C   0  0  1  0  0  0  0  0  0  0  0  0
    4.6656   -7.5045    4.3461 O   0  0  0  0  0  0  0  0  0  0  0  0
    3.2855   -9.5455    8.4800 H   0  0  0  0  0  0  0  0  0  0  0  0
    1.7858   -9.1327    9.2965 H   0  0  0  0  0  0  0  0  0  0  0  0
    3.0528   -7.9361    9.1642 H   0  0  0  0  0  0  0  0  0  0  0  0
    1.2752   -7.4429    7.5355 H   0  0  0  0  0  0  0  0  0  0  0  0
    1.7727  -10.2344    6.3963 H   0  0  0  0  0  0  0  0  0  0  0  0
    0.3967   -9.7781    7.3509 H   0  0  0  0  0  0  0  0  0  0  0  0
   -0.1650   -9.7763    4.9629 H   0  0  0  0  0  0  0  0  0  0  0  0
   -0.3630   -8.1953    5.6817 H   0  0  0  0  0  0  0  0  0  0  0  0
    1.9110   -9.1552    3.9584 H   0  0  0  0  0  0  0  0  0  0  0  0
    0.2959   -8.8701    2.4699 H   0  0  0  0  0  0  0  0  0  0  0  0
   -1.0752   -6.5683    3.8177 H   0  0  0  0  0  0  0  0  0  0  0  0
   -1.5579   -8.2550    3.7224 H   0  0  0  0  0  0  0  0  0  0  0  0
   -1.5513   -7.2994    2.2851 H   0  0  0  0  0  0  0  0  0  0  0  0
    1.3225   -7.7748    0.9039 H   0  0  0  0  0  0  0  0  0  0  0  0
    0.1958   -6.5276    1.1870 H   0  0  0  0  0  0  0  0  0  0  0  0
    2.9034   -6.8154    1.7337 H   0  0  0  0  0  0  0  0  0  0  0  0
    2.4707   -3.8861   -2.8922 H   0  0  0  0  0  0  0  0  0  0  0  0
    2.4754   -2.1572   -4.5582 H   0  0  0  0  0  0  0  0  0  0  0  0
    3.8472   -0.0805   -4.2474 H   0  0  0  0  0  0  0  0  0  0  0  0
    5.2187    0.1476   -2.1727 H   0  0  0  0  0  0  0  0  0  0  0  0
    5.1672   -1.5192   -0.4274 H   0  0  0  0  0  0  0  0  0  0  0  0
    5.0891   -7.0878    1.9229 H   0  0  0  0  0  0  0  0  0  0  0  0
    6.3477   -6.1240    1.3174 H   0  0  0  0  0  0  0  0  0  0  0  0
    6.9979   -5.4718    3.3385 H   0  0  0  0  0  0  0  0  0  0  0  0
    5.5763   -4.5577    3.5505 H   0  0  0  0  0  0  0  0  0  0  0  0
    6.5023   -7.0292    4.9145 H   0  0  0  0  0  0  0  0  0  0  0  0
    5.8248   -5.4694    6.5445 H   0  0  0  0  0  0  0  0  0  0  0  0
    4.4451   -4.9426    5.6840 H   0  0  0  0  0  0  0  0  0  0  0  0
    4.7140   -7.2936    7.5349 H   0  0  0  0  0  0  0  0  0  0  0  0
    3.5246   -6.0396    7.5246 H   0  0  0  0  0  0  0  0  0  0  0  0
    3.5743   -8.6640    6.0345 H   0  0  0  0  0  0  0  0  0  0  0  0
    2.3272   -3.2226    4.0277 H   0  0  0  0  0  0  0  0  0  0  0  0
    1.4336   -3.2509    2.5147 H   0  0  0  0  0  0  0  0  0  0  0  0
    3.1844   -3.3371    2.5278 H   0  0  0  0  0  0  0  0  0  0  0  0
    3.3290   -7.7876    3.2379 H   0  0  0  0  0  0  0  0  0  0  0  0
  1  2  1  0
  1 37  1  0
  1 38  1  0
  1 39  1  0
  2 28  1  0
  2  3  1  0
  2 40  1  1
  3  4  1  0
  3 41  1  0
  3 42  1  0
  4  5  1  0
  4 43  1  0
  4 44  1  0
  5 29  1  0
  5  6  1  0
  5 45  1  6
  6  7  1  0
  6  8  1  0
  6 46  1  6
  7 47  1  0
  7 48  1  0
  7 49  1  0
  8  9  1  0
  8 50  1  0
  8 51  1  0
  9 32  1  0
  9 10  1  0
  9 52  1  1
 10 22  1  0
 10 11  1  0
 11 12  2  0
 11 13  1  0
 13 14  1  0
 13 20  1  0
 14 19  1  0
 14 15  2  0
 15 16  1  0
 15 53  1  0
 16 17  2  0
 16 54  1  0
 17 18  1  0
 17 55  1  0
 18 19  2  0
 18 56  1  0
 19 57  1  0
 20 21  2  0
 20 22  1  0
 22 23  1  0
 23 24  1  0
 23 58  1  0
 23 59  1  0
 24 25  1  0
 24 60  1  0
 24 61  1  0
 25 36  1  0
 25 26  1  0
 25 62  1  1
 26 27  1  0
 26 63  1  0
 26 64  1  0
 27 28  1  0
 27 65  1  0
 27 66  1  0
 28 29  1  0
 28 67  1  6
 29 35  1  0
 29 30  1  1
 30 31  1  0
 31 32  1  0
 32 33  1  6
 32 34  1  0
 33 68  1  0
 33 69  1  0
 33 70  1  0
 34 35  1  0
 35 36  1  0
 35 71  1  6
M  END
>  <i_m_ct_stereo_status>  (52) 
1

>  <s_m_source_file>  (52) 
/var/tmp/pbs.5076255.sched01/tmp25ygy55i/01wbi4d2b.sdf

>  <i_m_source_file_index>  (52) 
21

>  <i_lp_mmshare_version>  (52) 
48012

>  <i_f3d_flags>  (52) 
0

>  <s_epik_input>  (52) 
W0NAQF0xMjNbQ0BIXTRbQ0gyXVtDSDJdW0NAQEhdKFtDSDNdKVtDQEBIXTFbQ0gyXVtDSDJdW0NAQEhdNVtDSDJdW0NIMl1uNm4oW0NASF0oW0NIMl1bQ0BASF00W0NIM10pW0NAXShPTzIpKFtDSDNdKU9bQ0BIXTNPNSljKD1PKW4oYzY9TyktYzdbY0hdW2NIXVtjSF1bY0hdW2NIXTc=

>  <s_epik_cmdline>  (52) 
J2VwaWtfcHl0aG9uJywgJy1waHQnLCAnMi4wJywgJy1waCcsICc3LjAnLCAnLXRuJywgJzgnLCAnLW1hJywgJzIwMCcsICctaW1hZScsICc8aW5maWxlLm1hZT4nLCAnLW9tYWUnLCAnPG91dGZpbGUubWFlPic=

>  <r_lp_tautomer_probability>  (52) 
1

>  <r_epik_Ionization_Penalty>  (52) 
5.26004e-07

>  <r_epik_Ionization_Penalty_Charging>  (52) 
5.25999e-07

>  <r_epik_Ionization_Penalty_Neutral>  (52) 
4.66308e-12

>  <r_epik_State_Penalty>  (52) 
-0

>  <r_epik_Charging_Adjusted_Penalty>  (52) 
5.25999e-07

>  <i_epik_Tot_Q>  (52) 
0

>  <i_epik_Tot_abs_Q>  (52) 
0

>  <s_epik_Chemistry_Notes>  (52) 
This compound contains an acetal/aminal-like group ( X-CH(R)-Y where X, Y are N, S, or O) that may be acid/base labile, releasing an aldehyde.

>  <s_lp_Force_Field>  (52) 
OPLS3e

>  <r_lp_Energy>  (52) 
160.639

>  <b_lp_Chiralities_Consistent>  (52) 
1

>  <s_lp_Variant>  (52) 
17:0-1

>  <s_i_glide_gridfile>  (52) 
pfpi4k_grid

>  <i_i_glide_lignum>  (52) 
21

>  <i_i_glide_rotatable_bonds>  (52) 
1

>  <r_i_docking_score>  (52) 
-2.69883

>  <r_i_glide_ligand_efficiency>  (52) 
-0.0749674

>  <r_i_glide_ligand_efficiency_sa>  (52) 
-0.247537

>  <r_i_glide_ligand_efficiency_ln>  (52) 
-0.588811

>  <r_i_glide_gscore>  (52) 
-2.69883

>  <r_i_glide_lipo>  (52) 
-0.482875

>  <r_i_glide_hbond>  (52) 
-0.0145787

>  <r_i_glide_metal>  (52) 
-0

>  <r_i_glide_rewards>  (52) 
-0.127897

>  <r_i_glide_evdw>  (52) 
-32.767

>  <r_i_glide_ecoul>  (52) 
-2.9315

>  <r_i_glide_erotb>  (52) 
0.0823952

>  <r_i_glide_esite>  (52) 
-0.0777988

>  <r_i_glide_emodel>  (52) 
-40.6359

>  <r_i_glide_energy>  (52) 
-35.6985

>  <r_i_glide_einternal>  (52) 
1.27884

>  <r_i_glide_intrahb_reward>  (52) 
-0

>  <i_i_glide_confnum>  (52) 
2

>  <i_i_glide_posenum>  (52) 
6

>  <r_i_glide_eff_state_penalty>  (52) 
0

>  <ligand_id>  (52) 
17

>  <original_smiles>  (52) 
CC1CCC2C(C)CC3n4c(=O)n(-c5ccccc5)c(=O)n4CCC4CCC1C21OOC3(C)OC1O4

>  <smiles>  (52) 
[H]c1c([H])c([H])c(-n2c(=O)n3n(c2=O)C2([H])C([H])([H])C([H])(C([H])([H])[H])C4([H])C([H])([H])C([H])([H])C([H])(C([H])([H])[H])C5([H])C([H])([H])C([H])([H])C([H])(OC6([H])OC2(C([H])([H])[H])OOC654)C([H])([H])C3([H])[H])c([H])c1[H]

$$$$
17:0:1
     RDKit          3D

 71 77  0  0  1  0  0  0  0  0999 V2000
    1.1067   -9.0537    7.8996 C   0  0  0  0  0  0  0  0  0  0  0  0
    1.8411   -8.9252    6.5502 C   0  0  2  0  0  0  0  0  0  0  0  0
    3.2311   -9.5950    6.6187 C   0  0  0  0  0  0  0  0  0  0  0  0
    3.9557   -9.6079    5.2543 C   0  0  0  0  0  0  0  0  0  0  0  0
    4.1395   -8.2107    4.5967 C   0  0  1  0  0  0  0  0  0  0  0  0
    4.9681   -8.2860    3.1933 C   0  0  1  0  0  0  0  0  0  0  0  0
    4.7642   -9.6118    2.4163 C   0  0  0  0  0  0  0  0  0  0  0  0
    5.1849   -7.0834    2.1309 C   0  0  0  0  0  0  0  0  0  0  0  0
    4.1351   -5.9356    2.0089 C   0  0  1  0  0  0  0  0  0  0  0  0
    4.2787   -4.5816    1.4420 N   0  0  0  0  0  0  0  0  0  0  0  0
    4.5381   -4.2927    0.1756 C   0  0  0  0  0  0  0  0  0  0  0  0
    5.0941   -5.0606   -0.6202 O   0  0  0  0  0  0  0  0  0  0  0  0
    4.0397   -3.0746   -0.0755 N   0  0  0  0  0  0  0  0  0  0  0  0
    4.0510   -2.4313   -1.3632 C   0  0  0  0  0  0  0  0  0  0  0  0
    4.3217   -1.0547   -1.4848 C   0  0  0  0  0  0  0  0  0  0  0  0
    4.3032   -0.4357   -2.7449 C   0  0  0  0  0  0  0  0  0  0  0  0
    4.0523   -1.1761   -3.9151 C   0  0  0  0  0  0  0  0  0  0  0  0
    3.7943   -2.5541   -3.8121 C   0  0  0  0  0  0  0  0  0  0  0  0
    3.7920   -3.1676   -2.5441 C   0  0  0  0  0  0  0  0  0  0  0  0
    3.4613   -2.5434    1.0314 C   0  0  0  0  0  0  0  0  0  0  0  0
    2.9767   -1.4267    1.1689 O   0  0  0  0  0  0  0  0  0  0  0  0
    3.5827   -3.4416    2.0157 N   0  0  0  0  0  0  0  0  0  0  0  0
    3.4620   -3.1064    3.4810 C   0  0  0  0  0  0  0  0  0  0  0  0
    2.0209   -3.2201    4.1577 C   0  0  0  0  0  0  0  0  0  0  0  0
    1.8128   -4.2365    5.3797 C   0  0  1  0  0  0  0  0  0  0  0  0
    0.5635   -5.1876    5.3929 C   0  0  0  0  0  0  0  0  0  0  0  0
    0.6923   -6.5900    6.1313 C   0  0  0  0  0  0  0  0  0  0  0  0
    2.0187   -7.4650    6.0778 C   0  0  2  0  0  0  0  0  0  0  0  0
    2.7458   -7.4523    4.7087 C   0  0  2  0  0  0  0  0  0  0  0  0
    1.8241   -7.9305    3.7202 O   0  0  0  0  0  0  0  0  0  0  0  0
    2.4739   -7.7291    2.3595 O   0  0  0  0  0  0  0  0  0  0  0  0
    2.6648   -6.3411    2.1681 C   0  0  2  0  0  0  0  0  0  0  0  0
    1.6854   -5.9083    1.0615 C   0  0  0  0  0  0  0  0  0  0  0  0
    2.3319   -5.6421    3.3168 O   0  0  0  0  0  0  0  0  0  0  0  0
    3.0529   -5.9985    4.4632 C   0  0  1  0  0  0  0  0  0  0  0  0
    2.8875   -5.1208    5.5245 O   0  0  0  0  0  0  0  0  0  0  0  0
    1.6154   -8.5033    8.6931 H   0  0  0  0  0  0  0  0  0  0  0  0
    1.0483  -10.0974    8.2094 H   0  0  0  0  0  0  0  0  0  0  0  0
    0.0791   -8.6983    7.8332 H   0  0  0  0  0  0  0  0  0  0  0  0
    1.2476   -9.4716    5.8152 H   0  0  0  0  0  0  0  0  0  0  0  0
    3.8525   -9.0872    7.3573 H   0  0  0  0  0  0  0  0  0  0  0  0
    3.1227  -10.6252    6.9699 H   0  0  0  0  0  0  0  0  0  0  0  0
    4.9283  -10.0859    5.3890 H   0  0  0  0  0  0  0  0  0  0  0  0
    3.3815  -10.2589    4.5958 H   0  0  0  0  0  0  0  0  0  0  0  0
    4.8165   -7.7023    5.2852 H   0  0  0  0  0  0  0  0  0  0  0  0
    5.9869   -8.4286    3.5516 H   0  0  0  0  0  0  0  0  0  0  0  0
    3.7385   -9.7631    2.0806 H   0  0  0  0  0  0  0  0  0  0  0  0
    5.0395  -10.4813    3.0135 H   0  0  0  0  0  0  0  0  0  0  0  0
    5.4028   -9.6680    1.5332 H   0  0  0  0  0  0  0  0  0  0  0  0
    6.1583   -6.6317    2.3328 H   0  0  0  0  0  0  0  0  0  0  0  0
    5.3132   -7.5046    1.1319 H   0  0  0  0  0  0  0  0  0  0  0  0
    4.6114   -5.4158    2.8089 H   0  0  0  0  0  0  0  0  0  0  0  0
    4.5310   -0.4479   -0.6130 H   0  0  0  0  0  0  0  0  0  0  0  0
    4.5064    0.6251   -2.8117 H   0  0  0  0  0  0  0  0  0  0  0  0
    4.0639   -0.6867   -4.8824 H   0  0  0  0  0  0  0  0  0  0  0  0
    3.5896   -3.1568   -4.6876 H   0  0  0  0  0  0  0  0  0  0  0  0
    3.5843   -4.2196   -2.4944 H   0  0  0  0  0  0  0  0  0  0  0  0
    4.2327   -3.6204    4.0462 H   0  0  0  0  0  0  0  0  0  0  0  0
    3.7641   -2.0600    3.5711 H   0  0  0  0  0  0  0  0  0  0  0  0
    1.7661   -2.2297    4.5293 H   0  0  0  0  0  0  0  0  0  0  0  0
    1.2672   -3.3936    3.3890 H   0  0  0  0  0  0  0  0  0  0  0  0
    1.8084   -3.6547    6.2987 H   0  0  0  0  0  0  0  0  0  0  0  0
   -0.2772   -4.6433    5.8215 H   0  0  0  0  0  0  0  0  0  0  0  0
    0.2437   -5.3844    4.3698 H   0  0  0  0  0  0  0  0  0  0  0  0
    0.4756   -6.4095    7.1853 H   0  0  0  0  0  0  0  0  0  0  0  0
   -0.1373   -7.2073    5.7784 H   0  0  0  0  0  0  0  0  0  0  0  0
    2.6919   -7.0333    6.8189 H   0  0  0  0  0  0  0  0  0  0  0  0
    0.6708   -6.2156    1.3125 H   0  0  0  0  0  0  0  0  0  0  0  0
    1.9330   -6.3318    0.0924 H   0  0  0  0  0  0  0  0  0  0  0  0
    1.6734   -4.8324    0.9341 H   0  0  0  0  0  0  0  0  0  0  0  0
    4.1210   -5.8758    4.5233 H   0  0  0  0  0  0  0  0  0  0  0  0
  1  2  1  0
  1 37  1  0
  1 38  1  0
  1 39  1  0
  2 28  1  0
  2  3  1  0
  2 40  1  6
  3  4  1  0
  3 41  1  0
  3 42  1  0
  4  5  1  0
  4 43  1  0
  4 44  1  0
  5 29  1  0
  5  6  1  0
  5 45  1  1
  6  7  1  0
  6  8  1  0
  6 46  1  1
  7 47  1  0
  7 48  1  0
  7 49  1  0
  8  9  1  0
  8 50  1  0
  8 51  1  0
  9 32  1  0
  9 10  1  0
  9 52  1  1
 10 22  1  0
 10 11  1  0
 11 12  2  0
 11 13  1  0
 13 14  1  0
 13 20  1  0
 14 19  1  0
 14 15  2  0
 15 16  1  0
 15 53  1  0
 16 17  2  0
 16 54  1  0
 17 18  1  0
 17 55  1  0
 18 19  2  0
 18 56  1  0
 19 57  1  0
 20 21  2  0
 20 22  1  0
 22 23  1  0
 23 24  1  0
 23 58  1  0
 23 59  1  0
 24 25  1  0
 24 60  1  0
 24 61  1  0
 25 36  1  0
 25 26  1  0
 25 62  1  1
 26 27  1  0
 26 63  1  0
 26 64  1  0
 27 28  1  0
 27 65  1  0
 27 66  1  0
 28 29  1  0
 28 67  1  1
 29 35  1  0
 29 30  1  6
 30 31  1  0
 31 32  1  0
 32 33  1  6
 32 34  1  0
 33 68  1  0
 33 69  1  0
 33 70  1  0
 34 35  1  0
 35 36  1  0
 35 71  1  6
M  END
>  <i_m_ct_stereo_status>  (53) 
1

>  <s_m_source_file>  (53) 
/var/tmp/pbs.5076255.sched01/tmp25ygy55i/01wbi4d2b.sdf

>  <i_m_source_file_index>  (53) 
21

>  <i_lp_mmshare_version>  (53) 
48012

>  <i_f3d_flags>  (53) 
0

>  <s_epik_input>  (53) 
W0NAQF0xMjNbQ0BIXTRbQ0gyXVtDSDJdW0NAQEhdKFtDSDNdKVtDQEBIXTFbQ0gyXVtDSDJdW0NAQEhdNVtDSDJdW0NIMl1uNm4oW0NASF0oW0NIMl1bQ0BASF00W0NIM10pW0NAXShPTzIpKFtDSDNdKU9bQ0BIXTNPNSljKD1PKW4oYzY9TyktYzdbY0hdW2NIXVtjSF1bY0hdW2NIXTc=

>  <s_epik_cmdline>  (53) 
J2VwaWtfcHl0aG9uJywgJy1waHQnLCAnMi4wJywgJy1waCcsICc3LjAnLCAnLXRuJywgJzgnLCAnLW1hJywgJzIwMCcsICctaW1hZScsICc8aW5maWxlLm1hZT4nLCAnLW9tYWUnLCAnPG91dGZpbGUubWFlPic=

>  <r_lp_tautomer_probability>  (53) 
1

>  <r_epik_Ionization_Penalty>  (53) 
5.26004e-07

>  <r_epik_Ionization_Penalty_Charging>  (53) 
5.25999e-07

>  <r_epik_Ionization_Penalty_Neutral>  (53) 
4.66308e-12

>  <r_epik_State_Penalty>  (53) 
-0

>  <r_epik_Charging_Adjusted_Penalty>  (53) 
5.25999e-07

>  <i_epik_Tot_Q>  (53) 
0

>  <i_epik_Tot_abs_Q>  (53) 
0

>  <s_epik_Chemistry_Notes>  (53) 
This compound contains an acetal/aminal-like group ( X-CH(R)-Y where X, Y are N, S, or O) that may be acid/base labile, releasing an aldehyde.

>  <s_lp_Force_Field>  (53) 
OPLS3e

>  <r_lp_Energy>  (53) 
160.639

>  <b_lp_Chiralities_Consistent>  (53) 
1

>  <s_lp_Variant>  (53) 
17:0-1

>  <s_i_glide_gridfile>  (53) 
pfpi4k_grid

>  <i_i_glide_lignum>  (53) 
21

>  <i_i_glide_rotatable_bonds>  (53) 
1

>  <r_i_docking_score>  (53) 
-1.90492

>  <r_i_glide_ligand_efficiency>  (53) 
-0.0529145

>  <r_i_glide_ligand_efficiency_sa>  (53) 
-0.17472

>  <r_i_glide_ligand_efficiency_ln>  (53) 
-0.415602

>  <r_i_glide_gscore>  (53) 
-1.90492

>  <r_i_glide_lipo>  (53) 
-0.425305

>  <r_i_glide_hbond>  (53) 
0

>  <r_i_glide_metal>  (53) 
-0

>  <r_i_glide_rewards>  (53) 
-0.0912345

>  <r_i_glide_evdw>  (53) 
-31.93

>  <r_i_glide_ecoul>  (53) 
0.972911

>  <r_i_glide_erotb>  (53) 
0.0823952

>  <r_i_glide_esite>  (53) 
-0.0202151

>  <r_i_glide_emodel>  (53) 
-34.6242

>  <r_i_glide_energy>  (53) 
-30.9571

>  <r_i_glide_einternal>  (53) 
0.608293

>  <r_i_glide_intrahb_reward>  (53) 
-0

>  <i_i_glide_confnum>  (53) 
3

>  <i_i_glide_posenum>  (53) 
15

>  <r_i_glide_eff_state_penalty>  (53) 
0

>  <ligand_id>  (53) 
17

>  <original_smiles>  (53) 
CC1CCC2C(C)CC3n4c(=O)n(-c5ccccc5)c(=O)n4CCC4CCC1C21OOC3(C)OC1O4

>  <smiles>  (53) 
[H]c1c([H])c([H])c(-n2c(=O)n3n(c2=O)C2([H])C([H])([H])C([H])(C([H])([H])[H])C4([H])C([H])([H])C([H])([H])C([H])(C([H])([H])[H])C5([H])C([H])([H])C([H])([H])C([H])(OC6([H])OC2(C([H])([H])[H])OOC654)C([H])([H])C3([H])[H])c([H])c1[H]

$$$$
17:0:2
     RDKit          3D

 71 77  0  0  1  0  0  0  0  0999 V2000
    3.9977   -7.6596    7.8125 C   0  0  0  0  0  0  0  0  0  0  0  0
    4.1511   -7.6479    6.2732 C   0  0  2  0  0  0  0  0  0  0  0  0
    5.3134   -8.5626    5.8475 C   0  0  0  0  0  0  0  0  0  0  0  0
    5.4341   -8.6920    4.3152 C   0  0  0  0  0  0  0  0  0  0  0  0
    5.5793   -7.3467    3.5556 C   0  0  1  0  0  0  0  0  0  0  0  0
    5.7515   -7.5639    1.9570 C   0  0  1  0  0  0  0  0  0  0  0  0
    5.0391   -8.8276    1.4031 C   0  0  0  0  0  0  0  0  0  0  0  0
    5.7384   -6.3989    0.8448 C   0  0  0  0  0  0  0  0  0  0  0  0
    4.9307   -5.0878    1.0437 C   0  0  1  0  0  0  0  0  0  0  0  0
    5.0655   -3.7958    0.3731 N   0  0  0  0  0  0  0  0  0  0  0  0
    4.9032   -3.5340   -0.9089 C   0  0  0  0  0  0  0  0  0  0  0  0
    5.0365   -4.3451   -1.8219 O   0  0  0  0  0  0  0  0  0  0  0  0
    4.5426   -2.2601   -1.0377 N   0  0  0  0  0  0  0  0  0  0  0  0
    4.1314   -1.7049   -2.2829 C   0  0  0  0  0  0  0  0  0  0  0  0
    4.7699   -1.9721   -3.4731 C   0  0  0  0  0  0  0  0  0  0  0  0
    4.3468   -1.2955   -4.6325 C   0  0  0  0  0  0  0  0  0  0  0  0
    3.3183   -0.3696   -4.7605 C   0  0  0  0  0  0  0  0  0  0  0  0
    2.6338   -0.1972   -3.5859 C   0  0  0  0  0  0  0  0  0  0  0  0
    3.0427   -0.8631   -2.4073 C   0  0  0  0  0  0  0  0  0  0  0  0
    4.5130   -1.6360    0.1637 C   0  0  0  0  0  0  0  0  0  0  0  0
    4.3275   -0.4469    0.3872 O   0  0  0  0  0  0  0  0  0  0  0  0
    4.8498   -2.5323    1.0946 N   0  0  0  0  0  0  0  0  0  0  0  0
    5.3833   -2.1881    2.4485 C   0  0  0  0  0  0  0  0  0  0  0  0
    4.3314   -2.0570    3.6302 C   0  0  0  0  0  0  0  0  0  0  0  0
    4.4612   -3.0333    4.8916 C   0  0  1  0  0  0  0  0  0  0  0  0
    3.1752   -3.7367    5.4558 C   0  0  0  0  0  0  0  0  0  0  0  0
    3.3411   -5.1413    6.1765 C   0  0  0  0  0  0  0  0  0  0  0  0
    4.3745   -6.2394    5.6794 C   0  0  2  0  0  0  0  0  0  0  0  0
    4.4856   -6.3662    4.1341 C   0  0  2  0  0  0  0  0  0  0  0  0
    3.1797   -6.6462    3.6314 O   0  0  0  0  0  0  0  0  0  0  0  0
    3.2896   -6.5655    2.0889 O   0  0  0  0  0  0  0  0  0  0  0  0
    3.6027   -5.2298    1.7832 C   0  0  2  0  0  0  0  0  0  0  0  0
    2.3682   -4.6245    1.0959 C   0  0  0  0  0  0  0  0  0  0  0  0
    3.8731   -4.5099    2.9168 O   0  0  0  0  0  0  0  0  0  0  0  0
    4.9143   -4.9728    3.7004 C   0  0  1  0  0  0  0  0  0  0  0  0
    5.3429   -4.1023    4.6873 O   0  0  0  0  0  0  0  0  0  0  0  0
    4.8538   -7.2105    8.3048 H   0  0  0  0  0  0  0  0  0  0  0  0
    3.8801   -8.6720    8.1850 H   0  0  0  0  0  0  0  0  0  0  0  0
    3.1015   -7.1151    8.1250 H   0  0  0  0  0  0  0  0  0  0  0  0
    3.2311   -8.0670    5.8685 H   0  0  0  0  0  0  0  0  0  0  0  0
    6.2531   -8.1725    6.2464 H   0  0  0  0  0  0  0  0  0  0  0  0
    5.1834   -9.5562    6.2794 H   0  0  0  0  0  0  0  0  0  0  0  0
    6.2805   -9.3429    4.0933 H   0  0  0  0  0  0  0  0  0  0  0  0
    4.5410   -9.2255    3.9741 H   0  0  0  0  0  0  0  0  0  0  0  0
    6.5510   -6.9796    3.8807 H   0  0  0  0  0  0  0  0  0  0  0  0
    6.7947   -7.9001    1.8855 H   0  0  0  0  0  0  0  0  0  0  0  0
    3.9569   -8.7911    1.4969 H   0  0  0  0  0  0  0  0  0  0  0  0
    5.3767   -9.7407    1.8917 H   0  0  0  0  0  0  0  0  0  0  0  0
    5.2627   -8.9905    0.3483 H   0  0  0  0  0  0  0  0  0  0  0  0
    6.7691   -6.1488    0.5904 H   0  0  0  0  0  0  0  0  0  0  0  0
    5.3383   -6.8089   -0.0789 H   0  0  0  0  0  0  0  0  0  0  0  0
    5.7721   -4.6667    1.5393 H   0  0  0  0  0  0  0  0  0  0  0  0
    5.6616   -2.5915   -3.4996 H   0  0  0  0  0  0  0  0  0  0  0  0
    4.9525   -1.4564   -5.4388 H   0  0  0  0  0  0  0  0  0  0  0  0
    3.0778    0.1477   -5.6856 H   0  0  0  0  0  0  0  0  0  0  0  0
    1.8443    0.5375   -3.5724 H   0  0  0  0  0  0  0  0  0  0  0  0
    2.6163   -0.6666   -1.4589 H   0  0  0  0  0  0  0  0  0  0  0  0
    6.1883   -2.8698    2.6870 H   0  0  0  0  0  0  0  0  0  0  0  0
    5.8839   -1.2241    2.3377 H   0  0  0  0  0  0  0  0  0  0  0  0
    4.4178   -1.0416    4.0032 H   0  0  0  0  0  0  0  0  0  0  0  0
    3.3144   -2.0876    3.2247 H   0  0  0  0  0  0  0  0  0  0  0  0
    4.9123   -2.4565    5.7050 H   0  0  0  0  0  0  0  0  0  0  0  0
    2.6752   -3.0488    6.1419 H   0  0  0  0  0  0  0  0  0  0  0  0
    2.4488   -3.8633    4.6561 H   0  0  0  0  0  0  0  0  0  0  0  0
    3.5915   -4.9293    7.2183 H   0  0  0  0  0  0  0  0  0  0  0  0
    2.3543   -5.5906    6.2228 H   0  0  0  0  0  0  0  0  0  0  0  0
    5.3450   -5.9416    6.0687 H   0  0  0  0  0  0  0  0  0  0  0  0
    1.5115   -4.7474    1.7565 H   0  0  0  0  0  0  0  0  0  0  0  0
    2.1401   -5.1014    0.1442 H   0  0  0  0  0  0  0  0  0  0  0  0
    2.4439   -3.5517    0.9159 H   0  0  0  0  0  0  0  0  0  0  0  0
    5.9297   -5.0613    3.3323 H   0  0  0  0  0  0  0  0  0  0  0  0
  1  2  1  0
  1 37  1  0
  1 38  1  0
  1 39  1  0
  2 28  1  0
  2  3  1  0
  2 40  1  6
  3  4  1  0
  3 41  1  0
  3 42  1  0
  4  5  1  0
  4 43  1  0
  4 44  1  0
  5 29  1  0
  5  6  1  0
  5 45  1  1
  6  7  1  0
  6  8  1  0
  6 46  1  1
  7 47  1  0
  7 48  1  0
  7 49  1  0
  8  9  1  0
  8 50  1  0
  8 51  1  0
  9 32  1  0
  9 10  1  0
  9 52  1  1
 10 22  1  0
 10 11  1  0
 11 12  2  0
 11 13  1  0
 13 14  1  0
 13 20  1  0
 14 19  1  0
 14 15  2  0
 15 16  1  0
 15 53  1  0
 16 17  2  0
 16 54  1  0
 17 18  1  0
 17 55  1  0
 18 19  2  0
 18 56  1  0
 19 57  1  0
 20 21  2  0
 20 22  1  0
 22 23  1  0
 23 24  1  0
 23 58  1  0
 23 59  1  0
 24 25  1  0
 24 60  1  0
 24 61  1  0
 25 36  1  0
 25 26  1  0
 25 62  1  1
 26 27  1  0
 26 63  1  0
 26 64  1  0
 27 28  1  0
 27 65  1  0
 27 66  1  0
 28 29  1  0
 28 67  1  1
 29 35  1  0
 29 30  1  6
 30 31  1  0
 31 32  1  0
 32 33  1  6
 32 34  1  0
 33 68  1  0
 33 69  1  0
 33 70  1  0
 34 35  1  0
 35 36  1  0
 35 71  1  6
M  END
>  <i_m_ct_stereo_status>  (54) 
1

>  <s_m_source_file>  (54) 
/var/tmp/pbs.5076255.sched01/tmp25ygy55i/01wbi4d2b.sdf

>  <i_m_source_file_index>  (54) 
21

>  <i_lp_mmshare_version>  (54) 
48012

>  <i_f3d_flags>  (54) 
0

>  <s_epik_input>  (54) 
W0NAQF0xMjNbQ0BIXTRbQ0gyXVtDSDJdW0NAQEhdKFtDSDNdKVtDQEBIXTFbQ0gyXVtDSDJdW0NAQEhdNVtDSDJdW0NIMl1uNm4oW0NASF0oW0NIMl1bQ0BASF00W0NIM10pW0NAXShPTzIpKFtDSDNdKU9bQ0BIXTNPNSljKD1PKW4oYzY9TyktYzdbY0hdW2NIXVtjSF1bY0hdW2NIXTc=

>  <s_epik_cmdline>  (54) 
J2VwaWtfcHl0aG9uJywgJy1waHQnLCAnMi4wJywgJy1waCcsICc3LjAnLCAnLXRuJywgJzgnLCAnLW1hJywgJzIwMCcsICctaW1hZScsICc8aW5maWxlLm1hZT4nLCAnLW9tYWUnLCAnPG91dGZpbGUubWFlPic=

>  <r_lp_tautomer_probability>  (54) 
1

>  <r_epik_Ionization_Penalty>  (54) 
5.26004e-07

>  <r_epik_Ionization_Penalty_Charging>  (54) 
5.25999e-07

>  <r_epik_Ionization_Penalty_Neutral>  (54) 
4.66308e-12

>  <r_epik_State_Penalty>  (54) 
-0

>  <r_epik_Charging_Adjusted_Penalty>  (54) 
5.25999e-07

>  <i_epik_Tot_Q>  (54) 
0

>  <i_epik_Tot_abs_Q>  (54) 
0

>  <s_epik_Chemistry_Notes>  (54) 
This compound contains an acetal/aminal-like group ( X-CH(R)-Y where X, Y are N, S, or O) that may be acid/base labile, releasing an aldehyde.

>  <s_lp_Force_Field>  (54) 
OPLS3e

>  <r_lp_Energy>  (54) 
160.639

>  <b_lp_Chiralities_Consistent>  (54) 
1

>  <s_lp_Variant>  (54) 
17:0-1

>  <s_i_glide_gridfile>  (54) 
pfpi4k_grid

>  <i_i_glide_lignum>  (54) 
21

>  <i_i_glide_rotatable_bonds>  (54) 
1

>  <r_i_docking_score>  (54) 
-0.692329

>  <r_i_glide_ligand_efficiency>  (54) 
-0.0192314

>  <r_i_glide_ligand_efficiency_sa>  (54) 
-0.0635006

>  <r_i_glide_ligand_efficiency_ln>  (54) 
-0.151048

>  <r_i_glide_gscore>  (54) 
-0.692329

>  <r_i_glide_lipo>  (54) 
-0.684159

>  <r_i_glide_hbond>  (54) 
0

>  <r_i_glide_metal>  (54) 
-0

>  <r_i_glide_rewards>  (54) 
-0.176361

>  <r_i_glide_evdw>  (54) 
-2.73132

>  <r_i_glide_ecoul>  (54) 
1.71072

>  <r_i_glide_erotb>  (54) 
0.0823952

>  <r_i_glide_esite>  (54) 
-0.0342473

>  <r_i_glide_emodel>  (54) 
-0.422647

>  <r_i_glide_energy>  (54) 
-1.02059

>  <r_i_glide_einternal>  (54) 
0.215705

>  <r_i_glide_intrahb_reward>  (54) 
-0

>  <i_i_glide_confnum>  (54) 
4

>  <i_i_glide_posenum>  (54) 
16

>  <r_i_glide_eff_state_penalty>  (54) 
0

>  <ligand_id>  (54) 
17

>  <original_smiles>  (54) 
CC1CCC2C(C)CC3n4c(=O)n(-c5ccccc5)c(=O)n4CCC4CCC1C21OOC3(C)OC1O4

>  <smiles>  (54) 
[H]c1c([H])c([H])c(-n2c(=O)n3n(c2=O)C2([H])C([H])([H])C([H])(C([H])([H])[H])C4([H])C([H])([H])C([H])([H])C([H])(C([H])([H])[H])C5([H])C([H])([H])C([H])([H])C([H])(OC6([H])OC2(C([H])([H])[H])OOC654)C([H])([H])C3([H])[H])c([H])c1[H]

$$$$
18:0:0
     RDKit          3D

 23 24  0  0  1  0  0  0  0  0999 V2000
   -6.4529   -4.0653   -4.0204 C   0  0  0  0  0  0  0  0  0  0  0  0
   -6.9129   -5.0216   -5.0213 N   0  0  0  0  0  0  0  0  0  0  0  0
   -6.2528   -6.1496   -5.2893 C   0  0  0  0  0  0  0  0  0  0  0  0
   -5.1912   -6.4797   -4.7571 O   0  0  0  0  0  0  0  0  0  0  0  0
   -7.0129   -7.1378   -6.4899 S   0  0  0  0  0  0  0  0  0  0  0  0
   -8.2926   -5.9253   -6.6734 C   0  0  0  0  0  0  0  0  0  0  0  0
   -9.3772   -5.9529   -7.4795 C   0  0  0  0  0  0  0  0  0  0  0  0
   -9.7264   -6.9632   -8.4868 C   0  0  0  0  0  0  0  0  0  0  0  0
  -11.0793   -7.2984   -8.7191 C   0  0  0  0  0  0  0  0  0  0  0  0
  -11.3755   -8.3026   -9.6628 C   0  0  0  0  0  0  0  0  0  0  0  0
  -10.3106   -8.9309  -10.3364 C   0  0  0  0  0  0  0  0  0  0  0  0
   -9.0184   -8.6150  -10.1301 N   0  0  0  0  0  0  0  0  0  0  0  0
   -8.7438   -7.6567   -9.2268 C   0  0  0  0  0  0  0  0  0  0  0  0
   -8.0472   -4.8342   -5.7273 C   0  0  0  0  0  0  0  0  0  0  0  0
   -8.7796   -3.8520   -5.5812 O   0  0  0  0  0  0  0  0  0  0  0  0
   -5.3740   -4.0474   -3.9231 H   0  0  0  0  0  0  0  0  0  0  0  0
   -6.9031   -4.2657   -3.0468 H   0  0  0  0  0  0  0  0  0  0  0  0
   -6.7196   -3.0533   -4.3202 H   0  0  0  0  0  0  0  0  0  0  0  0
  -10.0652   -5.1237   -7.4145 H   0  0  0  0  0  0  0  0  0  0  0  0
  -11.8814   -6.8111   -8.1793 H   0  0  0  0  0  0  0  0  0  0  0  0
  -12.3953   -8.5954   -9.8569 H   0  0  0  0  0  0  0  0  0  0  0  0
  -10.4967   -9.7046  -11.0669 H   0  0  0  0  0  0  0  0  0  0  0  0
   -7.6980   -7.4237   -9.1113 H   0  0  0  0  0  0  0  0  0  0  0  0
  1  2  1  0
  1 16  1  0
  1 17  1  0
  1 18  1  0
  2 14  1  0
  2  3  1  0
  3  4  2  0
  3  5  1  0
  5  6  1  0
  6  7  2  3
  6 14  1  0
  7  8  1  0
  7 19  1  0
  8 13  1  0
  8  9  2  0
  9 10  1  0
  9 20  1  0
 10 11  2  0
 10 21  1  0
 11 12  1  0
 11 22  1  0
 12 13  2  0
 13 23  1  0
 14 15  2  0
M  END
>  <i_m_ct_stereo_status>  (55) 
1

>  <s_m_source_file>  (55) 
/var/tmp/pbs.5076255.sched01/tmp25ygy55i/01wbi4d2b.sdf

>  <i_m_source_file_index>  (55) 
22

>  <i_lp_mmshare_version>  (55) 
48012

>  <i_f3d_flags>  (55) 
0

>  <s_epik_input>  (55) 
W0NIM11OMUMoPU8pUy9DKEMxPU8pPVtDSF1cYzJbY0hdW2NIXVtjSF1uW2NIXTI=

>  <s_epik_cmdline>  (55) 
J2VwaWtfcHl0aG9uJywgJy1waHQnLCAnMi4wJywgJy1waCcsICc3LjAnLCAnLXRuJywgJzgnLCAnLW1hJywgJzIwMCcsICctaW1hZScsICc8aW5maWxlLm1hZT4nLCAnLW9tYWUnLCAnPG91dGZpbGUubWFlPic=

>  <r_lp_tautomer_probability>  (55) 
1

>  <r_epik_Ionization_Penalty>  (55) 
5.66357e-05

>  <r_epik_Ionization_Penalty_Charging>  (55) 
0

>  <r_epik_Ionization_Penalty_Neutral>  (55) 
5.66357e-05

>  <r_epik_State_Penalty>  (55) 
-0

>  <r_epik_Charging_Adjusted_Penalty>  (55) 
0

>  <i_epik_Tot_Q>  (55) 
0

>  <i_epik_Tot_abs_Q>  (55) 
0

>  <s_lp_Force_Field>  (55) 
OPLS3e

>  <r_lp_Energy>  (55) 
13.9608

>  <b_lp_Chiralities_Consistent>  (55) 
1

>  <s_lp_Variant>  (55) 
18:0-1

>  <s_i_glide_gridfile>  (55) 
pfpi4k_grid

>  <i_i_glide_lignum>  (55) 
22

>  <i_i_glide_rotatable_bonds>  (55) 
1

>  <r_i_docking_score>  (55) 
-6.22679

>  <r_i_glide_ligand_efficiency>  (55) 
-0.415119

>  <r_i_glide_ligand_efficiency_sa>  (55) 
-1.02377

>  <r_i_glide_ligand_efficiency_ln>  (55) 
-1.67926

>  <r_i_glide_gscore>  (55) 
-6.22679

>  <r_i_glide_lipo>  (55) 
-0.904643

>  <r_i_glide_hbond>  (55) 
-0.192685

>  <r_i_glide_metal>  (55) 
-0

>  <r_i_glide_rewards>  (55) 
-3.45494

>  <r_i_glide_evdw>  (55) 
-26.1914

>  <r_i_glide_ecoul>  (55) 
-2.43302

>  <r_i_glide_erotb>  (55) 
0

>  <r_i_glide_esite>  (55) 
0

>  <r_i_glide_emodel>  (55) 
-38.8458

>  <r_i_glide_energy>  (55) 
-28.6244

>  <r_i_glide_einternal>  (55) 
1.12185

>  <r_i_glide_intrahb_reward>  (55) 
-0

>  <i_i_glide_confnum>  (55) 
1

>  <i_i_glide_posenum>  (55) 
16

>  <r_i_glide_eff_state_penalty>  (55) 
0

>  <ligand_id>  (55) 
18

>  <original_smiles>  (55) 
CN1C(=O)SC(=Cc2cccnc2)C1=O

>  <smiles>  (55) 
[H]C(=C1SC(=O)N(C([H])([H])[H])C1=O)c1c([H])nc([H])c([H])c1[H]

$$$$
18:0:1
     RDKit          3D

 23 24  0  0  1  0  0  0  0  0999 V2000
   -0.0926   -9.7166    2.4573 C   0  0  0  0  0  0  0  0  0  0  0  0
    0.0389   -9.0568    3.7531 N   0  0  0  0  0  0  0  0  0  0  0  0
    0.5959   -9.6635    4.8016 C   0  0  0  0  0  0  0  0  0  0  0  0
    1.0705  -10.7970    4.7851 O   0  0  0  0  0  0  0  0  0  0  0  0
    0.5973   -8.7080    6.2443 S   0  0  0  0  0  0  0  0  0  0  0  0
   -0.1493   -7.3739    5.3536 C   0  0  0  0  0  0  0  0  0  0  0  0
   -0.5017   -6.1502    5.8024 C   0  0  0  0  0  0  0  0  0  0  0  0
   -0.2944   -5.5433    7.1306 C   0  0  0  0  0  0  0  0  0  0  0  0
    0.7027   -5.9721    8.0292 C   0  0  0  0  0  0  0  0  0  0  0  0
    0.7931   -5.3710    9.2908 C   0  0  0  0  0  0  0  0  0  0  0  0
   -0.1083   -4.3408    9.6116 C   0  0  0  0  0  0  0  0  0  0  0  0
   -1.0595   -3.9029    8.7579 N   0  0  0  0  0  0  0  0  0  0  0  0
   -1.1536   -4.5079    7.5559 C   0  0  0  0  0  0  0  0  0  0  0  0
   -0.3838   -7.7909    3.9675 C   0  0  0  0  0  0  0  0  0  0  0  0
   -0.8925   -7.0776    3.0949 O   0  0  0  0  0  0  0  0  0  0  0  0
   -0.1744  -10.8015    2.5423 H   0  0  0  0  0  0  0  0  0  0  0  0
    0.7798   -9.4983    1.8388 H   0  0  0  0  0  0  0  0  0  0  0  0
   -0.9829   -9.3795    1.9230 H   0  0  0  0  0  0  0  0  0  0  0  0
   -0.9558   -5.4917    5.0818 H   0  0  0  0  0  0  0  0  0  0  0  0
    1.4206   -6.7341    7.7702 H   0  0  0  0  0  0  0  0  0  0  0  0
    1.5501   -5.6925    9.9878 H   0  0  0  0  0  0  0  0  0  0  0  0
   -0.0523   -3.8512   10.5732 H   0  0  0  0  0  0  0  0  0  0  0  0
   -1.9430   -4.1414    6.9183 H   0  0  0  0  0  0  0  0  0  0  0  0
  1  2  1  0
  1 16  1  0
  1 17  1  0
  1 18  1  0
  2 14  1  0
  2  3  1  0
  3  4  2  0
  3  5  1  0
  5  6  1  0
  6  7  2  3
  6 14  1  0
  7  8  1  0
  7 19  1  0
  8 13  1  0
  8  9  2  0
  9 10  1  0
  9 20  1  0
 10 11  2  0
 10 21  1  0
 11 12  1  0
 11 22  1  0
 12 13  2  0
 13 23  1  0
 14 15  2  0
M  END
>  <i_m_ct_stereo_status>  (56) 
1

>  <s_m_source_file>  (56) 
/var/tmp/pbs.5076255.sched01/tmp25ygy55i/01wbi4d2b.sdf

>  <i_m_source_file_index>  (56) 
22

>  <i_lp_mmshare_version>  (56) 
48012

>  <i_f3d_flags>  (56) 
0

>  <s_epik_input>  (56) 
W0NIM11OMUMoPU8pUy9DKEMxPU8pPVtDSF1cYzJbY0hdW2NIXVtjSF1uW2NIXTI=

>  <s_epik_cmdline>  (56) 
J2VwaWtfcHl0aG9uJywgJy1waHQnLCAnMi4wJywgJy1waCcsICc3LjAnLCAnLXRuJywgJzgnLCAnLW1hJywgJzIwMCcsICctaW1hZScsICc8aW5maWxlLm1hZT4nLCAnLW9tYWUnLCAnPG91dGZpbGUubWFlPic=

>  <r_lp_tautomer_probability>  (56) 
1

>  <r_epik_Ionization_Penalty>  (56) 
5.66357e-05

>  <r_epik_Ionization_Penalty_Charging>  (56) 
0

>  <r_epik_Ionization_Penalty_Neutral>  (56) 
5.66357e-05

>  <r_epik_State_Penalty>  (56) 
-0

>  <r_epik_Charging_Adjusted_Penalty>  (56) 
0

>  <i_epik_Tot_Q>  (56) 
0

>  <i_epik_Tot_abs_Q>  (56) 
0

>  <s_lp_Force_Field>  (56) 
OPLS3e

>  <r_lp_Energy>  (56) 
13.9608

>  <b_lp_Chiralities_Consistent>  (56) 
1

>  <s_lp_Variant>  (56) 
18:0-1

>  <s_i_glide_gridfile>  (56) 
pfpi4k_grid

>  <i_i_glide_lignum>  (56) 
22

>  <i_i_glide_rotatable_bonds>  (56) 
1

>  <r_i_docking_score>  (56) 
-3.76718

>  <r_i_glide_ligand_efficiency>  (56) 
-0.251145

>  <r_i_glide_ligand_efficiency_sa>  (56) 
-0.619377

>  <r_i_glide_ligand_efficiency_ln>  (56) 
-1.01595

>  <r_i_glide_gscore>  (56) 
-3.76718

>  <r_i_glide_lipo>  (56) 
-0.0712155

>  <r_i_glide_hbond>  (56) 
-0.195636

>  <r_i_glide_metal>  (56) 
-0

>  <r_i_glide_rewards>  (56) 
-1.9074

>  <r_i_glide_evdw>  (56) 
-18.1997

>  <r_i_glide_ecoul>  (56) 
-3.55984

>  <r_i_glide_erotb>  (56) 
0

>  <r_i_glide_esite>  (56) 
-0.148969

>  <r_i_glide_emodel>  (56) 
-28.2264

>  <r_i_glide_energy>  (56) 
-21.7595

>  <r_i_glide_einternal>  (56) 
0.0415696

>  <r_i_glide_intrahb_reward>  (56) 
-0

>  <i_i_glide_confnum>  (56) 
1

>  <i_i_glide_posenum>  (56) 
3

>  <r_i_glide_eff_state_penalty>  (56) 
0

>  <ligand_id>  (56) 
18

>  <original_smiles>  (56) 
CN1C(=O)SC(=Cc2cccnc2)C1=O

>  <smiles>  (56) 
[H]C(=C1SC(=O)N(C([H])([H])[H])C1=O)c1c([H])nc([H])c([H])c1[H]

$$$$
18:0:2
     RDKit          3D

 23 24  0  0  1  0  0  0  0  0999 V2000
    2.7584   -4.6618    0.3597 C   0  0  0  0  0  0  0  0  0  0  0  0
    2.7283   -5.9318    1.0956 N   0  0  0  0  0  0  0  0  0  0  0  0
    1.6077   -6.6242    1.2933 C   0  0  0  0  0  0  0  0  0  0  0  0
    0.4979   -6.2815    0.8850 O   0  0  0  0  0  0  0  0  0  0  0  0
    1.8245   -8.0800    2.2027 S   0  0  0  0  0  0  0  0  0  0  0  0
    3.5600   -7.7437    2.3144 C   0  0  0  0  0  0  0  0  0  0  0  0
    4.5247   -8.4476    2.9454 C   0  0  0  0  0  0  0  0  0  0  0  0
    4.4171   -9.7426    3.6394 C   0  0  0  0  0  0  0  0  0  0  0  0
    3.4304  -10.7012    3.3309 C   0  0  0  0  0  0  0  0  0  0  0  0
    3.3760  -11.8851    4.0778 C   0  0  0  0  0  0  0  0  0  0  0  0
    4.3163  -12.0837    5.1025 C   0  0  0  0  0  0  0  0  0  0  0  0
    5.2791  -11.1850    5.3975 N   0  0  0  0  0  0  0  0  0  0  0  0
    5.3136  -10.0410    4.6861 C   0  0  0  0  0  0  0  0  0  0  0  0
    3.8442   -6.4863    1.6131 C   0  0  0  0  0  0  0  0  0  0  0  0
    4.9599   -5.9761    1.5045 O   0  0  0  0  0  0  0  0  0  0  0  0
    1.8182   -4.1182    0.4215 H   0  0  0  0  0  0  0  0  0  0  0  0
    2.9728   -4.8344   -0.6935 H   0  0  0  0  0  0  0  0  0  0  0  0
    3.5267   -3.9935    0.7470 H   0  0  0  0  0  0  0  0  0  0  0  0
    5.5294   -8.0492    2.8991 H   0  0  0  0  0  0  0  0  0  0  0  0
    2.7309  -10.5657    2.5210 H   0  0  0  0  0  0  0  0  0  0  0  0
    2.6316  -12.6322    3.8578 H   0  0  0  0  0  0  0  0  0  0  0  0
    4.3078  -12.9971    5.6809 H   0  0  0  0  0  0  0  0  0  0  0  0
    6.0871   -9.3456    4.9689 H   0  0  0  0  0  0  0  0  0  0  0  0
  1  2  1  0
  1 16  1  0
  1 17  1  0
  1 18  1  0
  2 14  1  0
  2  3  1  0
  3  4  2  0
  3  5  1  0
  5  6  1  0
  6  7  2  3
  6 14  1  0
  7  8  1  0
  7 19  1  0
  8 13  1  0
  8  9  2  0
  9 10  1  0
  9 20  1  0
 10 11  2  0
 10 21  1  0
 11 12  1  0
 11 22  1  0
 12 13  2  0
 13 23  1  0
 14 15  2  0
M  END
>  <i_m_ct_stereo_status>  (57) 
1

>  <s_m_source_file>  (57) 
/var/tmp/pbs.5076255.sched01/tmp25ygy55i/01wbi4d2b.sdf

>  <i_m_source_file_index>  (57) 
22

>  <i_lp_mmshare_version>  (57) 
48012

>  <i_f3d_flags>  (57) 
0

>  <s_epik_input>  (57) 
W0NIM11OMUMoPU8pUy9DKEMxPU8pPVtDSF1cYzJbY0hdW2NIXVtjSF1uW2NIXTI=

>  <s_epik_cmdline>  (57) 
J2VwaWtfcHl0aG9uJywgJy1waHQnLCAnMi4wJywgJy1waCcsICc3LjAnLCAnLXRuJywgJzgnLCAnLW1hJywgJzIwMCcsICctaW1hZScsICc8aW5maWxlLm1hZT4nLCAnLW9tYWUnLCAnPG91dGZpbGUubWFlPic=

>  <r_lp_tautomer_probability>  (57) 
1

>  <r_epik_Ionization_Penalty>  (57) 
5.66357e-05

>  <r_epik_Ionization_Penalty_Charging>  (57) 
0

>  <r_epik_Ionization_Penalty_Neutral>  (57) 
5.66357e-05

>  <r_epik_State_Penalty>  (57) 
-0

>  <r_epik_Charging_Adjusted_Penalty>  (57) 
0

>  <i_epik_Tot_Q>  (57) 
0

>  <i_epik_Tot_abs_Q>  (57) 
0

>  <s_lp_Force_Field>  (57) 
OPLS3e

>  <r_lp_Energy>  (57) 
13.9608

>  <b_lp_Chiralities_Consistent>  (57) 
1

>  <s_lp_Variant>  (57) 
18:0-1

>  <s_i_glide_gridfile>  (57) 
pfpi4k_grid

>  <i_i_glide_lignum>  (57) 
22

>  <i_i_glide_rotatable_bonds>  (57) 
1

>  <r_i_docking_score>  (57) 
-3.73733

>  <r_i_glide_ligand_efficiency>  (57) 
-0.249156

>  <r_i_glide_ligand_efficiency_sa>  (57) 
-0.614471

>  <r_i_glide_ligand_efficiency_ln>  (57) 
-1.0079

>  <r_i_glide_gscore>  (57) 
-3.73733

>  <r_i_glide_lipo>  (57) 
0

>  <r_i_glide_hbond>  (57) 
-0.16

>  <r_i_glide_metal>  (57) 
-0

>  <r_i_glide_rewards>  (57) 
-1.9758

>  <r_i_glide_evdw>  (57) 
-14.7331

>  <r_i_glide_ecoul>  (57) 
-5.35114

>  <r_i_glide_erotb>  (57) 
0

>  <r_i_glide_esite>  (57) 
-0.0622065

>  <r_i_glide_emodel>  (57) 
-26.5492

>  <r_i_glide_energy>  (57) 
-20.0842

>  <r_i_glide_einternal>  (57) 
0.00479086

>  <r_i_glide_intrahb_reward>  (57) 
-0

>  <i_i_glide_confnum>  (57) 
1

>  <i_i_glide_posenum>  (57) 
17

>  <r_i_glide_eff_state_penalty>  (57) 
0

>  <ligand_id>  (57) 
18

>  <original_smiles>  (57) 
CN1C(=O)SC(=Cc2cccnc2)C1=O

>  <smiles>  (57) 
[H]C(=C1SC(=O)N(C([H])([H])[H])C1=O)c1c([H])nc([H])c([H])c1[H]

$$$$
18:1:0
     RDKit          3D

 23 24  0  0  1  0  0  0  0  0999 V2000
   -2.5747    3.0902    6.3907 C   0  0  0  0  0  0  0  0  0  0  0  0
   -1.9254    2.4585    5.2412 N   0  0  0  0  0  0  0  0  0  0  0  0
   -1.7911    3.0530    4.0420 C   0  0  0  0  0  0  0  0  0  0  0  0
   -2.1866    4.2023    3.7594 O   0  0  0  0  0  0  0  0  0  0  0  0
   -0.9770    2.0601    2.8809 S   0  0  0  0  0  0  0  0  0  0  0  0
   -0.8301    0.7547    4.0665 C   0  0  0  0  0  0  0  0  0  0  0  0
   -0.2732   -0.4498    3.8044 C   0  0  0  0  0  0  0  0  0  0  0  0
   -0.1879   -1.6642    4.6474 C   0  0  0  0  0  0  0  0  0  0  0  0
    0.8928   -2.5673    4.4881 C   0  0  0  0  0  0  0  0  0  0  0  0
    0.9726   -3.7002    5.3301 C   0  0  0  0  0  0  0  0  0  0  0  0
   -0.0178   -3.8790    6.3188 C   0  0  0  0  0  0  0  0  0  0  0  0
   -1.0655   -3.0417    6.4651 N   0  0  0  0  0  0  0  0  0  0  0  0
   -1.1494   -1.9883    5.6321 C   0  0  0  0  0  0  0  0  0  0  0  0
   -1.3855    1.2215    5.3352 C   0  0  0  0  0  0  0  0  0  0  0  0
   -1.3732    0.6046    6.4042 O   0  0  0  0  0  0  0  0  0  0  0  0
   -2.4431    4.1566    6.3713 H   0  0  0  0  0  0  0  0  0  0  0  0
   -2.1326    2.7790    7.3410 H   0  0  0  0  0  0  0  0  0  0  0  0
   -3.6451    2.8683    6.4271 H   0  0  0  0  0  0  0  0  0  0  0  0
    0.1229   -0.5708    2.8096 H   0  0  0  0  0  0  0  0  0  0  0  0
    1.6459   -2.4132    3.7282 H   0  0  0  0  0  0  0  0  0  0  0  0
    1.7689   -4.4223    5.2296 H   0  0  0  0  0  0  0  0  0  0  0  0
    0.0054   -4.7244    6.9966 H   0  0  0  0  0  0  0  0  0  0  0  0
   -2.0444   -1.3944    5.7476 H   0  0  0  0  0  0  0  0  0  0  0  0
  1  2  1  0
  1 16  1  0
  1 17  1  0
  1 18  1  0
  2 14  1  0
  2  3  1  0
  3  4  2  0
  3  5  1  0
  5  6  1  0
  6  7  2  3
  6 14  1  0
  7  8  1  0
  7 19  1  0
  8 13  1  0
  8  9  2  0
  9 10  1  0
  9 20  1  0
 10 11  2  0
 10 21  1  0
 11 12  1  0
 11 22  1  0
 12 13  2  0
 13 23  1  0
 14 15  2  0
M  END
>  <i_m_ct_stereo_status>  (58) 
1

>  <s_m_source_file>  (58) 
/var/tmp/pbs.5076255.sched01/tmp25ygy55i/01wbi4d2b.sdf

>  <i_m_source_file_index>  (58) 
23

>  <i_lp_mmshare_version>  (58) 
48012

>  <i_f3d_flags>  (58) 
0

>  <s_epik_input>  (58) 
W0NIM11OMUMoPU8pUy9DKEMxPU8pPVtDSF1cYzJbY0hdW2NIXVtjSF1uW2NIXTI=

>  <s_epik_cmdline>  (58) 
J2VwaWtfcHl0aG9uJywgJy1waHQnLCAnMi4wJywgJy1waCcsICc3LjAnLCAnLXRuJywgJzgnLCAnLW1hJywgJzIwMCcsICctaW1hZScsICc8aW5maWxlLm1hZT4nLCAnLW9tYWUnLCAnPG91dGZpbGUubWFlPic=

>  <r_lp_tautomer_probability>  (58) 
1

>  <r_epik_Ionization_Penalty>  (58) 
5.66357e-05

>  <r_epik_Ionization_Penalty_Charging>  (58) 
0

>  <r_epik_Ionization_Penalty_Neutral>  (58) 
5.66357e-05

>  <r_epik_State_Penalty>  (58) 
-0

>  <r_epik_Charging_Adjusted_Penalty>  (58) 
0

>  <i_epik_Tot_Q>  (58) 
0

>  <i_epik_Tot_abs_Q>  (58) 
0

>  <s_lp_Force_Field>  (58) 
OPLS3e

>  <r_lp_Energy>  (58) 
17.2217

>  <b_lp_Chiralities_Consistent>  (58) 
1

>  <s_lp_Variant>  (58) 
18:0-2

>  <s_i_glide_gridfile>  (58) 
pfpi4k_grid

>  <i_i_glide_lignum>  (58) 
23

>  <i_i_glide_rotatable_bonds>  (58) 
1

>  <r_i_docking_score>  (58) 
-4.17796

>  <r_i_glide_ligand_efficiency>  (58) 
-0.278531

>  <r_i_glide_ligand_efficiency_sa>  (58) 
-0.686915

>  <r_i_glide_ligand_efficiency_ln>  (58) 
-1.12673

>  <r_i_glide_gscore>  (58) 
-4.17796

>  <r_i_glide_lipo>  (58) 
-0.155363

>  <r_i_glide_hbond>  (58) 
-0.193872

>  <r_i_glide_metal>  (58) 
-0

>  <r_i_glide_rewards>  (58) 
-1.93037

>  <r_i_glide_evdw>  (58) 
-18.5463

>  <r_i_glide_ecoul>  (58) 
-6.05525

>  <r_i_glide_erotb>  (58) 
0

>  <r_i_glide_esite>  (58) 
-0.0627493

>  <r_i_glide_emodel>  (58) 
-31.1172

>  <r_i_glide_energy>  (58) 
-24.6015

>  <r_i_glide_einternal>  (58) 
0.514463

>  <r_i_glide_intrahb_reward>  (58) 
-0

>  <i_i_glide_confnum>  (58) 
1

>  <i_i_glide_posenum>  (58) 
7

>  <r_i_glide_eff_state_penalty>  (58) 
0

>  <ligand_id>  (58) 
18

>  <original_smiles>  (58) 
CN1C(=O)SC(=Cc2cccnc2)C1=O

>  <smiles>  (58) 
[H]C(=C1SC(=O)N(C([H])([H])[H])C1=O)c1c([H])nc([H])c([H])c1[H]

$$$$
18:1:1
     RDKit          3D

 23 24  0  0  1  0  0  0  0  0999 V2000
    1.5794   -6.1758    1.9266 C   0  0  0  0  0  0  0  0  0  0  0  0
    2.9301   -5.8494    1.4490 N   0  0  0  0  0  0  0  0  0  0  0  0
    4.0388   -6.3104    2.0279 C   0  0  0  0  0  0  0  0  0  0  0  0
    4.0556   -7.0259    3.0291 O   0  0  0  0  0  0  0  0  0  0  0  0
    5.5083   -5.8109    1.2522 S   0  0  0  0  0  0  0  0  0  0  0  0
    4.5718   -4.8770    0.0886 C   0  0  0  0  0  0  0  0  0  0  0  0
    5.1253   -4.1665   -0.9186 C   0  0  0  0  0  0  0  0  0  0  0  0
    4.4724   -3.2935   -1.9104 C   0  0  0  0  0  0  0  0  0  0  0  0
    3.5790   -2.2617   -1.5531 C   0  0  0  0  0  0  0  0  0  0  0  0
    3.0271   -1.4568   -2.5671 C   0  0  0  0  0  0  0  0  0  0  0  0
    3.3621   -1.7199   -3.9036 C   0  0  0  0  0  0  0  0  0  0  0  0
    4.2107   -2.7037   -4.2561 N   0  0  0  0  0  0  0  0  0  0  0  0
    4.7453   -3.4647   -3.2800 C   0  0  0  0  0  0  0  0  0  0  0  0
    3.1406   -5.0524    0.3796 C   0  0  0  0  0  0  0  0  0  0  0  0
    2.2117   -4.5655   -0.2627 O   0  0  0  0  0  0  0  0  0  0  0  0
    1.5425   -7.1416    2.4325 H   0  0  0  0  0  0  0  0  0  0  0  0
    0.8673   -6.2378    1.1016 H   0  0  0  0  0  0  0  0  0  0  0  0
    1.2309   -5.4115    2.6234 H   0  0  0  0  0  0  0  0  0  0  0  0
    6.2063   -4.1851   -0.9849 H   0  0  0  0  0  0  0  0  0  0  0  0
    3.3222   -2.0740   -0.5207 H   0  0  0  0  0  0  0  0  0  0  0  0
    2.3398   -0.6609   -2.3216 H   0  0  0  0  0  0  0  0  0  0  0  0
    2.9470   -1.1270   -4.7066 H   0  0  0  0  0  0  0  0  0  0  0  0
    5.4139   -4.2427   -3.6153 H   0  0  0  0  0  0  0  0  0  0  0  0
  1  2  1  0
  1 16  1  0
  1 17  1  0
  1 18  1  0
  2 14  1  0
  2  3  1  0
  3  4  2  0
  3  5  1  0
  5  6  1  0
  6  7  2  3
  6 14  1  0
  7  8  1  0
  7 19  1  0
  8 13  1  0
  8  9  2  0
  9 10  1  0
  9 20  1  0
 10 11  2  0
 10 21  1  0
 11 12  1  0
 11 22  1  0
 12 13  2  0
 13 23  1  0
 14 15  2  0
M  END
>  <i_m_ct_stereo_status>  (59) 
1

>  <s_m_source_file>  (59) 
/var/tmp/pbs.5076255.sched01/tmp25ygy55i/01wbi4d2b.sdf

>  <i_m_source_file_index>  (59) 
23

>  <i_lp_mmshare_version>  (59) 
48012

>  <i_f3d_flags>  (59) 
0

>  <s_epik_input>  (59) 
W0NIM11OMUMoPU8pUy9DKEMxPU8pPVtDSF1cYzJbY0hdW2NIXVtjSF1uW2NIXTI=

>  <s_epik_cmdline>  (59) 
J2VwaWtfcHl0aG9uJywgJy1waHQnLCAnMi4wJywgJy1waCcsICc3LjAnLCAnLXRuJywgJzgnLCAnLW1hJywgJzIwMCcsICctaW1hZScsICc8aW5maWxlLm1hZT4nLCAnLW9tYWUnLCAnPG91dGZpbGUubWFlPic=

>  <r_lp_tautomer_probability>  (59) 
1

>  <r_epik_Ionization_Penalty>  (59) 
5.66357e-05

>  <r_epik_Ionization_Penalty_Charging>  (59) 
0

>  <r_epik_Ionization_Penalty_Neutral>  (59) 
5.66357e-05

>  <r_epik_State_Penalty>  (59) 
-0

>  <r_epik_Charging_Adjusted_Penalty>  (59) 
0

>  <i_epik_Tot_Q>  (59) 
0

>  <i_epik_Tot_abs_Q>  (59) 
0

>  <s_lp_Force_Field>  (59) 
OPLS3e

>  <r_lp_Energy>  (59) 
17.2217

>  <b_lp_Chiralities_Consistent>  (59) 
1

>  <s_lp_Variant>  (59) 
18:0-2

>  <s_i_glide_gridfile>  (59) 
pfpi4k_grid

>  <i_i_glide_lignum>  (59) 
23

>  <i_i_glide_rotatable_bonds>  (59) 
1

>  <r_i_docking_score>  (59) 
-4.09082

>  <r_i_glide_ligand_efficiency>  (59) 
-0.272722

>  <r_i_glide_ligand_efficiency_sa>  (59) 
-0.672589

>  <r_i_glide_ligand_efficiency_ln>  (59) 
-1.10323

>  <r_i_glide_gscore>  (59) 
-4.09082

>  <r_i_glide_lipo>  (59) 
-0.385198

>  <r_i_glide_hbond>  (59) 
-0.284698

>  <r_i_glide_metal>  (59) 
-0

>  <r_i_glide_rewards>  (59) 
-1.94019

>  <r_i_glide_evdw>  (59) 
-18.6606

>  <r_i_glide_ecoul>  (59) 
-3.50108

>  <r_i_glide_erotb>  (59) 
0

>  <r_i_glide_esite>  (59) 
-0.0225403

>  <r_i_glide_emodel>  (59) 
-28.5332

>  <r_i_glide_energy>  (59) 
-22.1617

>  <r_i_glide_einternal>  (59) 
1.8691

>  <r_i_glide_intrahb_reward>  (59) 
-0

>  <i_i_glide_confnum>  (59) 
1

>  <i_i_glide_posenum>  (59) 
14

>  <r_i_glide_eff_state_penalty>  (59) 
0

>  <ligand_id>  (59) 
18

>  <original_smiles>  (59) 
CN1C(=O)SC(=Cc2cccnc2)C1=O

>  <smiles>  (59) 
[H]C(=C1SC(=O)N(C([H])([H])[H])C1=O)c1c([H])nc([H])c([H])c1[H]

$$$$
18:1:2
     RDKit          3D

 23 24  0  0  1  0  0  0  0  0999 V2000
   -1.7413   -0.7601    4.6930 C   0  0  0  0  0  0  0  0  0  0  0  0
   -1.4142    0.6712    4.7232 N   0  0  0  0  0  0  0  0  0  0  0  0
   -0.8843    1.3353    3.6896 C   0  0  0  0  0  0  0  0  0  0  0  0
   -0.5656    0.8310    2.6163 O   0  0  0  0  0  0  0  0  0  0  0  0
   -0.6471    3.0266    4.0123 S   0  0  0  0  0  0  0  0  0  0  0  0
   -1.2683    2.8163    5.6545 C   0  0  0  0  0  0  0  0  0  0  0  0
   -1.3463    3.8236    6.5542 C   0  0  0  0  0  0  0  0  0  0  0  0
   -1.8712    3.8355    7.9398 C   0  0  0  0  0  0  0  0  0  0  0  0
   -1.2383    4.6262    8.9233 C   0  0  0  0  0  0  0  0  0  0  0  0
   -1.7103    4.5854   10.2528 C   0  0  0  0  0  0  0  0  0  0  0  0
   -2.7810    3.7283   10.5640 C   0  0  0  0  0  0  0  0  0  0  0  0
   -3.4148    2.9952    9.6299 N   0  0  0  0  0  0  0  0  0  0  0  0
   -2.9870    3.0714    8.3546 C   0  0  0  0  0  0  0  0  0  0  0  0
   -1.6061    1.3906    5.8473 C   0  0  0  0  0  0  0  0  0  0  0  0
   -1.9933    0.8681    6.8920 O   0  0  0  0  0  0  0  0  0  0  0  0
   -1.9768   -1.0704    3.6883 H   0  0  0  0  0  0  0  0  0  0  0  0
   -2.6290   -0.9894    5.2814 H   0  0  0  0  0  0  0  0  0  0  0  0
   -0.9160   -1.3568    5.0815 H   0  0  0  0  0  0  0  0  0  0  0  0
   -0.9854    4.7817    6.2119 H   0  0  0  0  0  0  0  0  0  0  0  0
   -0.3970    5.2632    8.6746 H   0  0  0  0  0  0  0  0  0  0  0  0
   -1.2659    5.1904   11.0330 H   0  0  0  0  0  0  0  0  0  0  0  0
   -3.1876    3.6696   11.5670 H   0  0  0  0  0  0  0  0  0  0  0  0
   -3.5910    2.5111    7.6578 H   0  0  0  0  0  0  0  0  0  0  0  0
  1  2  1  0
  1 16  1  0
  1 17  1  0
  1 18  1  0
  2 14  1  0
  2  3  1  0
  3  4  2  0
  3  5  1  0
  5  6  1  0
  6  7  2  3
  6 14  1  0
  7  8  1  0
  7 19  1  0
  8 13  1  0
  8  9  2  0
  9 10  1  0
  9 20  1  0
 10 11  2  0
 10 21  1  0
 11 12  1  0
 11 22  1  0
 12 13  2  0
 13 23  1  0
 14 15  2  0
M  END
>  <i_m_ct_stereo_status>  (60) 
1

>  <s_m_source_file>  (60) 
/var/tmp/pbs.5076255.sched01/tmp25ygy55i/01wbi4d2b.sdf

>  <i_m_source_file_index>  (60) 
23

>  <i_lp_mmshare_version>  (60) 
48012

>  <i_f3d_flags>  (60) 
0

>  <s_epik_input>  (60) 
W0NIM11OMUMoPU8pUy9DKEMxPU8pPVtDSF1cYzJbY0hdW2NIXVtjSF1uW2NIXTI=

>  <s_epik_cmdline>  (60) 
J2VwaWtfcHl0aG9uJywgJy1waHQnLCAnMi4wJywgJy1waCcsICc3LjAnLCAnLXRuJywgJzgnLCAnLW1hJywgJzIwMCcsICctaW1hZScsICc8aW5maWxlLm1hZT4nLCAnLW9tYWUnLCAnPG91dGZpbGUubWFlPic=

>  <r_lp_tautomer_probability>  (60) 
1

>  <r_epik_Ionization_Penalty>  (60) 
5.66357e-05

>  <r_epik_Ionization_Penalty_Charging>  (60) 
0

>  <r_epik_Ionization_Penalty_Neutral>  (60) 
5.66357e-05

>  <r_epik_State_Penalty>  (60) 
-0

>  <r_epik_Charging_Adjusted_Penalty>  (60) 
0

>  <i_epik_Tot_Q>  (60) 
0

>  <i_epik_Tot_abs_Q>  (60) 
0

>  <s_lp_Force_Field>  (60) 
OPLS3e

>  <r_lp_Energy>  (60) 
17.2217

>  <b_lp_Chiralities_Consistent>  (60) 
1

>  <s_lp_Variant>  (60) 
18:0-2

>  <s_i_glide_gridfile>  (60) 
pfpi4k_grid

>  <i_i_glide_lignum>  (60) 
23

>  <i_i_glide_rotatable_bonds>  (60) 
1

>  <r_i_docking_score>  (60) 
-3.6364

>  <r_i_glide_ligand_efficiency>  (60) 
-0.242426

>  <r_i_glide_ligand_efficiency_sa>  (60) 
-0.597875

>  <r_i_glide_ligand_efficiency_ln>  (60) 
-0.980676

>  <r_i_glide_gscore>  (60) 
-3.6364

>  <r_i_glide_lipo>  (60) 
-0.134278

>  <r_i_glide_hbond>  (60) 
-0.16

>  <r_i_glide_metal>  (60) 
-0

>  <r_i_glide_rewards>  (60) 
-1.9074

>  <r_i_glide_evdw>  (60) 
-19.8753

>  <r_i_glide_ecoul>  (60) 
-2.33709

>  <r_i_glide_erotb>  (60) 
0

>  <r_i_glide_esite>  (60) 
-0.0903949

>  <r_i_glide_emodel>  (60) 
-27.8537

>  <r_i_glide_energy>  (60) 
-22.2124

>  <r_i_glide_einternal>  (60) 
1.14903

>  <r_i_glide_intrahb_reward>  (60) 
-0

>  <i_i_glide_confnum>  (60) 
1

>  <i_i_glide_posenum>  (60) 
2

>  <r_i_glide_eff_state_penalty>  (60) 
0

>  <ligand_id>  (60) 
18

>  <original_smiles>  (60) 
CN1C(=O)SC(=Cc2cccnc2)C1=O

>  <smiles>  (60) 
[H]C(=C1SC(=O)N(C([H])([H])[H])C1=O)c1c([H])nc([H])c([H])c1[H]

$$$$
19:0:0
     RDKit          3D

 71 74  0  0  1  0  0  0  0  0999 V2000
    3.6084   -0.9724   -4.3559 C   0  0  0  0  0  0  0  0  0  0  0  0
    3.5597   -2.4360   -3.8807 C   0  0  0  0  0  0  0  0  0  0  0  0
    2.1297   -2.8284   -3.4589 C   0  0  0  0  0  0  0  0  0  0  0  0
    4.6441   -2.7451   -2.8281 C   0  0  0  0  0  0  0  0  0  0  0  0
    4.4636   -1.9243   -1.5375 C   0  0  0  0  0  0  0  0  0  0  0  0
    5.4652   -2.2423   -0.4128 C   0  0  0  0  0  0  0  0  0  0  0  0
    5.2669   -1.4556    0.9140 C   0  0  2  0  0  0  0  0  0  0  0  0
    6.5895   -1.6050    1.6816 C   0  0  0  0  0  0  0  0  0  0  0  0
    4.0207   -1.8975    1.7723 C   0  0  2  0  0  0  0  0  0  0  0  0
    2.6487   -1.5899    1.1358 C   0  0  0  0  0  0  0  0  0  0  0  0
    1.6163   -1.7733    2.2215 C   0  0  0  0  0  0  0  0  0  0  0  0
    2.3387   -1.6183    3.5418 C   0  0  2  0  0  0  0  0  0  0  0  0
    1.6573   -0.6190    4.5000 C   0  0  2  0  0  0  0  0  0  0  0  0
    0.2622   -1.0623    5.0135 C   0  0  0  0  0  0  0  0  0  0  0  0
   -0.9102   -0.2770    4.4208 C   0  0  1  0  0  0  0  0  0  0  0  0
   -2.1192   -0.7023    5.0282 O   0  0  0  0  0  0  0  0  0  0  0  0
   -0.6469    1.2048    4.6055 C   0  0  0  0  0  0  0  0  0  0  0  0
   -1.3740    1.9609    5.4555 C   0  0  0  0  0  0  0  0  0  0  0  0
   -1.0606    3.3666    5.6863 C   0  0  0  0  0  0  0  0  0  0  0  0
   -1.7469    4.0353    6.4543 O   0  0  0  0  0  0  0  0  0  0  0  0
    0.0937    3.9451    4.9917 C   0  0  0  0  0  0  0  0  0  0  0  0
    0.8216    3.1988    4.1407 C   0  0  0  0  0  0  0  0  0  0  0  0
    0.5472    1.7351    3.7968 C   0  0  2  0  0  0  0  0  0  0  0  0
    0.1717    1.7416    2.2950 C   0  0  0  0  0  0  0  0  0  0  0  0
    1.8289    0.8975    4.1591 C   0  0  2  0  0  0  0  0  0  0  0  0
    3.0359    1.1257    3.2171 C   0  0  0  0  0  0  0  0  0  0  0  0
    4.1884    0.1373    3.4729 C   0  0  0  0  0  0  0  0  0  0  0  0
    3.8531   -1.3735    3.2484 C   0  0  2  0  0  0  0  0  0  0  0  0
    4.6931   -2.2397    4.2420 C   0  0  0  0  0  0  0  0  0  0  0  0
    3.3803   -0.2712   -3.5539 H   0  0  0  0  0  0  0  0  0  0  0  0
    2.8649   -0.7753   -5.1265 H   0  0  0  0  0  0  0  0  0  0  0  0
    4.5918   -0.7272   -4.7521 H   0  0  0  0  0  0  0  0  0  0  0  0
    3.7885   -3.0884   -4.7199 H   0  0  0  0  0  0  0  0  0  0  0  0
    1.7794   -2.2543   -2.6058 H   0  0  0  0  0  0  0  0  0  0  0  0
    2.0733   -3.8799   -3.1870 H   0  0  0  0  0  0  0  0  0  0  0  0
    1.4137   -2.6613   -4.2677 H   0  0  0  0  0  0  0  0  0  0  0  0
    4.5682   -3.7961   -2.5656 H   0  0  0  0  0  0  0  0  0  0  0  0
    5.6397   -2.6139   -3.2463 H   0  0  0  0  0  0  0  0  0  0  0  0
    4.5002   -0.8429   -1.7401 H   0  0  0  0  0  0  0  0  0  0  0  0
    3.4571   -2.1637   -1.2205 H   0  0  0  0  0  0  0  0  0  0  0  0
    5.4863   -3.3098   -0.2199 H   0  0  0  0  0  0  0  0  0  0  0  0
    6.4479   -2.0041   -0.8076 H   0  0  0  0  0  0  0  0  0  0  0  0
    5.1701   -0.4010    0.6657 H   0  0  0  0  0  0  0  0  0  0  0  0
    6.7046   -2.6416    2.0215 H   0  0  0  0  0  0  0  0  0  0  0  0
    6.6312   -0.9661    2.5646 H   0  0  0  0  0  0  0  0  0  0  0  0
    7.4679   -1.3475    1.0798 H   0  0  0  0  0  0  0  0  0  0  0  0
    4.0494   -2.9845    1.8180 H   0  0  0  0  0  0  0  0  0  0  0  0
    2.6136   -0.5731    0.7271 H   0  0  0  0  0  0  0  0  0  0  0  0
    2.3186   -2.2840    0.3620 H   0  0  0  0  0  0  0  0  0  0  0  0
    0.7570   -1.1297    2.0844 H   0  0  0  0  0  0  0  0  0  0  0  0
    1.2586   -2.7935    2.1670 H   0  0  0  0  0  0  0  0  0  0  0  0
    2.2706   -2.6018    4.0084 H   0  0  0  0  0  0  0  0  0  0  0  0
    2.2851   -0.7573    5.3809 H   0  0  0  0  0  0  0  0  0  0  0  0
    0.1181   -2.1228    4.8215 H   0  0  0  0  0  0  0  0  0  0  0  0
    0.2458   -0.9461    6.0977 H   0  0  0  0  0  0  0  0  0  0  0  0
   -0.9950   -0.4875    3.3618 H   0  0  0  0  0  0  0  0  0  0  0  0
   -2.8239   -0.2757    4.5517 H   0  0  0  0  0  0  0  0  0  0  0  0
   -2.1895    1.5498    6.0259 H   0  0  0  0  0  0  0  0  0  0  0  0
    0.3287    4.9796    5.1746 H   0  0  0  0  0  0  0  0  0  0  0  0
    1.6584    3.6582    3.6276 H   0  0  0  0  0  0  0  0  0  0  0  0
   -0.7383    2.3215    2.1378 H   0  0  0  0  0  0  0  0  0  0  0  0
   -0.0182    0.7665    1.8647 H   0  0  0  0  0  0  0  0  0  0  0  0
    0.9379    2.2159    1.6837 H   0  0  0  0  0  0  0  0  0  0  0  0
    2.1502    1.3171    5.1141 H   0  0  0  0  0  0  0  0  0  0  0  0
    2.7693    1.1147    2.1645 H   0  0  0  0  0  0  0  0  0  0  0  0
    3.4152    2.1345    3.3839 H   0  0  0  0  0  0  0  0  0  0  0  0
    5.0166    0.4672    2.8520 H   0  0  0  0  0  0  0  0  0  0  0  0
    4.5348    0.2860    4.4975 H   0  0  0  0  0  0  0  0  0  0  0  0
    4.4373   -1.9822    5.2775 H   0  0  0  0  0  0  0  0  0  0  0  0
    5.7765   -2.1331    4.1551 H   0  0  0  0  0  0  0  0  0  0  0  0
    4.4626   -3.3054    4.1141 H   0  0  0  0  0  0  0  0  0  0  0  0
  1  2  1  0
  1 30  1  0
  1 31  1  0
  1 32  1  0
  2  3  1  0
  2  4  1  0
  2 33  1  0
  3 34  1  0
  3 35  1  0
  3 36  1  0
  4  5  1  0
  4 37  1  0
  4 38  1  0
  5  6  1  0
  5 39  1  0
  5 40  1  0
  6  7  1  0
  6 41  1  0
  6 42  1  0
  7  8  1  0
  7  9  1  0
  7 43  1  6
  8 44  1  0
  8 45  1  0
  8 46  1  0
  9 28  1  0
  9 10  1  0
  9 47  1  1
 10 11  1  0
 10 48  1  0
 10 49  1  0
 11 12  1  0
 11 50  1  0
 11 51  1  0
 12 28  1  0
 12 13  1  0
 12 52  1  1
 13 25  1  0
 13 14  1  0
 13 53  1  1
 14 15  1  0
 14 54  1  0
 14 55  1  0
 15 16  1  0
 15 17  1  0
 15 56  1  6
 16 57  1  0
 17 23  1  0
 17 18  2  0
 18 19  1  0
 18 58  1  0
 19 20  2  0
 19 21  1  0
 21 22  2  0
 21 59  1  0
 22 23  1  0
 22 60  1  0
 23 24  1  6
 23 25  1  0
 24 61  1  0
 24 62  1  0
 24 63  1  0
 25 26  1  0
 25 64  1  1
 26 27  1  0
 26 65  1  0
 26 66  1  0
 27 28  1  0
 27 67  1  0
 27 68  1  0
 28 29  1  1
 29 69  1  0
 29 70  1  0
 29 71  1  0
M  END
>  <i_m_ct_stereo_status>  (61) 
1

>  <s_m_source_file>  (61) 
/var/tmp/pbs.5076255.sched01/tmp25ygy55i/01wbi4d2b.sdf

>  <i_m_source_file_index>  (61) 
24

>  <i_lp_mmshare_version>  (61) 
48012

>  <i_f3d_flags>  (61) 
0

>  <s_epik_input>  (61) 
W0NIM11bQ0hdKFtDSDNdKVtDSDJdW0NIMl1bQ0gyXVtDQEhdKFtDSDNdKVtDQEhdKFtDSDJdW0NIMl0xKVtDQEBdKFtDSDNdKShbQ0gyXVtDSDJdW0NASF0yMylbQ0BIXTFbQ0BASF0yW0NIMl1bQ0BASF0oW09IXSlDKFtDQF0zNFtDSDNdKT1bQ0hdQyg9TylbQ0hdPVtDSF00

>  <s_epik_cmdline>  (61) 
J2VwaWtfcHl0aG9uJywgJy1waHQnLCAnMi4wJywgJy1waCcsICc3LjAnLCAnLXRuJywgJzgnLCAnLW1hJywgJzIwMCcsICctaW1hZScsICc8aW5maWxlLm1hZT4nLCAnLW9tYWUnLCAnPG91dGZpbGUubWFlPic=

>  <r_lp_tautomer_probability>  (61) 
1

>  <r_epik_Ionization_Penalty>  (61) 
5.75075e-07

>  <r_epik_Ionization_Penalty_Charging>  (61) 
0

>  <r_epik_Ionization_Penalty_Neutral>  (61) 
5.75075e-07

>  <r_epik_State_Penalty>  (61) 
-0

>  <r_epik_Charging_Adjusted_Penalty>  (61) 
0

>  <i_epik_Tot_Q>  (61) 
0

>  <i_epik_Tot_abs_Q>  (61) 
0

>  <s_lp_Force_Field>  (61) 
OPLS3e

>  <r_lp_Energy>  (61) 
55.9012

>  <b_lp_Chiralities_Consistent>  (61) 
1

>  <s_lp_Variant>  (61) 
19:0-1

>  <s_i_glide_gridfile>  (61) 
pfpi4k_grid

>  <i_i_glide_lignum>  (61) 
24

>  <i_i_glide_rotatable_bonds>  (61) 
6

>  <r_i_docking_score>  (61) 
-3.24641

>  <r_i_glide_ligand_efficiency>  (61) 
-0.111945

>  <r_i_glide_ligand_efficiency_sa>  (61) 
-0.343931

>  <r_i_glide_ligand_efficiency_ln>  (61) 
-0.743346

>  <r_i_glide_gscore>  (61) 
-3.24641

>  <r_i_glide_lipo>  (61) 
-0.69814

>  <r_i_glide_hbond>  (61) 
-0.181938

>  <r_i_glide_metal>  (61) 
-0

>  <r_i_glide_rewards>  (61) 
-0.691219

>  <r_i_glide_evdw>  (61) 
-29.0612

>  <r_i_glide_ecoul>  (61) 
-4.72637

>  <r_i_glide_erotb>  (61) 
0.493055

>  <r_i_glide_esite>  (61) 
-0.00615447

>  <r_i_glide_emodel>  (61) 
-38.0919

>  <r_i_glide_energy>  (61) 
-33.7875

>  <r_i_glide_einternal>  (61) 
1.48609

>  <r_i_glide_intrahb_reward>  (61) 
-0

>  <i_i_glide_confnum>  (61) 
1

>  <i_i_glide_posenum>  (61) 
31

>  <r_i_glide_eff_state_penalty>  (61) 
0

>  <ligand_id>  (61) 
19

>  <original_smiles>  (61) 
CC(C)CCCC(C)C1CCC2C3CC(O)C4=CC(=O)C=CC4(C)C3CCC12C

>  <smiles>  (61) 
[H]OC1([H])C2=C([H])C(=O)C([H])=C([H])C2(C([H])([H])[H])C2([H])C([H])([H])C([H])([H])C3(C([H])([H])[H])C([H])(C([H])(C([H])([H])[H])C([H])([H])C([H])([H])C([H])([H])C([H])(C([H])([H])[H])C([H])([H])[H])C([H])([H])C([H])([H])C3([H])C2([H])C1([H])[H]

$$$$
19:0:1
     RDKit          3D

 71 74  0  0  1  0  0  0  0  0999 V2000
    3.0878   -0.6262   -3.2164 C   0  0  0  0  0  0  0  0  0  0  0  0
    3.2757   -1.9863   -3.9150 C   0  0  0  0  0  0  0  0  0  0  0  0
    2.0005   -2.8359   -3.8726 C   0  0  0  0  0  0  0  0  0  0  0  0
    4.5015   -2.7701   -3.3981 C   0  0  0  0  0  0  0  0  0  0  0  0
    4.4864   -3.0406   -1.8735 C   0  0  0  0  0  0  0  0  0  0  0  0
    5.8705   -3.4259   -1.3421 C   0  0  0  0  0  0  0  0  0  0  0  0
    5.8909   -3.8109    0.1760 C   0  0  2  0  0  0  0  0  0  0  0  0
    7.1385   -3.1819    0.8200 C   0  0  0  0  0  0  0  0  0  0  0  0
    5.7963   -5.3546    0.4746 C   0  0  2  0  0  0  0  0  0  0  0  0
    4.5654   -6.0491   -0.1284 C   0  0  0  0  0  0  0  0  0  0  0  0
    4.5221   -7.4379    0.5074 C   0  0  0  0  0  0  0  0  0  0  0  0
    5.2828   -7.3306    1.8301 C   0  0  2  0  0  0  0  0  0  0  0  0
    4.5139   -7.8516    3.0732 C   0  0  2  0  0  0  0  0  0  0  0  0
    4.2454   -9.3739    3.0745 C   0  0  0  0  0  0  0  0  0  0  0  0
    2.7906   -9.7631    2.8173 C   0  0  1  0  0  0  0  0  0  0  0  0
    2.6874  -11.1663    2.9335 O   0  0  0  0  0  0  0  0  0  0  0  0
    1.9032   -9.0064    3.8017 C   0  0  0  0  0  0  0  0  0  0  0  0
    1.2394   -9.6301    4.8124 C   0  0  0  0  0  0  0  0  0  0  0  0
    0.4535   -8.8693    5.7964 C   0  0  0  0  0  0  0  0  0  0  0  0
   -0.1535   -9.4279    6.7098 O   0  0  0  0  0  0  0  0  0  0  0  0
    0.4339   -7.4112    5.6708 C   0  0  0  0  0  0  0  0  0  0  0  0
    1.0849   -6.7884    4.6760 C   0  0  0  0  0  0  0  0  0  0  0  0
    1.8903   -7.4877    3.5757 C   0  0  2  0  0  0  0  0  0  0  0  0
    1.1213   -7.1807    2.2666 C   0  0  0  0  0  0  0  0  0  0  0  0
    3.3658   -6.9357    3.6180 C   0  0  2  0  0  0  0  0  0  0  0  0
    3.5396   -5.4731    3.1308 C   0  0  0  0  0  0  0  0  0  0  0  0
    5.0202   -5.0589    2.9830 C   0  0  0  0  0  0  0  0  0  0  0  0
    5.8618   -5.8839    1.9551 C   0  0  2  0  0  0  0  0  0  0  0  0
    7.3352   -5.9768    2.4499 C   0  0  0  0  0  0  0  0  0  0  0  0
    2.8806   -0.7350   -2.1510 H   0  0  0  0  0  0  0  0  0  0  0  0
    2.2463   -0.0752   -3.6385 H   0  0  0  0  0  0  0  0  0  0  0  0
    3.9731    0.0012   -3.3317 H   0  0  0  0  0  0  0  0  0  0  0  0
    3.4552   -1.7615   -4.9640 H   0  0  0  0  0  0  0  0  0  0  0  0
    1.7314   -3.1015   -2.8493 H   0  0  0  0  0  0  0  0  0  0  0  0
    2.1171   -3.7614   -4.4362 H   0  0  0  0  0  0  0  0  0  0  0  0
    1.1640   -2.3009   -4.3231 H   0  0  0  0  0  0  0  0  0  0  0  0
    4.5825   -3.7218   -3.9321 H   0  0  0  0  0  0  0  0  0  0  0  0
    5.4102   -2.2281   -3.6557 H   0  0  0  0  0  0  0  0  0  0  0  0
    4.2071   -2.1508   -1.3050 H   0  0  0  0  0  0  0  0  0  0  0  0
    3.7511   -3.8210   -1.6547 H   0  0  0  0  0  0  0  0  0  0  0  0
    6.2632   -4.1883   -2.0036 H   0  0  0  0  0  0  0  0  0  0  0  0
    6.5384   -2.5756   -1.5068 H   0  0  0  0  0  0  0  0  0  0  0  0
    5.0254   -3.3253    0.6349 H   0  0  0  0  0  0  0  0  0  0  0  0
    8.0472   -3.6724    0.4711 H   0  0  0  0  0  0  0  0  0  0  0  0
    7.0786   -3.2996    1.8952 H   0  0  0  0  0  0  0  0  0  0  0  0
    7.2272   -2.1186    0.5678 H   0  0  0  0  0  0  0  0  0  0  0  0
    6.6356   -5.8197   -0.0390 H   0  0  0  0  0  0  0  0  0  0  0  0
    3.6472   -5.5041    0.0931 H   0  0  0  0  0  0  0  0  0  0  0  0
    4.6182   -6.1317   -1.2111 H   0  0  0  0  0  0  0  0  0  0  0  0
    3.5111   -7.7984    0.6436 H   0  0  0  0  0  0  0  0  0  0  0  0
    5.0141   -8.1751   -0.1288 H   0  0  0  0  0  0  0  0  0  0  0  0
    6.1403   -7.9891    1.7037 H   0  0  0  0  0  0  0  0  0  0  0  0
    5.2932   -7.7552    3.8259 H   0  0  0  0  0  0  0  0  0  0  0  0
    4.8900   -9.8674    2.3492 H   0  0  0  0  0  0  0  0  0  0  0  0
    4.5417   -9.7763    4.0471 H   0  0  0  0  0  0  0  0  0  0  0  0
    2.5054   -9.5110    1.7962 H   0  0  0  0  0  0  0  0  0  0  0  0
    3.1409  -11.5666    2.2019 H   0  0  0  0  0  0  0  0  0  0  0  0
    1.2984  -10.6952    4.9514 H   0  0  0  0  0  0  0  0  0  0  0  0
   -0.1315   -6.8555    6.4061 H   0  0  0  0  0  0  0  0  0  0  0  0
    1.0410   -5.7101    4.6189 H   0  0  0  0  0  0  0  0  0  0  0  0
    0.1253   -7.6238    2.3067 H   0  0  0  0  0  0  0  0  0  0  0  0
    1.5846   -7.5792    1.3712 H   0  0  0  0  0  0  0  0  0  0  0  0
    0.9759   -6.1131    2.1090 H   0  0  0  0  0  0  0  0  0  0  0  0
    3.5909   -6.8909    4.6878 H   0  0  0  0  0  0  0  0  0  0  0  0
    3.0107   -5.2738    2.1997 H   0  0  0  0  0  0  0  0  0  0  0  0
    3.0779   -4.8043    3.8561 H   0  0  0  0  0  0  0  0  0  0  0  0
    5.0527   -3.9952    2.7627 H   0  0  0  0  0  0  0  0  0  0  0  0
    5.4797   -5.1389    3.9707 H   0  0  0  0  0  0  0  0  0  0  0  0
    7.3695   -6.4883    3.4189 H   0  0  0  0  0  0  0  0  0  0  0  0
    7.8232   -5.0146    2.5443 H   0  0  0  0  0  0  0  0  0  0  0  0
    7.9387   -6.5726    1.7580 H   0  0  0  0  0  0  0  0  0  0  0  0
  1  2  1  0
  1 30  1  0
  1 31  1  0
  1 32  1  0
  2  3  1  0
  2  4  1  0
  2 33  1  0
  3 34  1  0
  3 35  1  0
  3 36  1  0
  4  5  1  0
  4 37  1  0
  4 38  1  0
  5  6  1  0
  5 39  1  0
  5 40  1  0
  6  7  1  0
  6 41  1  0
  6 42  1  0
  7  8  1  0
  7  9  1  0
  7 43  1  1
  8 44  1  0
  8 45  1  0
  8 46  1  0
  9 28  1  0
  9 10  1  0
  9 47  1  6
 10 11  1  0
 10 48  1  0
 10 49  1  0
 11 12  1  0
 11 50  1  0
 11 51  1  0
 12 28  1  0
 12 13  1  0
 12 52  1  6
 13 25  1  0
 13 14  1  0
 13 53  1  1
 14 15  1  0
 14 54  1  0
 14 55  1  0
 15 16  1  0
 15 17  1  0
 15 56  1  6
 16 57  1  0
 17 23  1  0
 17 18  2  0
 18 19  1  0
 18 58  1  0
 19 20  2  0
 19 21  1  0
 21 22  2  0
 21 59  1  0
 22 23  1  0
 22 60  1  0
 23 24  1  6
 23 25  1  0
 24 61  1  0
 24 62  1  0
 24 63  1  0
 25 26  1  0
 25 64  1  1
 26 27  1  0
 26 65  1  0
 26 66  1  0
 27 28  1  0
 27 67  1  0
 27 68  1  0
 28 29  1  1
 29 69  1  0
 29 70  1  0
 29 71  1  0
M  END
>  <i_m_ct_stereo_status>  (62) 
1

>  <s_m_source_file>  (62) 
/var/tmp/pbs.5076255.sched01/tmp25ygy55i/01wbi4d2b.sdf

>  <i_m_source_file_index>  (62) 
24

>  <i_lp_mmshare_version>  (62) 
48012

>  <i_f3d_flags>  (62) 
0

>  <s_epik_input>  (62) 
W0NIM11bQ0hdKFtDSDNdKVtDSDJdW0NIMl1bQ0gyXVtDQEhdKFtDSDNdKVtDQEhdKFtDSDJdW0NIMl0xKVtDQEBdKFtDSDNdKShbQ0gyXVtDSDJdW0NASF0yMylbQ0BIXTFbQ0BASF0yW0NIMl1bQ0BASF0oW09IXSlDKFtDQF0zNFtDSDNdKT1bQ0hdQyg9TylbQ0hdPVtDSF00

>  <s_epik_cmdline>  (62) 
J2VwaWtfcHl0aG9uJywgJy1waHQnLCAnMi4wJywgJy1waCcsICc3LjAnLCAnLXRuJywgJzgnLCAnLW1hJywgJzIwMCcsICctaW1hZScsICc8aW5maWxlLm1hZT4nLCAnLW9tYWUnLCAnPG91dGZpbGUubWFlPic=

>  <r_lp_tautomer_probability>  (62) 
1

>  <r_epik_Ionization_Penalty>  (62) 
5.75075e-07

>  <r_epik_Ionization_Penalty_Charging>  (62) 
0

>  <r_epik_Ionization_Penalty_Neutral>  (62) 
5.75075e-07

>  <r_epik_State_Penalty>  (62) 
-0

>  <r_epik_Charging_Adjusted_Penalty>  (62) 
0

>  <i_epik_Tot_Q>  (62) 
0

>  <i_epik_Tot_abs_Q>  (62) 
0

>  <s_lp_Force_Field>  (62) 
OPLS3e

>  <r_lp_Energy>  (62) 
55.9012

>  <b_lp_Chiralities_Consistent>  (62) 
1

>  <s_lp_Variant>  (62) 
19:0-1

>  <s_i_glide_gridfile>  (62) 
pfpi4k_grid

>  <i_i_glide_lignum>  (62) 
24

>  <i_i_glide_rotatable_bonds>  (62) 
6

>  <r_i_docking_score>  (62) 
-2.83866

>  <r_i_glide_ligand_efficiency>  (62) 
-0.0978849

>  <r_i_glide_ligand_efficiency_sa>  (62) 
-0.300734

>  <r_i_glide_ligand_efficiency_ln>  (62) 
-0.649982

>  <r_i_glide_gscore>  (62) 
-2.83866

>  <r_i_glide_lipo>  (62) 
-1.10551

>  <r_i_glide_hbond>  (62) 
-0.101926

>  <r_i_glide_metal>  (62) 
-0

>  <r_i_glide_rewards>  (62) 
-0.691219

>  <r_i_glide_evdw>  (62) 
-26.9048

>  <r_i_glide_ecoul>  (62) 
-0.27397

>  <r_i_glide_erotb>  (62) 
0.493055

>  <r_i_glide_esite>  (62) 
-0.0467238

>  <r_i_glide_emodel>  (62) 
-30.2172

>  <r_i_glide_energy>  (62) 
-27.1788

>  <r_i_glide_einternal>  (62) 
3.94315

>  <r_i_glide_intrahb_reward>  (62) 
-0

>  <i_i_glide_confnum>  (62) 
1

>  <i_i_glide_posenum>  (62) 
26

>  <r_i_glide_eff_state_penalty>  (62) 
0

>  <ligand_id>  (62) 
19

>  <original_smiles>  (62) 
CC(C)CCCC(C)C1CCC2C3CC(O)C4=CC(=O)C=CC4(C)C3CCC12C

>  <smiles>  (62) 
[H]OC1([H])C2=C([H])C(=O)C([H])=C([H])C2(C([H])([H])[H])C2([H])C([H])([H])C([H])([H])C3(C([H])([H])[H])C([H])(C([H])(C([H])([H])[H])C([H])([H])C([H])([H])C([H])([H])C([H])(C([H])([H])[H])C([H])([H])[H])C([H])([H])C([H])([H])C3([H])C2([H])C1([H])[H]

$$$$
19:0:2
     RDKit          3D

 71 74  0  0  1  0  0  0  0  0999 V2000
    3.8220   -1.8351   -3.5841 C   0  0  0  0  0  0  0  0  0  0  0  0
    4.0062   -2.9629   -2.5645 C   0  0  0  0  0  0  0  0  0  0  0  0
    2.7719   -3.0570   -1.6407 C   0  0  0  0  0  0  0  0  0  0  0  0
    5.3427   -2.7825   -1.7982 C   0  0  0  0  0  0  0  0  0  0  0  0
    5.5320   -3.8696   -0.7332 C   0  0  0  0  0  0  0  0  0  0  0  0
    6.8808   -3.9162    0.0106 C   0  0  0  0  0  0  0  0  0  0  0  0
    6.9489   -4.7898    1.2976 C   0  0  2  0  0  0  0  0  0  0  0  0
    8.4545   -4.9059    1.6917 C   0  0  0  0  0  0  0  0  0  0  0  0
    6.2421   -6.2079    1.2807 C   0  0  2  0  0  0  0  0  0  0  0  0
    4.7362   -6.2266    0.8374 C   0  0  0  0  0  0  0  0  0  0  0  0
    4.2282   -7.6100    1.1598 C   0  0  0  0  0  0  0  0  0  0  0  0
    5.1385   -8.1673    2.2450 C   0  0  2  0  0  0  0  0  0  0  0  0
    4.3547   -8.7002    3.4677 C   0  0  2  0  0  0  0  0  0  0  0  0
    3.4717   -9.9387    3.1658 C   0  0  0  0  0  0  0  0  0  0  0  0
    1.9681   -9.6569    3.1520 C   0  0  1  0  0  0  0  0  0  0  0  0
    1.2696  -10.8707    2.9702 O   0  0  0  0  0  0  0  0  0  0  0  0
    1.5959   -8.9530    4.4535 C   0  0  0  0  0  0  0  0  0  0  0  0
    0.8426   -9.5588    5.4096 C   0  0  0  0  0  0  0  0  0  0  0  0
    0.5540   -8.8843    6.6776 C   0  0  0  0  0  0  0  0  0  0  0  0
   -0.1715   -9.4084    7.5268 O   0  0  0  0  0  0  0  0  0  0  0  0
    1.1347   -7.5628    6.9203 C   0  0  0  0  0  0  0  0  0  0  0  0
    1.8761   -6.9635    5.9673 C   0  0  0  0  0  0  0  0  0  0  0  0
    2.1903   -7.5431    4.5902 C   0  0  2  0  0  0  0  0  0  0  0  0
    1.4852   -6.5971    3.5856 C   0  0  0  0  0  0  0  0  0  0  0  0
    3.7582   -7.6201    4.4367 C   0  0  2  0  0  0  0  0  0  0  0  0
    4.4717   -6.2475    4.2667 C   0  0  0  0  0  0  0  0  0  0  0  0
    5.9700   -6.3905    3.9035 C   0  0  0  0  0  0  0  0  0  0  0  0
    6.2614   -7.1276    2.5550 C   0  0  2  0  0  0  0  0  0  0  0  0
    7.6373   -7.8785    2.6978 C   0  0  0  0  0  0  0  0  0  0  0  0
    3.8373   -0.8634   -3.0874 H   0  0  0  0  0  0  0  0  0  0  0  0
    2.8744   -1.9229   -4.1179 H   0  0  0  0  0  0  0  0  0  0  0  0
    4.6215   -1.8428   -4.3228 H   0  0  0  0  0  0  0  0  0  0  0  0
    4.0370   -3.9031   -3.1255 H   0  0  0  0  0  0  0  0  0  0  0  0
    2.6923   -2.1600   -1.0236 H   0  0  0  0  0  0  0  0  0  0  0  0
    2.8089   -3.9172   -0.9779 H   0  0  0  0  0  0  0  0  0  0  0  0
    1.8448   -3.1564   -2.2078 H   0  0  0  0  0  0  0  0  0  0  0  0
    6.1691   -2.8977   -2.4986 H   0  0  0  0  0  0  0  0  0  0  0  0
    5.4039   -1.7892   -1.3432 H   0  0  0  0  0  0  0  0  0  0  0  0
    4.7461   -3.7358    0.0242 H   0  0  0  0  0  0  0  0  0  0  0  0
    5.3949   -4.8055   -1.2510 H   0  0  0  0  0  0  0  0  0  0  0  0
    7.6293   -4.2486   -0.7139 H   0  0  0  0  0  0  0  0  0  0  0  0
    7.1671   -2.9031    0.2925 H   0  0  0  0  0  0  0  0  0  0  0  0
    6.4651   -4.2043    2.0762 H   0  0  0  0  0  0  0  0  0  0  0  0
    8.9977   -5.5440    0.9694 H   0  0  0  0  0  0  0  0  0  0  0  0
    8.5897   -5.3074    2.6734 H   0  0  0  0  0  0  0  0  0  0  0  0
    8.9559   -3.9238    1.6675 H   0  0  0  0  0  0  0  0  0  0  0  0
    6.7676   -6.7700    0.5452 H   0  0  0  0  0  0  0  0  0  0  0  0
    4.1726   -5.4832    1.4233 H   0  0  0  0  0  0  0  0  0  0  0  0
    4.5295   -6.1160   -0.2059 H   0  0  0  0  0  0  0  0  0  0  0  0
    3.1743   -7.6062    1.4011 H   0  0  0  0  0  0  0  0  0  0  0  0
    4.3395   -8.2183    0.2644 H   0  0  0  0  0  0  0  0  0  0  0  0
    5.6319   -9.0265    1.7755 H   0  0  0  0  0  0  0  0  0  0  0  0
    5.1790   -9.1304    4.0310 H   0  0  0  0  0  0  0  0  0  0  0  0
    3.7673  -10.3829    2.2136 H   0  0  0  0  0  0  0  0  0  0  0  0
    3.6815  -10.6954    3.9253 H   0  0  0  0  0  0  0  0  0  0  0  0
    1.7037   -9.0261    2.3111 H   0  0  0  0  0  0  0  0  0  0  0  0
    1.5960  -11.5058    3.5737 H   0  0  0  0  0  0  0  0  0  0  0  0
    0.4570  -10.5583    5.2920 H   0  0  0  0  0  0  0  0  0  0  0  0
    0.9332   -7.0841    7.8656 H   0  0  0  0  0  0  0  0  0  0  0  0
    2.2725   -5.9791    6.1709 H   0  0  0  0  0  0  0  0  0  0  0  0
    0.4050   -6.6253    3.7400 H   0  0  0  0  0  0  0  0  0  0  0  0
    1.6372   -6.8483    2.5417 H   0  0  0  0  0  0  0  0  0  0  0  0
    1.7775   -5.5548    3.7095 H   0  0  0  0  0  0  0  0  0  0  0  0
    4.0945   -7.9849    5.4131 H   0  0  0  0  0  0  0  0  0  0  0  0
    3.9702   -5.5899    3.5516 H   0  0  0  0  0  0  0  0  0  0  0  0
    4.4159   -5.7150    5.2116 H   0  0  0  0  0  0  0  0  0  0  0  0
    6.4301   -5.4069    3.9279 H   0  0  0  0  0  0  0  0  0  0  0  0
    6.4563   -6.9338    4.7216 H   0  0  0  0  0  0  0  0  0  0  0  0
    7.5359   -8.6571    3.4743 H   0  0  0  0  0  0  0  0  0  0  0  0
    8.4731   -7.2596    2.9610 H   0  0  0  0  0  0  0  0  0  0  0  0
    7.8674   -8.3909    1.7472 H   0  0  0  0  0  0  0  0  0  0  0  0
  1  2  1  0
  1 30  1  0
  1 31  1  0
  1 32  1  0
  2  3  1  0
  2  4  1  0
  2 33  1  0
  3 34  1  0
  3 35  1  0
  3 36  1  0
  4  5  1  0
  4 37  1  0
  4 38  1  0
  5  6  1  0
  5 39  1  0
  5 40  1  0
  6  7  1  0
  6 41  1  0
  6 42  1  0
  7  8  1  0
  7  9  1  0
  7 43  1  1
  8 44  1  0
  8 45  1  0
  8 46  1  0
  9 28  1  0
  9 10  1  0
  9 47  1  6
 10 11  1  0
 10 48  1  0
 10 49  1  0
 11 12  1  0
 11 50  1  0
 11 51  1  0
 12 28  1  0
 12 13  1  0
 12 52  1  6
 13 25  1  0
 13 14  1  0
 13 53  1  1
 14 15  1  0
 14 54  1  0
 14 55  1  0
 15 16  1  0
 15 17  1  0
 15 56  1  6
 16 57  1  0
 17 23  1  0
 17 18  2  0
 18 19  1  0
 18 58  1  0
 19 20  2  0
 19 21  1  0
 21 22  2  0
 21 59  1  0
 22 23  1  0
 22 60  1  0
 23 24  1  6
 23 25  1  0
 24 61  1  0
 24 62  1  0
 24 63  1  0
 25 26  1  0
 25 64  1  1
 26 27  1  0
 26 65  1  0
 26 66  1  0
 27 28  1  0
 27 67  1  0
 27 68  1  0
 28 29  1  1
 29 69  1  0
 29 70  1  0
 29 71  1  0
M  END
>  <i_m_ct_stereo_status>  (63) 
1

>  <s_m_source_file>  (63) 
/var/tmp/pbs.5076255.sched01/tmp25ygy55i/01wbi4d2b.sdf

>  <i_m_source_file_index>  (63) 
24

>  <i_lp_mmshare_version>  (63) 
48012

>  <i_f3d_flags>  (63) 
0

>  <s_epik_input>  (63) 
W0NIM11bQ0hdKFtDSDNdKVtDSDJdW0NIMl1bQ0gyXVtDQEhdKFtDSDNdKVtDQEhdKFtDSDJdW0NIMl0xKVtDQEBdKFtDSDNdKShbQ0gyXVtDSDJdW0NASF0yMylbQ0BIXTFbQ0BASF0yW0NIMl1bQ0BASF0oW09IXSlDKFtDQF0zNFtDSDNdKT1bQ0hdQyg9TylbQ0hdPVtDSF00

>  <s_epik_cmdline>  (63) 
J2VwaWtfcHl0aG9uJywgJy1waHQnLCAnMi4wJywgJy1waCcsICc3LjAnLCAnLXRuJywgJzgnLCAnLW1hJywgJzIwMCcsICctaW1hZScsICc8aW5maWxlLm1hZT4nLCAnLW9tYWUnLCAnPG91dGZpbGUubWFlPic=

>  <r_lp_tautomer_probability>  (63) 
1

>  <r_epik_Ionization_Penalty>  (63) 
5.75075e-07

>  <r_epik_Ionization_Penalty_Charging>  (63) 
0

>  <r_epik_Ionization_Penalty_Neutral>  (63) 
5.75075e-07

>  <r_epik_State_Penalty>  (63) 
-0

>  <r_epik_Charging_Adjusted_Penalty>  (63) 
0

>  <i_epik_Tot_Q>  (63) 
0

>  <i_epik_Tot_abs_Q>  (63) 
0

>  <s_lp_Force_Field>  (63) 
OPLS3e

>  <r_lp_Energy>  (63) 
55.9012

>  <b_lp_Chiralities_Consistent>  (63) 
1

>  <s_lp_Variant>  (63) 
19:0-1

>  <s_i_glide_gridfile>  (63) 
pfpi4k_grid

>  <i_i_glide_lignum>  (63) 
24

>  <i_i_glide_rotatable_bonds>  (63) 
6

>  <r_i_docking_score>  (63) 
-2.56985

>  <r_i_glide_ligand_efficiency>  (63) 
-0.0886155

>  <r_i_glide_ligand_efficiency_sa>  (63) 
-0.272255

>  <r_i_glide_ligand_efficiency_ln>  (63) 
-0.588431

>  <r_i_glide_gscore>  (63) 
-2.56985

>  <r_i_glide_lipo>  (63) 
-0.858853

>  <r_i_glide_hbond>  (63) 
0

>  <r_i_glide_metal>  (63) 
-0

>  <r_i_glide_rewards>  (63) 
-0.691219

>  <r_i_glide_evdw>  (63) 
-26.9831

>  <r_i_glide_ecoul>  (63) 
-0.749566

>  <r_i_glide_erotb>  (63) 
0.493055

>  <r_i_glide_esite>  (63) 
-0.0512419

>  <r_i_glide_emodel>  (63) 
-30.7609

>  <r_i_glide_energy>  (63) 
-27.7327

>  <r_i_glide_einternal>  (63) 
1.82107

>  <r_i_glide_intrahb_reward>  (63) 
-0

>  <i_i_glide_confnum>  (63) 
1

>  <i_i_glide_posenum>  (63) 
3

>  <r_i_glide_eff_state_penalty>  (63) 
0

>  <ligand_id>  (63) 
19

>  <original_smiles>  (63) 
CC(C)CCCC(C)C1CCC2C3CC(O)C4=CC(=O)C=CC4(C)C3CCC12C

>  <smiles>  (63) 
[H]OC1([H])C2=C([H])C(=O)C([H])=C([H])C2(C([H])([H])[H])C2([H])C([H])([H])C([H])([H])C3(C([H])([H])[H])C([H])(C([H])(C([H])([H])[H])C([H])([H])C([H])([H])C([H])([H])C([H])(C([H])([H])[H])C([H])([H])[H])C([H])([H])C([H])([H])C3([H])C2([H])C1([H])[H]

$$$$
21:0:0
     RDKit          3D

 19 20  0  0  1  0  0  0  0  0999 V2000
    2.1452   -0.0272    3.3625 C   0  0  0  0  0  0  0  0  0  0  0  0
    0.9522   -0.9729    3.1936 C   0  0  0  0  0  0  0  0  0  0  0  0
   -0.2755   -0.7597    4.5213 S   0  0  0  0  0  0  0  0  0  0  0  0
   -0.9631    0.8563    4.3060 C   0  0  0  0  0  0  0  0  0  0  0  0
   -0.9217    1.6046    3.1114 C   0  0  0  0  0  0  0  0  0  0  0  0
   -1.4713    2.8955    3.0391 C   0  0  0  0  0  0  0  0  0  0  0  0
   -2.0775    3.5325    4.0589 N   0  0  0  0  0  0  0  0  0  0  0  0
   -2.1229    2.8144    5.2084 C   0  0  0  0  0  0  0  0  0  0  0  0
   -2.6319    3.1363    6.3920 N   0  0  0  0  0  0  0  0  0  0  0  0
   -2.4097    2.0324    7.2083 N   0  0  0  0  0  0  0  0  0  0  0  0
   -1.7921    1.0616    6.6019 N   0  0  0  0  0  0  0  0  0  0  0  0
   -1.6003    1.5267    5.3493 N   0  0  0  0  0  0  0  0  0  0  0  0
    2.8669   -0.1764    2.5612 H   0  0  0  0  0  0  0  0  0  0  0  0
    2.6554   -0.2041    4.3084 H   0  0  0  0  0  0  0  0  0  0  0  0
    1.8501    1.0214    3.3366 H   0  0  0  0  0  0  0  0  0  0  0  0
    0.4827   -0.8117    2.2256 H   0  0  0  0  0  0  0  0  0  0  0  0
    1.2918   -2.0080    3.1913 H   0  0  0  0  0  0  0  0  0  0  0  0
   -0.4523    1.1992    2.2289 H   0  0  0  0  0  0  0  0  0  0  0  0
   -1.3936    3.4286    2.1034 H   0  0  0  0  0  0  0  0  0  0  0  0
  1  2  1  0
  1 13  1  0
  1 14  1  0
  1 15  1  0
  2  3  1  0
  2 16  1  0
  2 17  1  0
  3  4  1  0
  4 12  1  0
  4  5  2  0
  5  6  1  0
  5 18  1  0
  6  7  2  0
  6 19  1  0
  7  8  1  0
  8 12  1  0
  8  9  2  0
  9 10  1  0
 10 11  2  0
 11 12  1  0
M  END
>  <i_m_ct_stereo_status>  (64) 
1

>  <s_m_source_file>  (64) 
/var/tmp/pbs.5076255.sched01/tmp25ygy55i/01wbi4d2b.sdf

>  <i_m_source_file_index>  (64) 
26

>  <i_lp_mmshare_version>  (64) 
48012

>  <i_f3d_flags>  (64) 
0

>  <s_epik_input>  (64) 
W0NIM11bQ0gyXVNjKFtjSF1bY0hdbjEpbihjMTIpbm5uMg==

>  <s_epik_cmdline>  (64) 
J2VwaWtfcHl0aG9uJywgJy1waHQnLCAnMi4wJywgJy1waCcsICc3LjAnLCAnLXRuJywgJzgnLCAnLW1hJywgJzIwMCcsICctaW1hZScsICc8aW5maWxlLm1hZT4nLCAnLW9tYWUnLCAnPG91dGZpbGUubWFlPic=

>  <r_lp_tautomer_probability>  (64) 
1

>  <r_epik_Ionization_Penalty>  (64) 
1.03873e-11

>  <r_epik_Ionization_Penalty_Charging>  (64) 
0

>  <r_epik_Ionization_Penalty_Neutral>  (64) 
1.03873e-11

>  <r_epik_State_Penalty>  (64) 
-0

>  <r_epik_Charging_Adjusted_Penalty>  (64) 
0

>  <i_epik_Tot_Q>  (64) 
0

>  <i_epik_Tot_abs_Q>  (64) 
0

>  <s_lp_Force_Field>  (64) 
OPLS3e

>  <r_lp_Energy>  (64) 
17.3844

>  <b_lp_Chiralities_Consistent>  (64) 
1

>  <s_lp_Variant>  (64) 
21:0-1

>  <s_i_glide_gridfile>  (64) 
pfpi4k_grid

>  <i_i_glide_lignum>  (64) 
26

>  <i_i_glide_rotatable_bonds>  (64) 
2

>  <r_i_docking_score>  (64) 
-3.84591

>  <r_i_glide_ligand_efficiency>  (64) 
-0.320492

>  <r_i_glide_ligand_efficiency_sa>  (64) 
-0.733744

>  <r_i_glide_ligand_efficiency_ln>  (64) 
-1.10359

>  <r_i_glide_gscore>  (64) 
-3.84591

>  <r_i_glide_lipo>  (64) 
0

>  <r_i_glide_hbond>  (64) 
0

>  <r_i_glide_metal>  (64) 
-0

>  <r_i_glide_rewards>  (64) 
-2.17492

>  <r_i_glide_evdw>  (64) 
-16.4869

>  <r_i_glide_ecoul>  (64) 
-4.94361

>  <r_i_glide_erotb>  (64) 
0

>  <r_i_glide_esite>  (64) 
-0.105105

>  <r_i_glide_emodel>  (64) 
-27.6232

>  <r_i_glide_energy>  (64) 
-21.4305

>  <r_i_glide_einternal>  (64) 
0.081153

>  <r_i_glide_intrahb_reward>  (64) 
-0

>  <i_i_glide_confnum>  (64) 
2

>  <i_i_glide_posenum>  (64) 
5

>  <r_i_glide_eff_state_penalty>  (64) 
0

>  <ligand_id>  (64) 
21

>  <original_smiles>  (64) 
CCSc1ccnc2nnnn12

>  <smiles>  (64) 
[H]c1nc2nnnn2c(SC([H])([H])C([H])([H])[H])c1[H]

$$$$
21:0:1
     RDKit          3D

 19 20  0  0  1  0  0  0  0  0999 V2000
   -0.7656   -6.8941    4.7125 C   0  0  0  0  0  0  0  0  0  0  0  0
   -1.1481   -8.3693    4.5569 C   0  0  0  0  0  0  0  0  0  0  0  0
   -0.9979   -8.9177    2.8381 S   0  0  0  0  0  0  0  0  0  0  0  0
    0.7371   -8.9513    2.5137 C   0  0  0  0  0  0  0  0  0  0  0  0
    1.5972  -10.0429    2.7627 C   0  0  0  0  0  0  0  0  0  0  0  0
    2.9667   -9.9737    2.4552 C   0  0  0  0  0  0  0  0  0  0  0  0
    3.5805   -8.8969    1.9214 N   0  0  0  0  0  0  0  0  0  0  0  0
    2.7582   -7.8433    1.6934 C   0  0  0  0  0  0  0  0  0  0  0  0
    3.0286   -6.6365    1.2056 N   0  0  0  0  0  0  0  0  0  0  0  0
    1.8128   -5.9645    1.1779 N   0  0  0  0  0  0  0  0  0  0  0  0
    0.8184   -6.6710    1.6236 N   0  0  0  0  0  0  0  0  0  0  0  0
    1.3867   -7.8515    1.9612 N   0  0  0  0  0  0  0  0  0  0  0  0
   -0.8973   -6.5625    5.7402 H   0  0  0  0  0  0  0  0  0  0  0  0
   -1.3843   -6.2608    4.0780 H   0  0  0  0  0  0  0  0  0  0  0  0
    0.2768   -6.7252    4.4463 H   0  0  0  0  0  0  0  0  0  0  0  0
   -0.5371   -8.9995    5.2045 H   0  0  0  0  0  0  0  0  0  0  0  0
   -2.1784   -8.5271    4.8676 H   0  0  0  0  0  0  0  0  0  0  0  0
    1.1940  -10.9517    3.1780 H   0  0  0  0  0  0  0  0  0  0  0  0
    3.6002  -10.8328    2.6329 H   0  0  0  0  0  0  0  0  0  0  0  0
  1  2  1  0
  1 13  1  0
  1 14  1  0
  1 15  1  0
  2  3  1  0
  2 16  1  0
  2 17  1  0
  3  4  1  0
  4 12  1  0
  4  5  2  0
  5  6  1  0
  5 18  1  0
  6  7  2  0
  6 19  1  0
  7  8  1  0
  8 12  1  0
  8  9  2  0
  9 10  1  0
 10 11  2  0
 11 12  1  0
M  END
>  <i_m_ct_stereo_status>  (65) 
1

>  <s_m_source_file>  (65) 
/var/tmp/pbs.5076255.sched01/tmp25ygy55i/01wbi4d2b.sdf

>  <i_m_source_file_index>  (65) 
26

>  <i_lp_mmshare_version>  (65) 
48012

>  <i_f3d_flags>  (65) 
0

>  <s_epik_input>  (65) 
W0NIM11bQ0gyXVNjKFtjSF1bY0hdbjEpbihjMTIpbm5uMg==

>  <s_epik_cmdline>  (65) 
J2VwaWtfcHl0aG9uJywgJy1waHQnLCAnMi4wJywgJy1waCcsICc3LjAnLCAnLXRuJywgJzgnLCAnLW1hJywgJzIwMCcsICctaW1hZScsICc8aW5maWxlLm1hZT4nLCAnLW9tYWUnLCAnPG91dGZpbGUubWFlPic=

>  <r_lp_tautomer_probability>  (65) 
1

>  <r_epik_Ionization_Penalty>  (65) 
1.03873e-11

>  <r_epik_Ionization_Penalty_Charging>  (65) 
0

>  <r_epik_Ionization_Penalty_Neutral>  (65) 
1.03873e-11

>  <r_epik_State_Penalty>  (65) 
-0

>  <r_epik_Charging_Adjusted_Penalty>  (65) 
0

>  <i_epik_Tot_Q>  (65) 
0

>  <i_epik_Tot_abs_Q>  (65) 
0

>  <s_lp_Force_Field>  (65) 
OPLS3e

>  <r_lp_Energy>  (65) 
17.3844

>  <b_lp_Chiralities_Consistent>  (65) 
1

>  <s_lp_Variant>  (65) 
21:0-1

>  <s_i_glide_gridfile>  (65) 
pfpi4k_grid

>  <i_i_glide_lignum>  (65) 
26

>  <i_i_glide_rotatable_bonds>  (65) 
2

>  <r_i_docking_score>  (65) 
-3.75118

>  <r_i_glide_ligand_efficiency>  (65) 
-0.312599

>  <r_i_glide_ligand_efficiency_sa>  (65) 
-0.715672

>  <r_i_glide_ligand_efficiency_ln>  (65) 
-1.07641

>  <r_i_glide_gscore>  (65) 
-3.75118

>  <r_i_glide_lipo>  (65) 
-0.0981624

>  <r_i_glide_hbond>  (65) 
0

>  <r_i_glide_metal>  (65) 
-0

>  <r_i_glide_rewards>  (65) 
-2.1735

>  <r_i_glide_evdw>  (65) 
-19.2904

>  <r_i_glide_ecoul>  (65) 
-2.22387

>  <r_i_glide_erotb>  (65) 
0

>  <r_i_glide_esite>  (65) 
-0.181415

>  <r_i_glide_emodel>  (65) 
-26.85

>  <r_i_glide_energy>  (65) 
-21.5143

>  <r_i_glide_einternal>  (65) 
1.52441

>  <r_i_glide_intrahb_reward>  (65) 
-0

>  <i_i_glide_confnum>  (65) 
1

>  <i_i_glide_posenum>  (65) 
8

>  <r_i_glide_eff_state_penalty>  (65) 
0

>  <ligand_id>  (65) 
21

>  <original_smiles>  (65) 
CCSc1ccnc2nnnn12

>  <smiles>  (65) 
[H]c1nc2nnnn2c(SC([H])([H])C([H])([H])[H])c1[H]

$$$$
21:0:2
     RDKit          3D

 19 20  0  0  1  0  0  0  0  0999 V2000
   -0.6890    4.9305    3.4667 C   0  0  0  0  0  0  0  0  0  0  0  0
   -1.9272    4.0972    3.1020 C   0  0  0  0  0  0  0  0  0  0  0  0
   -2.1649    2.7156    4.2565 S   0  0  0  0  0  0  0  0  0  0  0  0
   -1.0102    1.4579    3.7803 C   0  0  0  0  0  0  0  0  0  0  0  0
   -0.0479    1.5836    2.7531 C   0  0  0  0  0  0  0  0  0  0  0  0
    0.8567    0.5485    2.4701 C   0  0  0  0  0  0  0  0  0  0  0  0
    0.8994   -0.6308    3.1185 N   0  0  0  0  0  0  0  0  0  0  0  0
   -0.0419   -0.7751    4.0842 C   0  0  0  0  0  0  0  0  0  0  0  0
   -0.3040   -1.8133    4.8725 N   0  0  0  0  0  0  0  0  0  0  0  0
   -1.3798   -1.4224    5.6525 N   0  0  0  0  0  0  0  0  0  0  0  0
   -1.7860   -0.2135    5.4046 N   0  0  0  0  0  0  0  0  0  0  0  0
   -0.9704    0.2138    4.4173 N   0  0  0  0  0  0  0  0  0  0  0  0
   -0.5531    5.7502    2.7602 H   0  0  0  0  0  0  0  0  0  0  0  0
    0.2295    4.3422    3.4347 H   0  0  0  0  0  0  0  0  0  0  0  0
   -0.7596    5.3490    4.4711 H   0  0  0  0  0  0  0  0  0  0  0  0
   -2.8152    4.7266    3.0998 H   0  0  0  0  0  0  0  0  0  0  0  0
   -1.8472    3.7039    2.0900 H   0  0  0  0  0  0  0  0  0  0  0  0
    0.0196    2.4878    2.1724 H   0  0  0  0  0  0  0  0  0  0  0  0
    1.5765    0.7101    1.6793 H   0  0  0  0  0  0  0  0  0  0  0  0
  1  2  1  0
  1 13  1  0
  1 14  1  0
  1 15  1  0
  2  3  1  0
  2 16  1  0
  2 17  1  0
  3  4  1  0
  4 12  1  0
  4  5  2  0
  5  6  1  0
  5 18  1  0
  6  7  2  0
  6 19  1  0
  7  8  1  0
  8 12  1  0
  8  9  2  0
  9 10  1  0
 10 11  2  0
 11 12  1  0
M  END
>  <i_m_ct_stereo_status>  (66) 
1

>  <s_m_source_file>  (66) 
/var/tmp/pbs.5076255.sched01/tmp25ygy55i/01wbi4d2b.sdf

>  <i_m_source_file_index>  (66) 
26

>  <i_lp_mmshare_version>  (66) 
48012

>  <i_f3d_flags>  (66) 
0

>  <s_epik_input>  (66) 
W0NIM11bQ0gyXVNjKFtjSF1bY0hdbjEpbihjMTIpbm5uMg==

>  <s_epik_cmdline>  (66) 
J2VwaWtfcHl0aG9uJywgJy1waHQnLCAnMi4wJywgJy1waCcsICc3LjAnLCAnLXRuJywgJzgnLCAnLW1hJywgJzIwMCcsICctaW1hZScsICc8aW5maWxlLm1hZT4nLCAnLW9tYWUnLCAnPG91dGZpbGUubWFlPic=

>  <r_lp_tautomer_probability>  (66) 
1

>  <r_epik_Ionization_Penalty>  (66) 
1.03873e-11

>  <r_epik_Ionization_Penalty_Charging>  (66) 
0

>  <r_epik_Ionization_Penalty_Neutral>  (66) 
1.03873e-11

>  <r_epik_State_Penalty>  (66) 
-0

>  <r_epik_Charging_Adjusted_Penalty>  (66) 
0

>  <i_epik_Tot_Q>  (66) 
0

>  <i_epik_Tot_abs_Q>  (66) 
0

>  <s_lp_Force_Field>  (66) 
OPLS3e

>  <r_lp_Energy>  (66) 
17.3844

>  <b_lp_Chiralities_Consistent>  (66) 
1

>  <s_lp_Variant>  (66) 
21:0-1

>  <s_i_glide_gridfile>  (66) 
pfpi4k_grid

>  <i_i_glide_lignum>  (66) 
26

>  <i_i_glide_rotatable_bonds>  (66) 
2

>  <r_i_docking_score>  (66) 
-3.65859

>  <r_i_glide_ligand_efficiency>  (66) 
-0.304882

>  <r_i_glide_ligand_efficiency_sa>  (66) 
-0.698006

>  <r_i_glide_ligand_efficiency_ln>  (66) 
-1.04984

>  <r_i_glide_gscore>  (66) 
-3.65859

>  <r_i_glide_lipo>  (66) 
0

>  <r_i_glide_hbond>  (66) 
0

>  <r_i_glide_metal>  (66) 
-0

>  <r_i_glide_rewards>  (66) 
-2.1735

>  <r_i_glide_evdw>  (66) 
-18.6694

>  <r_i_glide_ecoul>  (66) 
-2.55964

>  <r_i_glide_erotb>  (66) 
0

>  <r_i_glide_esite>  (66) 
-0.167669

>  <r_i_glide_emodel>  (66) 
-26.9231

>  <r_i_glide_energy>  (66) 
-21.229

>  <r_i_glide_einternal>  (66) 
0.368448

>  <r_i_glide_intrahb_reward>  (66) 
-0

>  <i_i_glide_confnum>  (66) 
2

>  <i_i_glide_posenum>  (66) 
26

>  <r_i_glide_eff_state_penalty>  (66) 
0

>  <ligand_id>  (66) 
21

>  <original_smiles>  (66) 
CCSc1ccnc2nnnn12

>  <smiles>  (66) 
[H]c1nc2nnnn2c(SC([H])([H])C([H])([H])[H])c1[H]

$$$$
22:0:0
     RDKit          3D

 48 52  0  0  1  0  0  0  0  0999 V2000
    2.0352   -6.3424    1.5855 C   0  0  0  0  0  0  0  0  0  0  0  0
    2.5900   -5.4902    0.7096 C   0  0  0  0  0  0  0  0  0  0  0  0
    3.0776   -4.0831    1.0693 C   0  0  2  0  0  0  0  0  0  0  0  0
    2.4731   -3.0695    0.2135 O   0  0  0  0  0  0  0  0  0  0  0  0
    3.3414   -2.6931   -0.8851 C   0  0  2  0  0  0  0  0  0  0  0  0
    2.6267   -2.9523   -2.2274 C   0  0  0  0  0  0  0  0  0  0  0  0
    3.5901   -2.8623   -3.4309 C   0  0  0  0  0  0  0  0  0  0  0  0
    4.8646   -3.7016   -3.2145 C   0  0  0  0  0  0  0  0  0  0  0  0
    5.5078   -3.4297   -1.8438 C   0  0  0  0  0  0  0  0  0  0  0  0
    4.4578   -3.6505   -0.7315 C   0  0  1  0  0  0  0  0  0  0  0  0
    4.5587   -3.7030    0.8322 C   0  0  2  0  0  0  0  0  0  0  0  0
    5.8108   -4.5069    1.2668 C   0  0  1  0  0  0  0  0  0  0  0  0
    5.8868   -5.9719    0.8281 C   0  0  0  0  0  0  0  0  0  0  0  0
    7.0843   -3.6795    0.8545 C   0  0  0  0  0  0  0  0  0  0  0  0
    6.9114   -2.1344    0.5462 C   0  0  0  0  0  0  0  0  0  0  0  0
    5.5660   -1.4836    0.9851 C   0  0  2  0  0  0  0  0  0  0  0  0
    4.6941   -2.4036    1.7234 C   0  0  1  0  0  0  0  0  0  0  0  0
    3.5426   -1.4465    2.1367 C   0  0  0  0  0  0  0  0  0  0  0  0
    3.5457   -0.3300    1.1008 C   0  0  0  0  0  0  0  0  0  0  0  0
    4.6112   -0.6842    0.1739 N   0  0  0  0  0  0  0  0  0  0  0  0
    3.9153   -1.3438   -0.9732 O   0  0  0  0  0  0  0  0  0  0  0  0
    1.9106   -6.0858    2.6256 H   0  0  0  0  0  0  0  0  0  0  0  0
    1.7086   -7.3209    1.2606 H   0  0  0  0  0  0  0  0  0  0  0  0
    2.6787   -5.8244   -0.3118 H   0  0  0  0  0  0  0  0  0  0  0  0
    2.7932   -3.9542    2.1140 H   0  0  0  0  0  0  0  0  0  0  0  0
    2.1581   -3.9345   -2.2103 H   0  0  0  0  0  0  0  0  0  0  0  0
    1.8163   -2.2485   -2.3630 H   0  0  0  0  0  0  0  0  0  0  0  0
    3.0790   -3.2016   -4.3305 H   0  0  0  0  0  0  0  0  0  0  0  0
    3.8698   -1.8224   -3.6008 H   0  0  0  0  0  0  0  0  0  0  0  0
    4.6236   -4.7591   -3.3051 H   0  0  0  0  0  0  0  0  0  0  0  0
    5.5925   -3.5021   -3.9970 H   0  0  0  0  0  0  0  0  0  0  0  0
    6.3266   -4.1187   -1.7230 H   0  0  0  0  0  0  0  0  0  0  0  0
    5.8909   -2.4156   -1.8975 H   0  0  0  0  0  0  0  0  0  0  0  0
    4.1405   -4.6458   -1.0320 H   0  0  0  0  0  0  0  0  0  0  0  0
    5.8105   -4.5857    2.3534 H   0  0  0  0  0  0  0  0  0  0  0  0
    5.8632   -6.0644   -0.2583 H   0  0  0  0  0  0  0  0  0  0  0  0
    5.0656   -6.5624    1.2399 H   0  0  0  0  0  0  0  0  0  0  0  0
    6.8166   -6.4175    1.1861 H   0  0  0  0  0  0  0  0  0  0  0  0
    7.8194   -3.7956    1.6493 H   0  0  0  0  0  0  0  0  0  0  0  0
    7.5672   -4.1549    0.0034 H   0  0  0  0  0  0  0  0  0  0  0  0
    7.6812   -1.6252    1.1254 H   0  0  0  0  0  0  0  0  0  0  0  0
    7.1977   -1.8630   -0.4619 H   0  0  0  0  0  0  0  0  0  0  0  0
    5.8927   -0.7378    1.7168 H   0  0  0  0  0  0  0  0  0  0  0  0
    5.1731   -2.6488    2.6731 H   0  0  0  0  0  0  0  0  0  0  0  0
    2.5514   -1.8678    2.2825 H   0  0  0  0  0  0  0  0  0  0  0  0
    3.7904   -1.0031    3.1015 H   0  0  0  0  0  0  0  0  0  0  0  0
    2.5826   -0.2060    0.6026 H   0  0  0  0  0  0  0  0  0  0  0  0
    3.7923    0.6129    1.5880 H   0  0  0  0  0  0  0  0  0  0  0  0
  1  2  2  0
  1 22  1  0
  1 23  1  0
  2  3  1  0
  2 24  1  0
 11  3  1  1
  3  4  1  0
  3 25  1  1
  5  4  1  1
  5 10  1  0
  5 21  1  0
  5  6  1  0
  6  7  1  0
  6 26  1  0
  6 27  1  0
  7  8  1  0
  7 28  1  0
  7 29  1  0
  8  9  1  0
  8 30  1  0
  8 31  1  0
  9 10  1  0
  9 32  1  0
  9 33  1  0
 10 11  1  0
 10 34  1  6
 11 17  1  0
 11 12  1  0
 12 13  1  0
 12 14  1  0
 12 35  1  1
 13 36  1  0
 13 37  1  0
 13 38  1  0
 14 15  1  0
 14 39  1  0
 14 40  1  0
 15 16  1  0
 15 41  1  0
 15 42  1  0
 16 20  1  0
 16 17  1  0
 16 43  1  1
 17 18  1  0
 17 44  1  1
 18 19  1  0
 18 45  1  0
 18 46  1  0
 19 20  1  0
 19 47  1  0
 19 48  1  0
 20 21  1  0
M  END
>  <i_m_ct_stereo_status>  (67) 
1

>  <s_m_source_file>  (67) 
/var/tmp/pbs.5076255.sched01/tmp25ygy55i/01wbi4d2b.sdf

>  <i_m_source_file_index>  (67) 
27

>  <i_lp_mmshare_version>  (67) 
48012

>  <i_f3d_flags>  (67) 
0

>  <s_epik_input>  (67) 
W0NIMl0xW0NIMl1bQ0gyXVtDSDJdW0NASF0oW0NAQF0xMjMpW0NAXTQoW0NAQEhdKE8yKVtDSF09W0NIMl0pW0NASF01W0NASF0oTihPMylbQ0gyXVtDSDJdNSlbQ0gyXVtDSDJdW0NAQEhdNFtDSDNd

>  <s_epik_cmdline>  (67) 
J2VwaWtfcHl0aG9uJywgJy1waHQnLCAnMi4wJywgJy1waCcsICc3LjAnLCAnLXRuJywgJzgnLCAnLW1hJywgJzIwMCcsICctaW1hZScsICc8aW5maWxlLm1hZT4nLCAnLW9tYWUnLCAnPG91dGZpbGUubWFlPic=

>  <r_epik_Ionization_Penalty>  (67) 
0.0101715

>  <r_epik_Ionization_Penalty_Charging>  (67) 
0

>  <r_epik_Ionization_Penalty_Neutral>  (67) 
0.0101715

>  <r_epik_State_Penalty>  (67) 
0.00776429

>  <r_epik_Charging_Adjusted_Penalty>  (67) 
0.00776429

>  <i_epik_Tot_Q>  (67) 
0

>  <i_epik_Tot_abs_Q>  (67) 
0

>  <s_epik_Chemistry_Notes>  (67) 
This compound has a N-S or N-O group and may undergo hydrolysis at high or low pH.

>  <s_lp_Force_Field>  (67) 
OPLS3e

>  <r_lp_Energy>  (67) 
116.944

>  <b_lp_Chiralities_Consistent>  (67) 
1

>  <s_lp_Variant>  (67) 
22:0-1

>  <s_i_glide_gridfile>  (67) 
pfpi4k_grid

>  <i_i_glide_lignum>  (67) 
27

>  <i_i_glide_rotatable_bonds>  (67) 
1

>  <r_i_docking_score>  (67) 
-3.65794

>  <r_i_glide_ligand_efficiency>  (67) 
-0.174187

>  <r_i_glide_ligand_efficiency_sa>  (67) 
-0.48057

>  <r_i_glide_ligand_efficiency_ln>  (67) 
-0.904417

>  <r_i_glide_gscore>  (67) 
-3.65794

>  <r_i_glide_lipo>  (67) 
-0.884241

>  <r_i_glide_hbond>  (67) 
0

>  <r_i_glide_metal>  (67) 
-0

>  <r_i_glide_rewards>  (67) 
-1.51754

>  <r_i_glide_evdw>  (67) 
-26.9166

>  <r_i_glide_ecoul>  (67) 
-0.166888

>  <r_i_glide_erotb>  (67) 
0.21739

>  <r_i_glide_esite>  (67) 
-0.102689

>  <r_i_glide_emodel>  (67) 
-32.8736

>  <r_i_glide_energy>  (67) 
-27.0834

>  <r_i_glide_einternal>  (67) 
0.0241949

>  <r_i_glide_intrahb_reward>  (67) 
-0

>  <i_i_glide_confnum>  (67) 
1

>  <i_i_glide_posenum>  (67) 
17

>  <r_i_glide_eff_state_penalty>  (67) 
0

>  <ligand_id>  (67) 
22

>  <original_smiles>  (67) 
C=CC1OC23CCCCC2C12C(C)CCC1C2CCN1O3

>  <smiles>  (67) 
[H]C([H])=C([H])C1([H])OC23ON4C([H])([H])C([H])([H])C5([H])C4([H])C([H])([H])C([H])([H])C([H])(C([H])([H])[H])C15C2([H])C([H])([H])C([H])([H])C([H])([H])C3([H])[H]

$$$$
22:0:1
     RDKit          3D

 48 52  0  0  1  0  0  0  0  0999 V2000
    2.8429   -2.4657   -3.3371 C   0  0  0  0  0  0  0  0  0  0  0  0
    3.0381   -2.2624   -2.0260 C   0  0  0  0  0  0  0  0  0  0  0  0
    3.1142   -3.3766   -0.9826 C   0  0  2  0  0  0  0  0  0  0  0  0
    2.3002   -3.0888    0.1962 O   0  0  0  0  0  0  0  0  0  0  0  0
    3.0909   -2.5282    1.2725 C   0  0  2  0  0  0  0  0  0  0  0  0
    2.5238   -1.1516    1.6770 C   0  0  0  0  0  0  0  0  0  0  0  0
    3.4868   -0.3676    2.5935 C   0  0  0  0  0  0  0  0  0  0  0  0
    4.9220   -0.3203    2.0299 C   0  0  0  0  0  0  0  0  0  0  0  0
    5.4295   -1.7141    1.6164 C   0  0  0  0  0  0  0  0  0  0  0  0
    4.4124   -2.3462    0.6285 C   0  0  1  0  0  0  0  0  0  0  0  0
    4.4504   -3.6371   -0.2514 C   0  0  2  0  0  0  0  0  0  0  0  0
    5.8440   -3.7860   -0.8947 C   0  0  1  0  0  0  0  0  0  0  0  0
    6.3314   -2.6646   -1.8235 C   0  0  0  0  0  0  0  0  0  0  0  0
    6.8770   -4.1143    0.2482 C   0  0  0  0  0  0  0  0  0  0  0  0
    6.3233   -4.6579    1.6281 C   0  0  0  0  0  0  0  0  0  0  0  0
    4.8360   -5.1143    1.6527 C   0  0  2  0  0  0  0  0  0  0  0  0
    4.2038   -5.0887    0.3320 C   0  0  1  0  0  0  0  0  0  0  0  0
    2.8283   -5.7312    0.6560 C   0  0  0  0  0  0  0  0  0  0  0  0
    2.5835   -5.4613    2.1357 C   0  0  0  0  0  0  0  0  0  0  0  0
    3.7378   -4.6885    2.5648 N   0  0  0  0  0  0  0  0  0  0  0  0
    3.2786   -3.2662    2.5278 O   0  0  0  0  0  0  0  0  0  0  0  0
    2.7468   -3.4598   -3.7532 H   0  0  0  0  0  0  0  0  0  0  0  0
    2.7756   -1.6219   -4.0107 H   0  0  0  0  0  0  0  0  0  0  0  0
    3.1154   -1.2463   -1.6784 H   0  0  0  0  0  0  0  0  0  0  0  0
    2.7559   -4.2526   -1.5125 H   0  0  0  0  0  0  0  0  0  0  0  0
    2.3458   -0.5489    0.7858 H   0  0  0  0  0  0  0  0  0  0  0  0
    1.5563   -1.2690    2.1652 H   0  0  0  0  0  0  0  0  0  0  0  0
    3.1192    0.6517    2.7170 H   0  0  0  0  0  0  0  0  0  0  0  0
    3.5001   -0.8157    3.5885 H   0  0  0  0  0  0  0  0  0  0  0  0
    4.9488    0.3466    1.1638 H   0  0  0  0  0  0  0  0  0  0  0  0
    5.5918    0.1099    2.7774 H   0  0  0  0  0  0  0  0  0  0  0  0
    6.4082   -1.5795    1.1665 H   0  0  0  0  0  0  0  0  0  0  0  0
    5.5367   -2.2738    2.5391 H   0  0  0  0  0  0  0  0  0  0  0  0
    4.3593   -1.5194   -0.0754 H   0  0  0  0  0  0  0  0  0  0  0  0
    5.8006   -4.6458   -1.5601 H   0  0  0  0  0  0  0  0  0  0  0  0
    6.3949   -1.7068   -1.3092 H   0  0  0  0  0  0  0  0  0  0  0  0
    5.6781   -2.5555   -2.6901 H   0  0  0  0  0  0  0  0  0  0  0  0
    7.3228   -2.9142   -2.2063 H   0  0  0  0  0  0  0  0  0  0  0  0
    7.5890   -4.8428   -0.1331 H   0  0  0  0  0  0  0  0  0  0  0  0
    7.5048   -3.2449    0.4386 H   0  0  0  0  0  0  0  0  0  0  0  0
    6.9168   -5.5483    1.8479 H   0  0  0  0  0  0  0  0  0  0  0  0
    6.5650   -4.0209    2.4713 H   0  0  0  0  0  0  0  0  0  0  0  0
    4.9202   -6.1732    1.9155 H   0  0  0  0  0  0  0  0  0  0  0  0
    4.6873   -5.8329   -0.3020 H   0  0  0  0  0  0  0  0  0  0  0  0
    1.9799   -5.4690    0.0301 H   0  0  0  0  0  0  0  0  0  0  0  0
    2.9243   -6.8099    0.5353 H   0  0  0  0  0  0  0  0  0  0  0  0
    1.6393   -4.9491    2.3299 H   0  0  0  0  0  0  0  0  0  0  0  0
    2.5624   -6.4096    2.6736 H   0  0  0  0  0  0  0  0  0  0  0  0
  1  2  2  0
  1 22  1  0
  1 23  1  0
  2  3  1  0
  2 24  1  0
 11  3  1  6
  3  4  1  0
  3 25  1  6
  5  4  1  6
  5 10  1  0
  5 21  1  0
  5  6  1  0
  6  7  1  0
  6 26  1  0
  6 27  1  0
  7  8  1  0
  7 28  1  0
  7 29  1  0
  8  9  1  0
  8 30  1  0
  8 31  1  0
  9 10  1  0
  9 32  1  0
  9 33  1  0
 10 11  1  0
 10 34  1  6
 11 17  1  0
 11 12  1  0
 12 13  1  0
 12 14  1  0
 12 35  1  6
 13 36  1  0
 13 37  1  0
 13 38  1  0
 14 15  1  0
 14 39  1  0
 14 40  1  0
 15 16  1  0
 15 41  1  0
 15 42  1  0
 16 20  1  0
 16 17  1  0
 16 43  1  1
 17 18  1  0
 17 44  1  6
 18 19  1  0
 18 45  1  0
 18 46  1  0
 19 20  1  0
 19 47  1  0
 19 48  1  0
 20 21  1  0
M  END
>  <i_m_ct_stereo_status>  (68) 
1

>  <s_m_source_file>  (68) 
/var/tmp/pbs.5076255.sched01/tmp25ygy55i/01wbi4d2b.sdf

>  <i_m_source_file_index>  (68) 
27

>  <i_lp_mmshare_version>  (68) 
48012

>  <i_f3d_flags>  (68) 
0

>  <s_epik_input>  (68) 
W0NIMl0xW0NIMl1bQ0gyXVtDSDJdW0NASF0oW0NAQF0xMjMpW0NAXTQoW0NAQEhdKE8yKVtDSF09W0NIMl0pW0NASF01W0NASF0oTihPMylbQ0gyXVtDSDJdNSlbQ0gyXVtDSDJdW0NAQEhdNFtDSDNd

>  <s_epik_cmdline>  (68) 
J2VwaWtfcHl0aG9uJywgJy1waHQnLCAnMi4wJywgJy1waCcsICc3LjAnLCAnLXRuJywgJzgnLCAnLW1hJywgJzIwMCcsICctaW1hZScsICc8aW5maWxlLm1hZT4nLCAnLW9tYWUnLCAnPG91dGZpbGUubWFlPic=

>  <r_epik_Ionization_Penalty>  (68) 
0.0101715

>  <r_epik_Ionization_Penalty_Charging>  (68) 
0

>  <r_epik_Ionization_Penalty_Neutral>  (68) 
0.0101715

>  <r_epik_State_Penalty>  (68) 
0.00776429

>  <r_epik_Charging_Adjusted_Penalty>  (68) 
0.00776429

>  <i_epik_Tot_Q>  (68) 
0

>  <i_epik_Tot_abs_Q>  (68) 
0

>  <s_epik_Chemistry_Notes>  (68) 
This compound has a N-S or N-O group and may undergo hydrolysis at high or low pH.

>  <s_lp_Force_Field>  (68) 
OPLS3e

>  <r_lp_Energy>  (68) 
116.944

>  <b_lp_Chiralities_Consistent>  (68) 
1

>  <s_lp_Variant>  (68) 
22:0-1

>  <s_i_glide_gridfile>  (68) 
pfpi4k_grid

>  <i_i_glide_lignum>  (68) 
27

>  <i_i_glide_rotatable_bonds>  (68) 
1

>  <r_i_docking_score>  (68) 
-3.2041

>  <r_i_glide_ligand_efficiency>  (68) 
-0.152576

>  <r_i_glide_ligand_efficiency_sa>  (68) 
-0.420946

>  <r_i_glide_ligand_efficiency_ln>  (68) 
-0.792206

>  <r_i_glide_gscore>  (68) 
-3.2041

>  <r_i_glide_lipo>  (68) 
-0.834247

>  <r_i_glide_hbond>  (68) 
-0.0114313

>  <r_i_glide_metal>  (68) 
-0

>  <r_i_glide_rewards>  (68) 
-1.43582

>  <r_i_glide_evdw>  (68) 
-22.8055

>  <r_i_glide_ecoul>  (68) 
0.112144

>  <r_i_glide_erotb>  (68) 
0.21739

>  <r_i_glide_esite>  (68) 
-0.0165296

>  <r_i_glide_emodel>  (68) 
-27.7745

>  <r_i_glide_energy>  (68) 
-22.6934

>  <r_i_glide_einternal>  (68) 
0.0400917

>  <r_i_glide_intrahb_reward>  (68) 
-0

>  <i_i_glide_confnum>  (68) 
2

>  <i_i_glide_posenum>  (68) 
8

>  <r_i_glide_eff_state_penalty>  (68) 
0

>  <ligand_id>  (68) 
22

>  <original_smiles>  (68) 
C=CC1OC23CCCCC2C12C(C)CCC1C2CCN1O3

>  <smiles>  (68) 
[H]C([H])=C([H])C1([H])OC23ON4C([H])([H])C([H])([H])C5([H])C4([H])C([H])([H])C([H])([H])C([H])(C([H])([H])[H])C15C2([H])C([H])([H])C([H])([H])C([H])([H])C3([H])[H]

$$$$
22:0:2
     RDKit          3D

 48 52  0  0  1  0  0  0  0  0999 V2000
    3.5824    1.0948    4.6314 C   0  0  0  0  0  0  0  0  0  0  0  0
    2.8138    2.1772    4.7920 C   0  0  0  0  0  0  0  0  0  0  0  0
    1.3326    2.2484    4.4167 C   0  0  2  0  0  0  0  0  0  0  0  0
    1.0479    3.4074    3.5825 O   0  0  0  0  0  0  0  0  0  0  0  0
    0.5211    4.5113    4.3527 C   0  0  2  0  0  0  0  0  0  0  0  0
    1.4244    5.7479    4.1631 C   0  0  0  0  0  0  0  0  0  0  0  0
    1.1122    6.8610    5.1869 C   0  0  0  0  0  0  0  0  0  0  0  0
    1.0585    6.3368    6.6365 C   0  0  0  0  0  0  0  0  0  0  0  0
    0.1718    5.0797    6.7675 C   0  0  0  0  0  0  0  0  0  0  0  0
    0.6526    4.0164    5.7436 C   0  0  1  0  0  0  0  0  0  0  0  0
    0.2808    2.5110    5.5213 C   0  0  2  0  0  0  0  0  0  0  0  0
    0.1488    1.7837    6.8859 C   0  0  1  0  0  0  0  0  0  0  0  0
    1.3929    1.7561    7.7860 C   0  0  0  0  0  0  0  0  0  0  0  0
   -1.1199    2.3512    7.6222 C   0  0  0  0  0  0  0  0  0  0  0  0
   -2.2060    3.1196    6.7656 C   0  0  0  0  0  0  0  0  0  0  0  0
   -2.0877    2.9987    5.2173 C   0  0  2  0  0  0  0  0  0  0  0  0
   -1.0499    2.0580    4.7913 C   0  0  1  0  0  0  0  0  0  0  0  0
   -1.2918    2.0291    3.2594 C   0  0  0  0  0  0  0  0  0  0  0  0
   -1.9747    3.3449    2.9192 C   0  0  0  0  0  0  0  0  0  0  0  0
   -2.0349    4.0629    4.1839 N   0  0  0  0  0  0  0  0  0  0  0  0
   -0.8559    4.9820    4.1593 O   0  0  0  0  0  0  0  0  0  0  0  0
    3.1870    0.1746    4.2250 H   0  0  0  0  0  0  0  0  0  0  0  0
    4.6265    1.1209    4.9074 H   0  0  0  0  0  0  0  0  0  0  0  0
    3.2836    3.0628    5.1962 H   0  0  0  0  0  0  0  0  0  0  0  0
    1.1411    1.3122    3.8893 H   0  0  0  0  0  0  0  0  0  0  0  0
    2.4697    5.4520    4.2678 H   0  0  0  0  0  0  0  0  0  0  0  0
    1.3165    6.1376    3.1516 H   0  0  0  0  0  0  0  0  0  0  0  0
    1.8673    7.6443    5.1150 H   0  0  0  0  0  0  0  0  0  0  0  0
    0.1641    7.3337    4.9342 H   0  0  0  0  0  0  0  0  0  0  0  0
    2.0713    6.1055    6.9764 H   0  0  0  0  0  0  0  0  0  0  0  0
    0.6902    7.1214    7.2996 H   0  0  0  0  0  0  0  0  0  0  0  0
    0.2565    4.7256    7.7912 H   0  0  0  0  0  0  0  0  0  0  0  0
   -0.8438    5.4148    6.5934 H   0  0  0  0  0  0  0  0  0  0  0  0
    1.6995    4.0107    6.0303 H   0  0  0  0  0  0  0  0  0  0  0  0
   -0.0283    0.7289    6.6907 H   0  0  0  0  0  0  0  0  0  0  0  0
    1.7307    2.7546    8.0660 H   0  0  0  0  0  0  0  0  0  0  0  0
    2.2213    1.2319    7.3050 H   0  0  0  0  0  0  0  0  0  0  0  0
    1.1654    1.2140    8.7062 H   0  0  0  0  0  0  0  0  0  0  0  0
   -1.6108    1.5225    8.1304 H   0  0  0  0  0  0  0  0  0  0  0  0
   -0.8057    2.9916    8.4442 H   0  0  0  0  0  0  0  0  0  0  0  0
   -3.1619    2.6704    7.0370 H   0  0  0  0  0  0  0  0  0  0  0  0
   -2.3518    4.1416    7.0917 H   0  0  0  0  0  0  0  0  0  0  0  0
   -3.0383    2.5366    4.9550 H   0  0  0  0  0  0  0  0  0  0  0  0
   -1.3301    1.0543    5.1155 H   0  0  0  0  0  0  0  0  0  0  0  0
   -0.4503    1.8212    2.6030 H   0  0  0  0  0  0  0  0  0  0  0  0
   -1.9994    1.2319    3.0419 H   0  0  0  0  0  0  0  0  0  0  0  0
   -1.4462    3.9068    2.1519 H   0  0  0  0  0  0  0  0  0  0  0  0
   -2.9834    3.1470    2.5595 H   0  0  0  0  0  0  0  0  0  0  0  0
  1  2  2  0
  1 22  1  0
  1 23  1  0
  2  3  1  0
  2 24  1  0
 11  3  1  6
  3  4  1  0
  3 25  1  6
  5  4  1  6
  5 10  1  0
  5 21  1  0
  5  6  1  0
  6  7  1  0
  6 26  1  0
  6 27  1  0
  7  8  1  0
  7 28  1  0
  7 29  1  0
  8  9  1  0
  8 30  1  0
  8 31  1  0
  9 10  1  0
  9 32  1  0
  9 33  1  0
 10 11  1  0
 10 34  1  1
 11 17  1  0
 11 12  1  0
 12 13  1  0
 12 14  1  0
 12 35  1  6
 13 36  1  0
 13 37  1  0
 13 38  1  0
 14 15  1  0
 14 39  1  0
 14 40  1  0
 15 16  1  0
 15 41  1  0
 15 42  1  0
 16 20  1  0
 16 17  1  0
 16 43  1  6
 17 18  1  0
 17 44  1  1
 18 19  1  0
 18 45  1  0
 18 46  1  0
 19 20  1  0
 19 47  1  0
 19 48  1  0
 20 21  1  0
M  END
>  <i_m_ct_stereo_status>  (69) 
1

>  <s_m_source_file>  (69) 
/var/tmp/pbs.5076255.sched01/tmp25ygy55i/01wbi4d2b.sdf

>  <i_m_source_file_index>  (69) 
27

>  <i_lp_mmshare_version>  (69) 
48012

>  <i_f3d_flags>  (69) 
0

>  <s_epik_input>  (69) 
W0NIMl0xW0NIMl1bQ0gyXVtDSDJdW0NASF0oW0NAQF0xMjMpW0NAXTQoW0NAQEhdKE8yKVtDSF09W0NIMl0pW0NASF01W0NASF0oTihPMylbQ0gyXVtDSDJdNSlbQ0gyXVtDSDJdW0NAQEhdNFtDSDNd

>  <s_epik_cmdline>  (69) 
J2VwaWtfcHl0aG9uJywgJy1waHQnLCAnMi4wJywgJy1waCcsICc3LjAnLCAnLXRuJywgJzgnLCAnLW1hJywgJzIwMCcsICctaW1hZScsICc8aW5maWxlLm1hZT4nLCAnLW9tYWUnLCAnPG91dGZpbGUubWFlPic=

>  <r_epik_Ionization_Penalty>  (69) 
0.0101715

>  <r_epik_Ionization_Penalty_Charging>  (69) 
0

>  <r_epik_Ionization_Penalty_Neutral>  (69) 
0.0101715

>  <r_epik_State_Penalty>  (69) 
0.00776429

>  <r_epik_Charging_Adjusted_Penalty>  (69) 
0.00776429

>  <i_epik_Tot_Q>  (69) 
0

>  <i_epik_Tot_abs_Q>  (69) 
0

>  <s_epik_Chemistry_Notes>  (69) 
This compound has a N-S or N-O group and may undergo hydrolysis at high or low pH.

>  <s_lp_Force_Field>  (69) 
OPLS3e

>  <r_lp_Energy>  (69) 
116.944

>  <b_lp_Chiralities_Consistent>  (69) 
1

>  <s_lp_Variant>  (69) 
22:0-1

>  <s_i_glide_gridfile>  (69) 
pfpi4k_grid

>  <i_i_glide_lignum>  (69) 
27

>  <i_i_glide_rotatable_bonds>  (69) 
1

>  <r_i_docking_score>  (69) 
-2.73138

>  <r_i_glide_ligand_efficiency>  (69) 
-0.130066

>  <r_i_glide_ligand_efficiency_sa>  (69) 
-0.358841

>  <r_i_glide_ligand_efficiency_ln>  (69) 
-0.675328

>  <r_i_glide_gscore>  (69) 
-2.73138

>  <r_i_glide_lipo>  (69) 
-0.0950221

>  <r_i_glide_hbond>  (69) 
0

>  <r_i_glide_metal>  (69) 
-0

>  <r_i_glide_rewards>  (69) 
-1.43582

>  <r_i_glide_evdw>  (69) 
-17.9606

>  <r_i_glide_ecoul>  (69) 
-2.02961

>  <r_i_glide_erotb>  (69) 
0.21739

>  <r_i_glide_esite>  (69) 
-0.215453

>  <r_i_glide_emodel>  (69) 
-24.3037

>  <r_i_glide_energy>  (69) 
-19.9902

>  <r_i_glide_einternal>  (69) 
0.000113093

>  <r_i_glide_intrahb_reward>  (69) 
-0

>  <i_i_glide_confnum>  (69) 
1

>  <i_i_glide_posenum>  (69) 
30

>  <r_i_glide_eff_state_penalty>  (69) 
0

>  <ligand_id>  (69) 
22

>  <original_smiles>  (69) 
C=CC1OC23CCCCC2C12C(C)CCC1C2CCN1O3

>  <smiles>  (69) 
[H]C([H])=C([H])C1([H])OC23ON4C([H])([H])C([H])([H])C5([H])C4([H])C([H])([H])C([H])([H])C([H])(C([H])([H])[H])C15C2([H])C([H])([H])C([H])([H])C([H])([H])C3([H])[H]

$$$$
22:1:0
     RDKit          3D

 49 53  0  0  1  0  0  0  0  0999 V2000
    2.3058   -2.9845   -3.0169 C   0  0  0  0  0  0  0  0  0  0  0  0
    2.7289   -2.6900   -1.7768 C   0  0  0  0  0  0  0  0  0  0  0  0
    3.1127   -3.7082   -0.7093 C   0  0  2  0  0  0  0  0  0  0  0  0
    2.4617   -3.4700    0.5722 O   0  0  0  0  0  0  0  0  0  0  0  0
    3.3109   -2.7428    1.4898 C   0  0  2  0  0  0  0  0  0  0  0  0
    2.6164   -1.4313    1.9031 C   0  0  0  0  0  0  0  0  0  0  0  0
    3.5820   -0.4810    2.6422 C   0  0  0  0  0  0  0  0  0  0  0  0
    4.9066   -0.2933    1.8841 C   0  0  0  0  0  0  0  0  0  0  0  0
    5.5304   -1.6238    1.4452 C   0  0  0  0  0  0  0  0  0  0  0  0
    4.4780   -2.4323    0.6401 C   0  0  1  0  0  0  0  0  0  0  0  0
    4.5657   -3.7444   -0.2118 C   0  0  2  0  0  0  0  0  0  0  0  0
    5.8269   -3.7162   -1.0943 C   0  0  1  0  0  0  0  0  0  0  0  0
    5.9643   -2.5668   -2.1006 C   0  0  0  0  0  0  0  0  0  0  0  0
    7.0766   -3.8005   -0.1382 C   0  0  0  0  0  0  0  0  0  0  0  0
    6.8549   -4.3582    1.3191 C   0  0  0  0  0  0  0  0  0  0  0  0
    5.4928   -5.0380    1.6037 C   0  0  2  0  0  0  0  0  0  0  0  0
    4.6500   -5.1970    0.4253 C   0  0  1  0  0  0  0  0  0  0  0  0
    3.4499   -6.0046    1.0396 C   0  0  0  0  0  0  0  0  0  0  0  0
    3.5099   -5.7323    2.5399 C   0  0  0  0  0  0  0  0  0  0  0  0
    4.5027   -4.6779    2.6769 N   0  0  2  0  0  0  0  0  0  0  0  0
    3.8022   -3.3600    2.7223 O   0  0  0  0  0  0  0  0  0  0  0  0
    2.2273   -3.9997   -3.3715 H   0  0  0  0  0  0  0  0  0  0  0  0
    2.0235   -2.1936   -3.6933 H   0  0  0  0  0  0  0  0  0  0  0  0
    2.7579   -1.6457   -1.5127 H   0  0  0  0  0  0  0  0  0  0  0  0
    2.7873   -4.6540   -1.1143 H   0  0  0  0  0  0  0  0  0  0  0  0
    2.2416   -0.9163    1.0143 H   0  0  0  0  0  0  0  0  0  0  0  0
    1.7448   -1.6331    2.5299 H   0  0  0  0  0  0  0  0  0  0  0  0
    3.1054    0.4923    2.7782 H   0  0  0  0  0  0  0  0  0  0  0  0
    3.7843   -0.8650    3.6444 H   0  0  0  0  0  0  0  0  0  0  0  0
    4.7410    0.3428    1.0107 H   0  0  0  0  0  0  0  0  0  0  0  0
    5.6139    0.2291    2.5308 H   0  0  0  0  0  0  0  0  0  0  0  0
    6.4177   -1.3916    0.8605 H   0  0  0  0  0  0  0  0  0  0  0  0
    5.8236   -2.1066    2.3746 H   0  0  0  0  0  0  0  0  0  0  0  0
    4.2068   -1.6569   -0.0669 H   0  0  0  0  0  0  0  0  0  0  0  0
    5.7922   -4.5993   -1.7327 H   0  0  0  0  0  0  0  0  0  0  0  0
    5.9767   -1.5827   -1.6397 H   0  0  0  0  0  0  0  0  0  0  0  0
    5.1790   -2.5954   -2.8513 H   0  0  0  0  0  0  0  0  0  0  0  0
    6.9007   -2.6894   -2.6463 H   0  0  0  0  0  0  0  0  0  0  0  0
    7.8318   -4.4237   -0.6117 H   0  0  0  0  0  0  0  0  0  0  0  0
    7.6058   -2.8459   -0.1070 H   0  0  0  0  0  0  0  0  0  0  0  0
    7.6233   -5.1210    1.4629 H   0  0  0  0  0  0  0  0  0  0  0  0
    7.1113   -3.6280    2.0685 H   0  0  0  0  0  0  0  0  0  0  0  0
    5.8082   -6.0441    1.8930 H   0  0  0  0  0  0  0  0  0  0  0  0
    5.1221   -5.8966   -0.2676 H   0  0  0  0  0  0  0  0  0  0  0  0
    2.4588   -5.8213    0.6316 H   0  0  0  0  0  0  0  0  0  0  0  0
    3.6215   -7.0713    0.8777 H   0  0  0  0  0  0  0  0  0  0  0  0
    2.5363   -5.4918    2.9728 H   0  0  0  0  0  0  0  0  0  0  0  0
    3.8585   -6.6354    3.0479 H   0  0  0  0  0  0  0  0  0  0  0  0
    4.9694   -4.8594    3.5442 H   0  0  0  0  0  0  0  0  0  0  0  0
  1  2  2  0
  1 22  1  0
  1 23  1  0
  2  3  1  0
  2 24  1  0
 11  3  1  6
  3  4  1  0
  3 25  1  6
  5  4  1  6
  5 10  1  0
  5 21  1  0
  5  6  1  0
  6  7  1  0
  6 26  1  0
  6 27  1  0
  7  8  1  0
  7 28  1  0
  7 29  1  0
  8  9  1  0
  8 30  1  0
  8 31  1  0
  9 10  1  0
  9 32  1  0
  9 33  1  0
 10 11  1  0
 10 34  1  6
 11 17  1  0
 11 12  1  0
 12 13  1  0
 12 14  1  0
 12 35  1  6
 13 36  1  0
 13 37  1  0
 13 38  1  0
 14 15  1  0
 14 39  1  0
 14 40  1  0
 15 16  1  0
 15 41  1  0
 15 42  1  0
 16 20  1  0
 16 17  1  0
 16 43  1  1
 17 18  1  0
 17 44  1  6
 18 19  1  0
 18 45  1  0
 18 46  1  0
 19 20  1  0
 19 47  1  0
 19 48  1  0
 20 21  1  0
 20 49  1  1
M  CHG  1  20   1
M  END
>  <i_m_ct_stereo_status>  (70) 
1

>  <s_m_source_file>  (70) 
/var/tmp/pbs.5076255.sched01/tmp25ygy55i/01wbi4d2b.sdf

>  <i_m_source_file_index>  (70) 
28

>  <i_lp_mmshare_version>  (70) 
48012

>  <i_f3d_flags>  (70) 
0

>  <s_epik_input>  (70) 
W0NIMl0xW0NIMl1bQ0gyXVtDSDJdW0NASF0oW0NAQF0xMjMpW0NAXTQoW0NAQEhdKE8yKVtDSF09W0NIMl0pW0NASF01W0NASF0oTihPMylbQ0gyXVtDSDJdNSlbQ0gyXVtDSDJdW0NAQEhdNFtDSDNd

>  <s_epik_cmdline>  (70) 
J2VwaWtfcHl0aG9uJywgJy1waHQnLCAnMi4wJywgJy1waCcsICc3LjAnLCAnLXRuJywgJzgnLCAnLW1hJywgJzIwMCcsICctaW1hZScsICc8aW5maWxlLm1hZT4nLCAnLW9tYWUnLCAnPG91dGZpbGUubWFlPic=

>  <r_epik_Ionization_Penalty>  (70) 
2.41338

>  <r_epik_Ionization_Penalty_Charging>  (70) 
2.41338

>  <r_epik_Ionization_Penalty_Neutral>  (70) 
2.89428e-15

>  <r_epik_State_Penalty>  (70) 
2.57218

>  <r_epik_Charging_Adjusted_Penalty>  (70) 
4.98556

>  <i_epik_Tot_Q>  (70) 
1

>  <i_epik_Tot_abs_Q>  (70) 
1

>  <s_epik_Chemistry_Notes>  (70) 
This compound has a N-S or N-O group and may undergo hydrolysis at high or low pH.

>  <s_lp_Force_Field>  (70) 
OPLS3e

>  <r_lp_Energy>  (70) 
119.852

>  <b_lp_Chiralities_Consistent>  (70) 
1

>  <s_lp_Variant>  (70) 
22:0-2

>  <s_i_glide_gridfile>  (70) 
pfpi4k_grid

>  <i_i_glide_lignum>  (70) 
28

>  <i_i_glide_rotatable_bonds>  (70) 
1

>  <r_i_docking_score>  (70) 
-3.35014

>  <r_i_glide_ligand_efficiency>  (70) 
-0.159531

>  <r_i_glide_ligand_efficiency_sa>  (70) 
-0.440133

>  <r_i_glide_ligand_efficiency_ln>  (70) 
-0.828316

>  <r_i_glide_gscore>  (70) 
-3.35014

>  <r_i_glide_lipo>  (70) 
-0.872569

>  <r_i_glide_hbond>  (70) 
0

>  <r_i_glide_metal>  (70) 
-0

>  <r_i_glide_rewards>  (70) 
-1.42895

>  <r_i_glide_evdw>  (70) 
-18.844

>  <r_i_glide_ecoul>  (70) 
-2.10816

>  <r_i_glide_erotb>  (70) 
0.216076

>  <r_i_glide_esite>  (70) 
-0.0062716

>  <r_i_glide_emodel>  (70) 
-26.5492

>  <r_i_glide_energy>  (70) 
-20.9522

>  <r_i_glide_einternal>  (70) 
0.0277801

>  <r_i_glide_intrahb_reward>  (70) 
-0

>  <i_i_glide_confnum>  (70) 
1

>  <i_i_glide_posenum>  (70) 
19

>  <r_i_glide_eff_state_penalty>  (70) 
0

>  <ligand_id>  (70) 
22

>  <original_smiles>  (70) 
C=CC1OC23CCCCC2C12C(C)CCC1C2CCN1O3

>  <smiles>  (70) 
[H]C([H])=C([H])C1([H])OC23O[N+]4([H])C([H])([H])C([H])([H])C5([H])C1(C([H])(C([H])([H])[H])C([H])([H])C([H])([H])C54[H])C2([H])C([H])([H])C([H])([H])C([H])([H])C3([H])[H]

$$$$
22:1:1
     RDKit          3D

 49 53  0  0  1  0  0  0  0  0999 V2000
    1.8479   -0.5271    2.4598 C   0  0  0  0  0  0  0  0  0  0  0  0
    2.5764   -1.5893    2.0778 C   0  0  0  0  0  0  0  0  0  0  0  0
    3.1177   -1.7955    0.6629 C   0  0  2  0  0  0  0  0  0  0  0  0
    2.6708   -3.0573    0.0888 O   0  0  0  0  0  0  0  0  0  0  0  0
    3.6643   -4.0942    0.2535 C   0  0  2  0  0  0  0  0  0  0  0  0
    3.0533   -5.2682    1.0344 C   0  0  0  0  0  0  0  0  0  0  0  0
    4.1314   -6.2861    1.4675 C   0  0  0  0  0  0  0  0  0  0  0  0
    5.3386   -5.6088    2.1472 C   0  0  0  0  0  0  0  0  0  0  0  0
    5.8723   -4.4114    1.3368 C   0  0  0  0  0  0  0  0  0  0  0  0
    4.7025   -3.4281    1.0596 C   0  0  1  0  0  0  0  0  0  0  0  0
    4.6387   -1.9826    0.4497 C   0  0  2  0  0  0  0  0  0  0  0  0
    5.7600   -1.1031    1.0397 C   0  0  1  0  0  0  0  0  0  0  0  0
    5.7642   -0.9334    2.5720 C   0  0  0  0  0  0  0  0  0  0  0  0
    7.1256   -1.6679    0.4807 C   0  0  0  0  0  0  0  0  0  0  0  0
    7.1157   -2.6175   -0.7816 C   0  0  0  0  0  0  0  0  0  0  0  0
    5.8064   -2.6121   -1.5864 C   0  0  2  0  0  0  0  0  0  0  0  0
    4.7898   -1.6769   -1.1046 C   0  0  1  0  0  0  0  0  0  0  0  0
    3.6792   -1.8720   -2.1902 C   0  0  0  0  0  0  0  0  0  0  0  0
    3.9467   -3.2413   -2.7951 C   0  0  0  0  0  0  0  0  0  0  0  0
    4.9813   -3.8263   -1.9342 N   0  0  2  0  0  0  0  0  0  0  0  0
    4.3726   -4.6702   -0.8857 O   0  0  0  0  0  0  0  0  0  0  0  0
    1.5969    0.2637    1.7672 H   0  0  0  0  0  0  0  0  0  0  0  0
    1.4929   -0.4413    3.4760 H   0  0  0  0  0  0  0  0  0  0  0  0
    2.7629   -2.3329    2.8367 H   0  0  0  0  0  0  0  0  0  0  0  0
    2.7483   -0.9407    0.0995 H   0  0  0  0  0  0  0  0  0  0  0  0
    2.5476   -4.8929    1.9261 H   0  0  0  0  0  0  0  0  0  0  0  0
    2.2920   -5.7773    0.4387 H   0  0  0  0  0  0  0  0  0  0  0  0
    3.6924   -7.0109    2.1555 H   0  0  0  0  0  0  0  0  0  0  0  0
    4.4681   -6.8574    0.5995 H   0  0  0  0  0  0  0  0  0  0  0  0
    5.0532   -5.2763    3.1452 H   0  0  0  0  0  0  0  0  0  0  0  0
    6.1296   -6.3453    2.2904 H   0  0  0  0  0  0  0  0  0  0  0  0
    6.6667   -3.9497    1.9158 H   0  0  0  0  0  0  0  0  0  0  0  0
    6.2888   -4.8637    0.4414 H   0  0  0  0  0  0  0  0  0  0  0  0
    4.3511   -3.3319    2.0764 H   0  0  0  0  0  0  0  0  0  0  0  0
    5.6269   -0.0725    0.6721 H   0  0  0  0  0  0  0  0  0  0  0  0
    5.8432   -1.8723    3.1207 H   0  0  0  0  0  0  0  0  0  0  0  0
    4.8717   -0.4150    2.9185 H   0  0  0  0  0  0  0  0  0  0  0  0
    6.6024   -0.3094    2.8748 H   0  0  0  0  0  0  0  0  0  0  0  0
    7.7601   -0.8088    0.2912 H   0  0  0  0  0  0  0  0  0  0  0  0
    7.6652   -2.1904    1.2542 H   0  0  0  0  0  0  0  0  0  0  0  0
    7.9030   -2.2446   -1.4410 H   0  0  0  0  0  0  0  0  0  0  0  0
    7.5081   -3.5994   -0.5572 H   0  0  0  0  0  0  0  0  0  0  0  0
    6.1329   -2.2503   -2.5573 H   0  0  0  0  0  0  0  0  0  0  0  0
    5.1424   -0.6525   -1.2595 H   0  0  0  0  0  0  0  0  0  0  0  0
    2.6372   -1.7786   -1.8807 H   0  0  0  0  0  0  0  0  0  0  0  0
    3.7989   -1.1166   -2.9702 H   0  0  0  0  0  0  0  0  0  0  0  0
    3.0612   -3.8567   -2.9028 H   0  0  0  0  0  0  0  0  0  0  0  0
    4.3518   -3.1074   -3.7957 H   0  0  0  0  0  0  0  0  0  0  0  0
    5.5391   -4.3577   -2.5493 H   0  0  0  0  0  0  0  0  0  0  0  0
  1  2  2  0
  1 22  1  0
  1 23  1  0
  2  3  1  0
  2 24  1  0
 11  3  1  1
  3  4  1  0
  3 25  1  6
  5  4  1  6
  5 10  1  0
  5 21  1  0
  5  6  1  0
  6  7  1  0
  6 26  1  0
  6 27  1  0
  7  8  1  0
  7 28  1  0
  7 29  1  0
  8  9  1  0
  8 30  1  0
  8 31  1  0
  9 10  1  0
  9 32  1  0
  9 33  1  0
 10 11  1  0
 10 34  1  1
 11 17  1  0
 11 12  1  0
 12 13  1  0
 12 14  1  0
 12 35  1  6
 13 36  1  0
 13 37  1  0
 13 38  1  0
 14 15  1  0
 14 39  1  0
 14 40  1  0
 15 16  1  0
 15 41  1  0
 15 42  1  0
 16 20  1  0
 16 17  1  0
 16 43  1  6
 17 18  1  0
 17 44  1  1
 18 19  1  0
 18 45  1  0
 18 46  1  0
 19 20  1  0
 19 47  1  0
 19 48  1  0
 20 21  1  0
 20 49  1  6
M  CHG  1  20   1
M  END
>  <i_m_ct_stereo_status>  (71) 
1

>  <s_m_source_file>  (71) 
/var/tmp/pbs.5076255.sched01/tmp25ygy55i/01wbi4d2b.sdf

>  <i_m_source_file_index>  (71) 
28

>  <i_lp_mmshare_version>  (71) 
48012

>  <i_f3d_flags>  (71) 
0

>  <s_epik_input>  (71) 
W0NIMl0xW0NIMl1bQ0gyXVtDSDJdW0NASF0oW0NAQF0xMjMpW0NAXTQoW0NAQEhdKE8yKVtDSF09W0NIMl0pW0NASF01W0NASF0oTihPMylbQ0gyXVtDSDJdNSlbQ0gyXVtDSDJdW0NAQEhdNFtDSDNd

>  <s_epik_cmdline>  (71) 
J2VwaWtfcHl0aG9uJywgJy1waHQnLCAnMi4wJywgJy1waCcsICc3LjAnLCAnLXRuJywgJzgnLCAnLW1hJywgJzIwMCcsICctaW1hZScsICc8aW5maWxlLm1hZT4nLCAnLW9tYWUnLCAnPG91dGZpbGUubWFlPic=

>  <r_epik_Ionization_Penalty>  (71) 
2.41338

>  <r_epik_Ionization_Penalty_Charging>  (71) 
2.41338

>  <r_epik_Ionization_Penalty_Neutral>  (71) 
2.89428e-15

>  <r_epik_State_Penalty>  (71) 
2.57218

>  <r_epik_Charging_Adjusted_Penalty>  (71) 
4.98556

>  <i_epik_Tot_Q>  (71) 
1

>  <i_epik_Tot_abs_Q>  (71) 
1

>  <s_epik_Chemistry_Notes>  (71) 
This compound has a N-S or N-O group and may undergo hydrolysis at high or low pH.

>  <s_lp_Force_Field>  (71) 
OPLS3e

>  <r_lp_Energy>  (71) 
119.852

>  <b_lp_Chiralities_Consistent>  (71) 
1

>  <s_lp_Variant>  (71) 
22:0-2

>  <s_i_glide_gridfile>  (71) 
pfpi4k_grid

>  <i_i_glide_lignum>  (71) 
28

>  <i_i_glide_rotatable_bonds>  (71) 
1

>  <r_i_docking_score>  (71) 
-2.86003

>  <r_i_glide_ligand_efficiency>  (71) 
-0.136192

>  <r_i_glide_ligand_efficiency_sa>  (71) 
-0.375743

>  <r_i_glide_ligand_efficiency_ln>  (71) 
-0.707137

>  <r_i_glide_gscore>  (71) 
-2.86003

>  <r_i_glide_lipo>  (71) 
-0.391684

>  <r_i_glide_hbond>  (71) 
0

>  <r_i_glide_metal>  (71) 
-0

>  <r_i_glide_rewards>  (71) 
-1.42895

>  <r_i_glide_evdw>  (71) 
-24.0773

>  <r_i_glide_ecoul>  (71) 
-0.281137

>  <r_i_glide_erotb>  (71) 
0.216076

>  <r_i_glide_esite>  (71) 
-0.00943499

>  <r_i_glide_emodel>  (71) 
-29.0416

>  <r_i_glide_energy>  (71) 
-24.3584

>  <r_i_glide_einternal>  (71) 
0.0406721

>  <r_i_glide_intrahb_reward>  (71) 
-0

>  <i_i_glide_confnum>  (71) 
1

>  <i_i_glide_posenum>  (71) 
36

>  <r_i_glide_eff_state_penalty>  (71) 
0

>  <ligand_id>  (71) 
22

>  <original_smiles>  (71) 
C=CC1OC23CCCCC2C12C(C)CCC1C2CCN1O3

>  <smiles>  (71) 
[H]C([H])=C([H])C1([H])OC23O[N+]4([H])C([H])([H])C([H])([H])C5([H])C1(C([H])(C([H])([H])[H])C([H])([H])C([H])([H])C54[H])C2([H])C([H])([H])C([H])([H])C([H])([H])C3([H])[H]

$$$$
22:1:2
     RDKit          3D

 49 53  0  0  1  0  0  0  0  0999 V2000
   -2.5801    2.3342    7.2083 C   0  0  0  0  0  0  0  0  0  0  0  0
   -1.3429    1.9659    6.8541 C   0  0  0  0  0  0  0  0  0  0  0  0
   -0.8632    1.7925    5.4112 C   0  0  2  0  0  0  0  0  0  0  0  0
   -0.1887    0.5144    5.2105 O   0  0  0  0  0  0  0  0  0  0  0  0
    1.2590    0.6454    5.2919 C   0  0  2  0  0  0  0  0  0  0  0  0
    1.7818   -0.2617    6.4175 C   0  0  0  0  0  0  0  0  0  0  0  0
    3.2634    0.0366    6.7527 C   0  0  0  0  0  0  0  0  0  0  0  0
    3.5268    1.5413    6.9743 C   0  0  0  0  0  0  0  0  0  0  0  0
    2.9290    2.4071    5.8473 C   0  0  0  0  0  0  0  0  0  0  0  0
    1.4203    2.0659    5.6891 C   0  0  1  0  0  0  0  0  0  0  0  0
    0.2523    2.7243    4.8719 C   0  0  2  0  0  0  0  0  0  0  0  0
    0.3182    4.2673    5.0203 C   0  0  1  0  0  0  0  0  0  0  0  0
    0.2067    4.8662    6.4298 C   0  0  0  0  0  0  0  0  0  0  0  0
    1.6040    4.7739    4.2626 C   0  0  0  0  0  0  0  0  0  0  0  0
    2.3038    3.7913    3.2317 C   0  0  0  0  0  0  0  0  0  0  0  0
    1.4593    2.5769    2.7719 C   0  0  2  0  0  0  0  0  0  0  0  0
    0.0916    2.5475    3.3018 C   0  0  1  0  0  0  0  0  0  0  0  0
   -0.4920    1.2948    2.5708 C   0  0  0  0  0  0  0  0  0  0  0  0
    0.7154    0.4655    2.1423 C   0  0  0  0  0  0  0  0  0  0  0  0
    1.8658    1.1072    2.8324 N   0  0  2  0  0  0  0  0  0  0  0  0
    2.0935    0.3975    4.1115 O   0  0  0  0  0  0  0  0  0  0  0  0
   -3.3415    2.5483    6.4714 H   0  0  0  0  0  0  0  0  0  0  0  0
   -2.8523    2.4334    8.2514 H   0  0  0  0  0  0  0  0  0  0  0  0
   -0.6398    1.7698    7.6530 H   0  0  0  0  0  0  0  0  0  0  0  0
   -1.7705    1.8637    4.8074 H   0  0  0  0  0  0  0  0  0  0  0  0
    1.1846   -0.1209    7.3212 H   0  0  0  0  0  0  0  0  0  0  0  0
    1.6751   -1.3134    6.1437 H   0  0  0  0  0  0  0  0  0  0  0  0
    3.5562   -0.5162    7.6465 H   0  0  0  0  0  0  0  0  0  0  0  0
    3.9007   -0.3278    5.9461 H   0  0  0  0  0  0  0  0  0  0  0  0
    3.1069    1.8460    7.9348 H   0  0  0  0  0  0  0  0  0  0  0  0
    4.6020    1.7143    7.0476 H   0  0  0  0  0  0  0  0  0  0  0  0
    3.0873    3.4494    6.1159 H   0  0  0  0  0  0  0  0  0  0  0  0
    3.5166    2.1785    4.9654 H   0  0  0  0  0  0  0  0  0  0  0  0
    1.1344    2.1884    6.7275 H   0  0  0  0  0  0  0  0  0  0  0  0
   -0.5499    4.6880    4.5013 H   0  0  0  0  0  0  0  0  0  0  0  0
    1.0017    4.5332    7.1023 H   0  0  0  0  0  0  0  0  0  0  0  0
   -0.7525    4.6344    6.8926 H   0  0  0  0  0  0  0  0  0  0  0  0
    0.2685    5.9526    6.3761 H   0  0  0  0  0  0  0  0  0  0  0  0
    1.3346    5.6864    3.7358 H   0  0  0  0  0  0  0  0  0  0  0  0
    2.3509    5.1101    4.9828 H   0  0  0  0  0  0  0  0  0  0  0  0
    2.4442    4.4054    2.3351 H   0  0  0  0  0  0  0  0  0  0  0  0
    3.3306    3.5570    3.4837 H   0  0  0  0  0  0  0  0  0  0  0  0
    1.4090    2.7361    1.6979 H   0  0  0  0  0  0  0  0  0  0  0  0
   -0.4664    3.3919    2.8821 H   0  0  0  0  0  0  0  0  0  0  0  0
   -1.2241    0.6894    3.1076 H   0  0  0  0  0  0  0  0  0  0  0  0
   -1.0158    1.6184    1.6702 H   0  0  0  0  0  0  0  0  0  0  0  0
    0.6273   -0.5915    2.3716 H   0  0  0  0  0  0  0  0  0  0  0  0
    0.8607    0.5617    1.0694 H   0  0  0  0  0  0  0  0  0  0  0  0
    2.6315    1.0209    2.2172 H   0  0  0  0  0  0  0  0  0  0  0  0
  1  2  2  0
  1 22  1  0
  1 23  1  0
  2  3  1  0
  2 24  1  0
 11  3  1  1
  3  4  1  0
  3 25  1  6
  5  4  1  6
  5 10  1  0
  5 21  1  0
  5  6  1  0
  6  7  1  0
  6 26  1  0
  6 27  1  0
  7  8  1  0
  7 28  1  0
  7 29  1  0
  8  9  1  0
  8 30  1  0
  8 31  1  0
  9 10  1  0
  9 32  1  0
  9 33  1  0
 10 11  1  0
 10 34  1  1
 11 17  1  0
 11 12  1  0
 12 13  1  0
 12 14  1  0
 12 35  1  6
 13 36  1  0
 13 37  1  0
 13 38  1  0
 14 15  1  0
 14 39  1  0
 14 40  1  0
 15 16  1  0
 15 41  1  0
 15 42  1  0
 16 20  1  0
 16 17  1  0
 16 43  1  6
 17 18  1  0
 17 44  1  6
 18 19  1  0
 18 45  1  0
 18 46  1  0
 19 20  1  0
 19 47  1  0
 19 48  1  0
 20 21  1  0
 20 49  1  6
M  CHG  1  20   1
M  END
>  <i_m_ct_stereo_status>  (72) 
1

>  <s_m_source_file>  (72) 
/var/tmp/pbs.5076255.sched01/tmp25ygy55i/01wbi4d2b.sdf

>  <i_m_source_file_index>  (72) 
28

>  <i_lp_mmshare_version>  (72) 
48012

>  <i_f3d_flags>  (72) 
0

>  <s_epik_input>  (72) 
W0NIMl0xW0NIMl1bQ0gyXVtDSDJdW0NASF0oW0NAQF0xMjMpW0NAXTQoW0NAQEhdKE8yKVtDSF09W0NIMl0pW0NASF01W0NASF0oTihPMylbQ0gyXVtDSDJdNSlbQ0gyXVtDSDJdW0NAQEhdNFtDSDNd

>  <s_epik_cmdline>  (72) 
J2VwaWtfcHl0aG9uJywgJy1waHQnLCAnMi4wJywgJy1waCcsICc3LjAnLCAnLXRuJywgJzgnLCAnLW1hJywgJzIwMCcsICctaW1hZScsICc8aW5maWxlLm1hZT4nLCAnLW9tYWUnLCAnPG91dGZpbGUubWFlPic=

>  <r_epik_Ionization_Penalty>  (72) 
2.41338

>  <r_epik_Ionization_Penalty_Charging>  (72) 
2.41338

>  <r_epik_Ionization_Penalty_Neutral>  (72) 
2.89428e-15

>  <r_epik_State_Penalty>  (72) 
2.57218

>  <r_epik_Charging_Adjusted_Penalty>  (72) 
4.98556

>  <i_epik_Tot_Q>  (72) 
1

>  <i_epik_Tot_abs_Q>  (72) 
1

>  <s_epik_Chemistry_Notes>  (72) 
This compound has a N-S or N-O group and may undergo hydrolysis at high or low pH.

>  <s_lp_Force_Field>  (72) 
OPLS3e

>  <r_lp_Energy>  (72) 
119.852

>  <b_lp_Chiralities_Consistent>  (72) 
1

>  <s_lp_Variant>  (72) 
22:0-2

>  <s_i_glide_gridfile>  (72) 
pfpi4k_grid

>  <i_i_glide_lignum>  (72) 
28

>  <i_i_glide_rotatable_bonds>  (72) 
1

>  <r_i_docking_score>  (72) 
-2.84738

>  <r_i_glide_ligand_efficiency>  (72) 
-0.13559

>  <r_i_glide_ligand_efficiency_sa>  (72) 
-0.374081

>  <r_i_glide_ligand_efficiency_ln>  (72) 
-0.704009

>  <r_i_glide_gscore>  (72) 
-2.84738

>  <r_i_glide_lipo>  (72) 
-0.0621798

>  <r_i_glide_hbond>  (72) 
0

>  <r_i_glide_metal>  (72) 
-0

>  <r_i_glide_rewards>  (72) 
-1.42895

>  <r_i_glide_evdw>  (72) 
-18.5933

>  <r_i_glide_ecoul>  (72) 
-4.23152

>  <r_i_glide_erotb>  (72) 
0.216076

>  <r_i_glide_esite>  (72) 
-0.00793466

>  <r_i_glide_emodel>  (72) 
-27.6524

>  <r_i_glide_energy>  (72) 
-22.8248

>  <r_i_glide_einternal>  (72) 
0.0104222

>  <r_i_glide_intrahb_reward>  (72) 
-0

>  <i_i_glide_confnum>  (72) 
1

>  <i_i_glide_posenum>  (72) 
13

>  <r_i_glide_eff_state_penalty>  (72) 
0

>  <ligand_id>  (72) 
22

>  <original_smiles>  (72) 
C=CC1OC23CCCCC2C12C(C)CCC1C2CCN1O3

>  <smiles>  (72) 
[H]C([H])=C([H])C1([H])OC23O[N+]4([H])C([H])([H])C([H])([H])C5([H])C1(C([H])(C([H])([H])[H])C([H])([H])C([H])([H])C54[H])C2([H])C([H])([H])C([H])([H])C([H])([H])C3([H])[H]

$$$$
24:0:0
     RDKit          3D

 39 42  0  0  1  0  0  0  0  0999 V2000
    3.5242    0.0841   -4.8210 C   0  0  0  0  0  0  0  0  0  0  0  0
    3.5956   -1.1479   -4.1311 O   0  0  0  0  0  0  0  0  0  0  0  0
    4.0403   -1.2084   -2.8628 C   0  0  0  0  0  0  0  0  0  0  0  0
    4.6131   -0.2637   -2.3373 O   0  0  0  0  0  0  0  0  0  0  0  0
    3.7545   -2.5583   -2.1837 C   0  0  1  0  0  0  0  0  0  0  0  0
    2.3314   -3.0429   -2.5199 C   0  0  0  0  0  0  0  0  0  0  0  0
    2.2181   -3.4705   -3.8598 O   0  0  0  0  0  0  0  0  0  0  0  0
    4.8145   -3.6813   -2.3405 C   0  0  1  0  0  0  0  0  0  0  0  0
    5.5226   -3.7766   -3.5352 O   0  0  0  0  0  0  0  0  0  0  0  0
    5.5189   -3.2417   -1.0819 C   0  0  2  0  0  0  0  0  0  0  0  0
    6.6713   -2.2865   -1.2033 C   0  0  0  0  0  0  0  0  0  0  0  0
    7.1822   -2.1397    0.0125 C   0  0  0  0  0  0  0  0  0  0  0  0
    6.3672   -2.9891    0.9635 C   0  0  2  0  0  0  0  0  0  0  0  0
    5.8255   -4.0103    0.0832 O   0  0  0  0  0  0  0  0  0  0  0  0
    5.0969   -2.2263    1.4584 C   0  0  1  0  0  0  0  0  0  0  0  0
    5.2303   -1.0687    2.4360 C   0  0  0  0  0  0  0  0  0  0  0  0
    3.9224   -0.2717    2.1761 C   0  0  0  0  0  0  0  0  0  0  0  0
    3.2658   -0.9403    0.9546 C   0  0  0  0  0  0  0  0  0  0  0  0
    4.3730   -1.6230    0.3457 N   0  0  0  0  0  0  0  0  0  0  0  0
    4.1717   -2.6377   -0.6828 C   0  0  1  0  0  0  0  0  0  0  0  0
    3.0750   -0.0800   -5.7979 H   0  0  0  0  0  0  0  0  0  0  0  0
    4.5158    0.5076   -4.9682 H   0  0  0  0  0  0  0  0  0  0  0  0
    2.9041    0.8133   -4.2984 H   0  0  0  0  0  0  0  0  0  0  0  0
    2.0348   -3.8820   -1.8929 H   0  0  0  0  0  0  0  0  0  0  0  0
    1.6051   -2.2589   -2.3385 H   0  0  0  0  0  0  0  0  0  0  0  0
    1.3566   -3.8532   -3.9657 H   0  0  0  0  0  0  0  0  0  0  0  0
    4.3959   -4.6523   -2.1207 H   0  0  0  0  0  0  0  0  0  0  0  0
    5.9057   -4.6381   -3.5351 H   0  0  0  0  0  0  0  0  0  0  0  0
    6.9730   -1.8516   -2.1389 H   0  0  0  0  0  0  0  0  0  0  0  0
    8.0020   -1.5049    0.3009 H   0  0  0  0  0  0  0  0  0  0  0  0
    6.9886   -3.4205    1.7499 H   0  0  0  0  0  0  0  0  0  0  0  0
    4.4610   -2.9779    1.9353 H   0  0  0  0  0  0  0  0  0  0  0  0
    5.3213   -1.4124    3.4654 H   0  0  0  0  0  0  0  0  0  0  0  0
    6.1051   -0.4635    2.1912 H   0  0  0  0  0  0  0  0  0  0  0  0
    3.2592   -0.2723    3.0385 H   0  0  0  0  0  0  0  0  0  0  0  0
    4.1612    0.7631    1.9420 H   0  0  0  0  0  0  0  0  0  0  0  0
    2.4923   -1.6401    1.2687 H   0  0  0  0  0  0  0  0  0  0  0  0
    2.8202   -0.2315    0.2633 H   0  0  0  0  0  0  0  0  0  0  0  0
    3.5792   -3.4363   -0.2495 H   0  0  0  0  0  0  0  0  0  0  0  0
  1  2  1  0
  1 21  1  0
  1 22  1  0
  1 23  1  0
  2  3  1  0
  3  4  2  0
  3  5  1  0
  5 20  1  0
  5  6  1  1
  5  8  1  0
  6  7  1  0
  6 24  1  0
  6 25  1  0
  7 26  1  0
  8  9  1  0
  8 10  1  0
  8 27  1  1
  9 28  1  0
 10 14  1  0
 10 20  1  0
 10 11  1  6
 11 12  2  0
 11 29  1  0
 12 13  1  0
 12 30  1  0
 13 14  1  0
 13 15  1  0
 13 31  1  1
 15 19  1  0
 15 16  1  0
 15 32  1  1
 16 17  1  0
 16 33  1  0
 16 34  1  0
 17 18  1  0
 17 35  1  0
 17 36  1  0
 18 19  1  0
 18 37  1  0
 18 38  1  0
 19 20  1  0
 20 39  1  1
M  END
>  <i_m_ct_stereo_status>  (73) 
1

>  <s_m_source_file>  (73) 
/var/tmp/pbs.5076255.sched01/tmp25ygy55i/01wbi4d2b.sdf

>  <i_m_source_file_index>  (73) 
30

>  <i_lp_mmshare_version>  (73) 
48012

>  <i_f3d_flags>  (73) 
0

>  <s_epik_input>  (73) 
W0NIM11PQyg9TylbQ0BAXShbQ0gyXVtPSF0pKFtDQEhdMVtPSF0pW0NAQEhdKFtDQEBdMTIzKU40W0NAQEhdKFtDQEBIXShPMylbQ0hdPVtDSF0yKVtDSDJdW0NIMl1bQ0gyXTQ=

>  <s_epik_cmdline>  (73) 
J2VwaWtfcHl0aG9uJywgJy1waHQnLCAnMi4wJywgJy1waCcsICc3LjAnLCAnLXRuJywgJzgnLCAnLW1hJywgJzIwMCcsICctaW1hZScsICc8aW5maWxlLm1hZT4nLCAnLW9tYWUnLCAnPG91dGZpbGUubWFlPic=

>  <r_epik_Ionization_Penalty>  (73) 
0.0340439

>  <r_epik_Ionization_Penalty_Charging>  (73) 
0

>  <r_epik_Ionization_Penalty_Neutral>  (73) 
0.0340439

>  <r_epik_State_Penalty>  (73) 
0.0101993

>  <r_epik_Charging_Adjusted_Penalty>  (73) 
0.0101993

>  <i_epik_Tot_Q>  (73) 
0

>  <i_epik_Tot_abs_Q>  (73) 
0

>  <s_epik_Chemistry_Notes>  (73) 
This compound has an ester and may undergo hydrolysis at high or low pH.

>  <s_lp_Force_Field>  (73) 
OPLS3e

>  <r_lp_Energy>  (73) 
26.6986

>  <b_lp_Chiralities_Consistent>  (73) 
1

>  <s_lp_Variant>  (73) 
24:0-1

>  <s_i_glide_gridfile>  (73) 
pfpi4k_grid

>  <i_i_glide_lignum>  (73) 
30

>  <i_i_glide_rotatable_bonds>  (73) 
5

>  <r_i_docking_score>  (73) 
-4.06833

>  <r_i_glide_ligand_efficiency>  (73) 
-0.203416

>  <r_i_glide_ligand_efficiency_sa>  (73) 
-0.552157

>  <r_i_glide_ligand_efficiency_ln>  (73) 
-1.01817

>  <r_i_glide_gscore>  (73) 
-4.06833

>  <r_i_glide_lipo>  (73) 
-0.60141

>  <r_i_glide_hbond>  (73) 
0

>  <r_i_glide_metal>  (73) 
-0

>  <r_i_glide_rewards>  (73) 
-1.49111

>  <r_i_glide_evdw>  (73) 
-27.3297

>  <r_i_glide_ecoul>  (73) 
-7.07871

>  <r_i_glide_erotb>  (73) 
0.456823

>  <r_i_glide_esite>  (73) 
-0.00434548

>  <r_i_glide_emodel>  (73) 
-40.0867

>  <r_i_glide_energy>  (73) 
-34.4084

>  <r_i_glide_einternal>  (73) 
3.21537

>  <r_i_glide_intrahb_reward>  (73) 
-0

>  <i_i_glide_confnum>  (73) 
6

>  <i_i_glide_posenum>  (73) 
13

>  <r_i_glide_eff_state_penalty>  (73) 
0

>  <ligand_id>  (73) 
24

>  <original_smiles>  (73) 
COC(=O)C1(CO)C(O)C23C=CC(O2)C2CCCN2C31

>  <smiles>  (73) 
[H]OC([H])([H])C1(C(=O)OC([H])([H])[H])C([H])(O[H])C23OC([H])(C([H])=C2[H])C2([H])N(C([H])([H])C([H])([H])C2([H])[H])C31[H]

$$$$
24:0:1
     RDKit          3D

 39 42  0  0  1  0  0  0  0  0999 V2000
    3.5350    0.1074   -4.7841 C   0  0  0  0  0  0  0  0  0  0  0  0
    3.5745   -1.1404   -4.1001 O   0  0  0  0  0  0  0  0  0  0  0  0
    4.0295   -1.2106   -2.8344 C   0  0  0  0  0  0  0  0  0  0  0  0
    4.6184   -0.2679   -2.3167 O   0  0  0  0  0  0  0  0  0  0  0  0
    3.7532   -2.5687   -2.1670 C   0  0  1  0  0  0  0  0  0  0  0  0
    2.3298   -3.0502   -2.5147 C   0  0  0  0  0  0  0  0  0  0  0  0
    2.2147   -3.4712   -3.8647 O   0  0  0  0  0  0  0  0  0  0  0  0
    4.8303   -3.6773   -2.3498 C   0  0  1  0  0  0  0  0  0  0  0  0
    5.5505   -3.7303   -3.5487 O   0  0  0  0  0  0  0  0  0  0  0  0
    5.5305   -3.2554   -1.0756 C   0  0  2  0  0  0  0  0  0  0  0  0
    6.6582   -2.2718   -1.1800 C   0  0  0  0  0  0  0  0  0  0  0  0
    7.1810   -2.1395    0.0336 C   0  0  0  0  0  0  0  0  0  0  0  0
    6.3709   -3.0208    0.9654 C   0  0  2  0  0  0  0  0  0  0  0  0
    5.8438   -4.0383    0.0814 O   0  0  0  0  0  0  0  0  0  0  0  0
    5.0962   -2.2682    1.4761 C   0  0  1  0  0  0  0  0  0  0  0  0
    5.2198   -1.1168    2.4650 C   0  0  0  0  0  0  0  0  0  0  0  0
    3.9147   -0.3181    2.2148 C   0  0  0  0  0  0  0  0  0  0  0  0
    3.2551   -0.9759    0.9874 C   0  0  0  0  0  0  0  0  0  0  0  0
    4.3635   -1.6661    0.3667 N   0  0  0  0  0  0  0  0  0  0  0  0
    4.1660   -2.6657   -0.6686 C   0  0  1  0  0  0  0  0  0  0  0  0
    3.0862   -0.0371   -5.7673 H   0  0  0  0  0  0  0  0  0  0  0  0
    4.5350    0.5117   -4.9319 H   0  0  0  0  0  0  0  0  0  0  0  0
    2.9298    0.8526   -4.2642 H   0  0  0  0  0  0  0  0  0  0  0  0
    2.0332   -3.8902   -1.8855 H   0  0  0  0  0  0  0  0  0  0  0  0
    1.6104   -2.2555   -2.3279 H   0  0  0  0  0  0  0  0  0  0  0  0
    1.3482   -3.8576   -3.9626 H   0  0  0  0  0  0  0  0  0  0  0  0
    4.4164   -4.6568   -2.1467 H   0  0  0  0  0  0  0  0  0  0  0  0
    6.3298   -3.2053   -3.4432 H   0  0  0  0  0  0  0  0  0  0  0  0
    6.9543   -1.8111   -2.1068 H   0  0  0  0  0  0  0  0  0  0  0  0
    8.0014   -1.5164    0.3337 H   0  0  0  0  0  0  0  0  0  0  0  0
    6.9865   -3.4535    1.7568 H   0  0  0  0  0  0  0  0  0  0  0  0
    4.4652   -3.0287    1.9382 H   0  0  0  0  0  0  0  0  0  0  0  0
    5.3083   -1.4714    3.4904 H   0  0  0  0  0  0  0  0  0  0  0  0
    6.0946   -0.5079    2.2327 H   0  0  0  0  0  0  0  0  0  0  0  0
    3.2553   -0.3292    3.0861 H   0  0  0  0  0  0  0  0  0  0  0  0
    4.1529    0.7233    2.0040 H   0  0  0  0  0  0  0  0  0  0  0  0
    2.4702   -1.6658    1.2984 H   0  0  0  0  0  0  0  0  0  0  0  0
    2.8108   -0.2461    0.3054 H   0  0  0  0  0  0  0  0  0  0  0  0
    3.5610   -3.4651   -0.2392 H   0  0  0  0  0  0  0  0  0  0  0  0
  1  2  1  0
  1 21  1  0
  1 22  1  0
  1 23  1  0
  2  3  1  0
  3  4  2  0
  3  5  1  0
  5 20  1  0
  5  6  1  1
  5  8  1  0
  6  7  1  0
  6 24  1  0
  6 25  1  0
  7 26  1  0
  8  9  1  0
  8 10  1  0
  8 27  1  1
  9 28  1  0
 10 14  1  0
 10 20  1  0
 10 11  1  6
 11 12  2  0
 11 29  1  0
 12 13  1  0
 12 30  1  0
 13 14  1  0
 13 15  1  0
 13 31  1  1
 15 19  1  0
 15 16  1  0
 15 32  1  1
 16 17  1  0
 16 33  1  0
 16 34  1  0
 17 18  1  0
 17 35  1  0
 17 36  1  0
 18 19  1  0
 18 37  1  0
 18 38  1  0
 19 20  1  0
 20 39  1  1
M  END
>  <i_m_ct_stereo_status>  (74) 
1

>  <s_m_source_file>  (74) 
/var/tmp/pbs.5076255.sched01/tmp25ygy55i/01wbi4d2b.sdf

>  <i_m_source_file_index>  (74) 
30

>  <i_lp_mmshare_version>  (74) 
48012

>  <i_f3d_flags>  (74) 
0

>  <s_epik_input>  (74) 
W0NIM11PQyg9TylbQ0BAXShbQ0gyXVtPSF0pKFtDQEhdMVtPSF0pW0NAQEhdKFtDQEBdMTIzKU40W0NAQEhdKFtDQEBIXShPMylbQ0hdPVtDSF0yKVtDSDJdW0NIMl1bQ0gyXTQ=

>  <s_epik_cmdline>  (74) 
J2VwaWtfcHl0aG9uJywgJy1waHQnLCAnMi4wJywgJy1waCcsICc3LjAnLCAnLXRuJywgJzgnLCAnLW1hJywgJzIwMCcsICctaW1hZScsICc8aW5maWxlLm1hZT4nLCAnLW9tYWUnLCAnPG91dGZpbGUubWFlPic=

>  <r_epik_Ionization_Penalty>  (74) 
0.0340439

>  <r_epik_Ionization_Penalty_Charging>  (74) 
0

>  <r_epik_Ionization_Penalty_Neutral>  (74) 
0.0340439

>  <r_epik_State_Penalty>  (74) 
0.0101993

>  <r_epik_Charging_Adjusted_Penalty>  (74) 
0.0101993

>  <i_epik_Tot_Q>  (74) 
0

>  <i_epik_Tot_abs_Q>  (74) 
0

>  <s_epik_Chemistry_Notes>  (74) 
This compound has an ester and may undergo hydrolysis at high or low pH.

>  <s_lp_Force_Field>  (74) 
OPLS3e

>  <r_lp_Energy>  (74) 
26.6986

>  <b_lp_Chiralities_Consistent>  (74) 
1

>  <s_lp_Variant>  (74) 
24:0-1

>  <s_i_glide_gridfile>  (74) 
pfpi4k_grid

>  <i_i_glide_lignum>  (74) 
30

>  <i_i_glide_rotatable_bonds>  (74) 
5

>  <r_i_docking_score>  (74) 
-3.95623

>  <r_i_glide_ligand_efficiency>  (74) 
-0.197811

>  <r_i_glide_ligand_efficiency_sa>  (74) 
-0.536943

>  <r_i_glide_ligand_efficiency_ln>  (74) 
-0.990113

>  <r_i_glide_gscore>  (74) 
-3.95623

>  <r_i_glide_lipo>  (74) 
-0.610946

>  <r_i_glide_hbond>  (74) 
0

>  <r_i_glide_metal>  (74) 
-0

>  <r_i_glide_rewards>  (74) 
-1.49111

>  <r_i_glide_evdw>  (74) 
-26.8979

>  <r_i_glide_ecoul>  (74) 
-6.3887

>  <r_i_glide_erotb>  (74) 
0.456823

>  <r_i_glide_esite>  (74) 
-0.00779763

>  <r_i_glide_emodel>  (74) 
-38.9446

>  <r_i_glide_energy>  (74) 
-33.2866

>  <r_i_glide_einternal>  (74) 
2.43884

>  <r_i_glide_intrahb_reward>  (74) 
-0

>  <i_i_glide_confnum>  (74) 
6

>  <i_i_glide_posenum>  (74) 
1

>  <r_i_glide_eff_state_penalty>  (74) 
0

>  <ligand_id>  (74) 
24

>  <original_smiles>  (74) 
COC(=O)C1(CO)C(O)C23C=CC(O2)C2CCCN2C31

>  <smiles>  (74) 
[H]OC([H])([H])C1(C(=O)OC([H])([H])[H])C([H])(O[H])C23OC([H])(C([H])=C2[H])C2([H])N(C([H])([H])C([H])([H])C2([H])[H])C31[H]

$$$$
24:0:2
     RDKit          3D

 39 42  0  0  1  0  0  0  0  0999 V2000
    1.4947   -3.1331    3.5830 C   0  0  0  0  0  0  0  0  0  0  0  0
    2.3393   -2.1445    3.0192 O   0  0  0  0  0  0  0  0  0  0  0  0
    2.8493   -2.3005    1.7815 C   0  0  0  0  0  0  0  0  0  0  0  0
    2.6204   -3.3154    1.1166 O   0  0  0  0  0  0  0  0  0  0  0  0
    3.6945   -1.0874    1.3462 C   0  0  1  0  0  0  0  0  0  0  0  0
    2.8534    0.2042    1.4193 C   0  0  0  0  0  0  0  0  0  0  0  0
    2.6287    0.6600    2.7438 O   0  0  0  0  0  0  0  0  0  0  0  0
    5.1315   -0.9524    1.9669 C   0  0  1  0  0  0  0  0  0  0  0  0
    5.3747   -1.3819    3.2922 O   0  0  0  0  0  0  0  0  0  0  0  0
    5.6955   -1.7858    0.8245 C   0  0  2  0  0  0  0  0  0  0  0  0
    5.8364   -3.2785    1.0134 C   0  0  0  0  0  0  0  0  0  0  0  0
    6.4848   -3.7413   -0.0424 C   0  0  0  0  0  0  0  0  0  0  0  0
    6.7435   -2.5875   -0.9765 C   0  0  2  0  0  0  0  0  0  0  0  0
    6.7649   -1.4587   -0.0677 O   0  0  0  0  0  0  0  0  0  0  0  0
    5.5057   -2.2889   -1.8930 C   0  0  1  0  0  0  0  0  0  0  0  0
    5.1476   -3.2465   -3.0227 C   0  0  0  0  0  0  0  0  0  0  0  0
    3.6459   -2.9442   -3.2489 C   0  0  0  0  0  0  0  0  0  0  0  0
    3.2441   -2.0033   -2.0971 C   0  0  0  0  0  0  0  0  0  0  0  0
    4.2756   -2.2210   -1.1217 N   0  0  0  0  0  0  0  0  0  0  0  0
    4.4772   -1.3204    0.0124 C   0  0  1  0  0  0  0  0  0  0  0  0
    1.1395   -2.7953    4.5573 H   0  0  0  0  0  0  0  0  0  0  0  0
    2.0338   -4.0707    3.7156 H   0  0  0  0  0  0  0  0  0  0  0  0
    0.6244   -3.3159    2.9536 H   0  0  0  0  0  0  0  0  0  0  0  0
    3.3936    1.0067    0.9246 H   0  0  0  0  0  0  0  0  0  0  0  0
    1.9062    0.1075    0.8906 H   0  0  0  0  0  0  0  0  0  0  0  0
    2.1106    1.4499    2.7169 H   0  0  0  0  0  0  0  0  0  0  0  0
    5.4915    0.0735    1.8763 H   0  0  0  0  0  0  0  0  0  0  0  0
    6.2490   -1.1008    3.5077 H   0  0  0  0  0  0  0  0  0  0  0  0
    5.4507   -3.8421    1.8480 H   0  0  0  0  0  0  0  0  0  0  0  0
    6.7182   -4.7684   -0.2563 H   0  0  0  0  0  0  0  0  0  0  0  0
    7.6864   -2.6828   -1.5197 H   0  0  0  0  0  0  0  0  0  0  0  0
    5.6825   -1.3061   -2.3415 H   0  0  0  0  0  0  0  0  0  0  0  0
    5.7487   -3.0876   -3.9150 H   0  0  0  0  0  0  0  0  0  0  0  0
    5.2895   -4.2791   -2.7013 H   0  0  0  0  0  0  0  0  0  0  0  0
    3.4408   -2.5044   -4.2225 H   0  0  0  0  0  0  0  0  0  0  0  0
    3.0629   -3.8532   -3.1743 H   0  0  0  0  0  0  0  0  0  0  0  0
    3.2293   -0.9666   -2.4322 H   0  0  0  0  0  0  0  0  0  0  0  0
    2.2639   -2.2576   -1.6913 H   0  0  0  0  0  0  0  0  0  0  0  0
    4.6992   -0.3273   -0.3852 H   0  0  0  0  0  0  0  0  0  0  0  0
  1  2  1  0
  1 21  1  0
  1 22  1  0
  1 23  1  0
  2  3  1  0
  3  4  2  0
  3  5  1  0
  5 20  1  0
  5  6  1  6
  5  8  1  0
  6  7  1  0
  6 24  1  0
  6 25  1  0
  7 26  1  0
  8  9  1  0
  8 10  1  0
  8 27  1  1
  9 28  1  0
 10 14  1  0
 10 20  1  0
 10 11  1  1
 11 12  2  0
 11 29  1  0
 12 13  1  0
 12 30  1  0
 13 14  1  0
 13 15  1  0
 13 31  1  6
 15 19  1  0
 15 16  1  0
 15 32  1  6
 16 17  1  0
 16 33  1  0
 16 34  1  0
 17 18  1  0
 17 35  1  0
 17 36  1  0
 18 19  1  0
 18 37  1  0
 18 38  1  0
 19 20  1  0
 20 39  1  6
M  END
>  <i_m_ct_stereo_status>  (75) 
1

>  <s_m_source_file>  (75) 
/var/tmp/pbs.5076255.sched01/tmp25ygy55i/01wbi4d2b.sdf

>  <i_m_source_file_index>  (75) 
30

>  <i_lp_mmshare_version>  (75) 
48012

>  <i_f3d_flags>  (75) 
0

>  <s_epik_input>  (75) 
W0NIM11PQyg9TylbQ0BAXShbQ0gyXVtPSF0pKFtDQEhdMVtPSF0pW0NAQEhdKFtDQEBdMTIzKU40W0NAQEhdKFtDQEBIXShPMylbQ0hdPVtDSF0yKVtDSDJdW0NIMl1bQ0gyXTQ=

>  <s_epik_cmdline>  (75) 
J2VwaWtfcHl0aG9uJywgJy1waHQnLCAnMi4wJywgJy1waCcsICc3LjAnLCAnLXRuJywgJzgnLCAnLW1hJywgJzIwMCcsICctaW1hZScsICc8aW5maWxlLm1hZT4nLCAnLW9tYWUnLCAnPG91dGZpbGUubWFlPic=

>  <r_epik_Ionization_Penalty>  (75) 
0.0340439

>  <r_epik_Ionization_Penalty_Charging>  (75) 
0

>  <r_epik_Ionization_Penalty_Neutral>  (75) 
0.0340439

>  <r_epik_State_Penalty>  (75) 
0.0101993

>  <r_epik_Charging_Adjusted_Penalty>  (75) 
0.0101993

>  <i_epik_Tot_Q>  (75) 
0

>  <i_epik_Tot_abs_Q>  (75) 
0

>  <s_epik_Chemistry_Notes>  (75) 
This compound has an ester and may undergo hydrolysis at high or low pH.

>  <s_lp_Force_Field>  (75) 
OPLS3e

>  <r_lp_Energy>  (75) 
26.6986

>  <b_lp_Chiralities_Consistent>  (75) 
1

>  <s_lp_Variant>  (75) 
24:0-1

>  <s_i_glide_gridfile>  (75) 
pfpi4k_grid

>  <i_i_glide_lignum>  (75) 
30

>  <i_i_glide_rotatable_bonds>  (75) 
5

>  <r_i_docking_score>  (75) 
-3.31264

>  <r_i_glide_ligand_efficiency>  (75) 
-0.165632

>  <r_i_glide_ligand_efficiency_sa>  (75) 
-0.449594

>  <r_i_glide_ligand_efficiency_ln>  (75) 
-0.829044

>  <r_i_glide_gscore>  (75) 
-3.31264

>  <r_i_glide_lipo>  (75) 
-0.759313

>  <r_i_glide_hbond>  (75) 
-0.0972016

>  <r_i_glide_metal>  (75) 
-0

>  <r_i_glide_rewards>  (75) 
-1.49111

>  <r_i_glide_evdw>  (75) 
-25.6251

>  <r_i_glide_ecoul>  (75) 
-0.823708

>  <r_i_glide_erotb>  (75) 
0.456823

>  <r_i_glide_esite>  (75) 
-0.0170288

>  <r_i_glide_emodel>  (75) 
-31.6408

>  <r_i_glide_energy>  (75) 
-26.4488

>  <r_i_glide_einternal>  (75) 
1.90951

>  <r_i_glide_intrahb_reward>  (75) 
-0

>  <i_i_glide_confnum>  (75) 
2

>  <i_i_glide_posenum>  (75) 
2

>  <r_i_glide_eff_state_penalty>  (75) 
0

>  <ligand_id>  (75) 
24

>  <original_smiles>  (75) 
COC(=O)C1(CO)C(O)C23C=CC(O2)C2CCCN2C31

>  <smiles>  (75) 
[H]OC([H])([H])C1(C(=O)OC([H])([H])[H])C([H])(O[H])C23OC([H])(C([H])=C2[H])C2([H])N(C([H])([H])C([H])([H])C2([H])[H])C31[H]

$$$$
24:1:0
     RDKit          3D

 40 43  0  0  1  0  0  0  0  0999 V2000
    1.5245   -3.1045    3.7166 C   0  0  0  0  0  0  0  0  0  0  0  0
    2.3491   -2.1551    3.0434 O   0  0  0  0  0  0  0  0  0  0  0  0
    2.8112   -2.3606    1.7813 C   0  0  0  0  0  0  0  0  0  0  0  0
    2.6316   -3.4243    1.1861 O   0  0  0  0  0  0  0  0  0  0  0  0
    3.5978   -1.1430    1.2664 C   0  0  1  0  0  0  0  0  0  0  0  0
    2.7189    0.1280    1.3752 C   0  0  0  0  0  0  0  0  0  0  0  0
    2.4612    0.5897    2.6908 O   0  0  0  0  0  0  0  0  0  0  0  0
    5.0510   -0.9499    1.8452 C   0  0  1  0  0  0  0  0  0  0  0  0
    5.3598   -1.3096    3.1899 O   0  0  0  0  0  0  0  0  0  0  0  0
    5.5947   -1.7946    0.7030 C   0  0  2  0  0  0  0  0  0  0  0  0
    5.7327   -3.2873    0.9556 C   0  0  0  0  0  0  0  0  0  0  0  0
    6.3732   -3.7886   -0.0768 C   0  0  0  0  0  0  0  0  0  0  0  0
    6.6140   -2.6749   -1.0647 C   0  0  2  0  0  0  0  0  0  0  0  0
    6.6072   -1.4722   -0.2576 O   0  0  0  0  0  0  0  0  0  0  0  0
    5.3605   -2.4683   -1.9446 C   0  0  1  0  0  0  0  0  0  0  0  0
    5.0125   -3.4613   -3.0348 C   0  0  0  0  0  0  0  0  0  0  0  0
    3.5653   -3.0397   -3.3643 C   0  0  0  0  0  0  0  0  0  0  0  0
    3.0810   -2.2010   -2.1599 C   0  0  0  0  0  0  0  0  0  0  0  0
    4.1257   -2.3492   -1.1309 N   0  0  2  0  0  0  0  0  0  0  0  0
    4.3609   -1.3250   -0.0848 C   0  0  1  0  0  0  0  0  0  0  0  0
    1.2075   -2.7109    4.6847 H   0  0  0  0  0  0  0  0  0  0  0  0
    2.0668   -4.0292    3.9015 H   0  0  0  0  0  0  0  0  0  0  0  0
    0.6172   -3.3276    3.1564 H   0  0  0  0  0  0  0  0  0  0  0  0
    3.2244    0.9492    0.8827 H   0  0  0  0  0  0  0  0  0  0  0  0
    1.7611   -0.0043    0.8759 H   0  0  0  0  0  0  0  0  0  0  0  0
    1.9831   -0.0923    3.1353 H   0  0  0  0  0  0  0  0  0  0  0  0
    5.3796    0.0723    1.6843 H   0  0  0  0  0  0  0  0  0  0  0  0
    5.1035   -2.2079    3.3098 H   0  0  0  0  0  0  0  0  0  0  0  0
    5.4072   -3.8481    1.8198 H   0  0  0  0  0  0  0  0  0  0  0  0
    6.6455   -4.8169   -0.2323 H   0  0  0  0  0  0  0  0  0  0  0  0
    7.5492   -2.7929   -1.6158 H   0  0  0  0  0  0  0  0  0  0  0  0
    5.5117   -1.5134   -2.4433 H   0  0  0  0  0  0  0  0  0  0  0  0
    5.6849   -3.4381   -3.8983 H   0  0  0  0  0  0  0  0  0  0  0  0
    5.0201   -4.4805   -2.6355 H   0  0  0  0  0  0  0  0  0  0  0  0
    3.5133   -2.4719   -4.2976 H   0  0  0  0  0  0  0  0  0  0  0  0
    2.9402   -3.9208   -3.5111 H   0  0  0  0  0  0  0  0  0  0  0  0
    2.9787   -1.1666   -2.4781 H   0  0  0  0  0  0  0  0  0  0  0  0
    2.1167   -2.5611   -1.8341 H   0  0  0  0  0  0  0  0  0  0  0  0
    4.5463   -0.3430   -0.5222 H   0  0  0  0  0  0  0  0  0  0  0  0
    3.9806   -3.2544   -0.6817 H   0  0  0  0  0  0  0  0  0  0  0  0
  1  2  1  0
  1 21  1  0
  1 22  1  0
  1 23  1  0
  2  3  1  0
  3  4  2  0
  3  5  1  0
  5 20  1  0
  5  6  1  6
  5  8  1  0
  6  7  1  0
  6 24  1  0
  6 25  1  0
  7 26  1  0
  8  9  1  0
  8 10  1  0
  8 27  1  6
  9 28  1  0
 10 14  1  0
 10 20  1  0
 10 11  1  1
 11 12  2  0
 11 29  1  0
 12 13  1  0
 12 30  1  0
 13 14  1  0
 13 15  1  0
 13 31  1  6
 15 19  1  0
 15 16  1  0
 15 32  1  6
 16 17  1  0
 16 33  1  0
 16 34  1  0
 17 18  1  0
 17 35  1  0
 17 36  1  0
 18 19  1  0
 18 37  1  0
 18 38  1  0
 19 20  1  0
 19 40  1  1
 20 39  1  6
M  CHG  1  19   1
M  END
>  <i_m_ct_stereo_status>  (76) 
1

>  <s_m_source_file>  (76) 
/var/tmp/pbs.5076255.sched01/tmp25ygy55i/01wbi4d2b.sdf

>  <i_m_source_file_index>  (76) 
31

>  <i_lp_mmshare_version>  (76) 
48012

>  <i_f3d_flags>  (76) 
0

>  <s_epik_input>  (76) 
W0NIM11PQyg9TylbQ0BAXShbQ0gyXVtPSF0pKFtDQEhdMVtPSF0pW0NAQEhdKFtDQEBdMTIzKU40W0NAQEhdKFtDQEBIXShPMylbQ0hdPVtDSF0yKVtDSDJdW0NIMl1bQ0gyXTQ=

>  <s_epik_cmdline>  (76) 
J2VwaWtfcHl0aG9uJywgJy1waHQnLCAnMi4wJywgJy1waCcsICc3LjAnLCAnLXRuJywgJzgnLCAnLW1hJywgJzIwMCcsICctaW1hZScsICc8aW5maWxlLm1hZT4nLCAnLW9tYWUnLCAnPG91dGZpbGUubWFlPic=

>  <r_epik_Ionization_Penalty>  (76) 
1.72283

>  <r_epik_Ionization_Penalty_Charging>  (76) 
1.70973

>  <r_epik_Ionization_Penalty_Neutral>  (76) 
0.0131052

>  <r_epik_State_Penalty>  (76) 
2.41654

>  <r_epik_Charging_Adjusted_Penalty>  (76) 
4.12627

>  <i_epik_Tot_Q>  (76) 
1

>  <i_epik_Tot_abs_Q>  (76) 
1

>  <s_epik_Chemistry_Notes>  (76) 
This compound has an ester and may undergo hydrolysis at high or low pH.

>  <s_lp_Force_Field>  (76) 
OPLS3e

>  <r_lp_Energy>  (76) 
32.4421

>  <b_lp_Chiralities_Consistent>  (76) 
1

>  <s_lp_Variant>  (76) 
24:0-2

>  <s_i_glide_gridfile>  (76) 
pfpi4k_grid

>  <i_i_glide_lignum>  (76) 
31

>  <i_i_glide_rotatable_bonds>  (76) 
5

>  <r_i_docking_score>  (76) 
-4.77351

>  <r_i_glide_ligand_efficiency>  (76) 
-0.238675

>  <r_i_glide_ligand_efficiency_sa>  (76) 
-0.647864

>  <r_i_glide_ligand_efficiency_ln>  (76) 
-1.19465

>  <r_i_glide_gscore>  (76) 
-4.77351

>  <r_i_glide_lipo>  (76) 
-0.709394

>  <r_i_glide_hbond>  (76) 
-0.113265

>  <r_i_glide_metal>  (76) 
-0

>  <r_i_glide_rewards>  (76) 
-2.48423

>  <r_i_glide_evdw>  (76) 
-25.8259

>  <r_i_glide_ecoul>  (76) 
-3.92983

>  <r_i_glide_erotb>  (76) 
0.453992

>  <r_i_glide_esite>  (76) 
-0.0398348

>  <r_i_glide_emodel>  (76) 
-49.4467

>  <r_i_glide_energy>  (76) 
-29.7557

>  <r_i_glide_einternal>  (76) 
0.369827

>  <r_i_glide_intrahb_reward>  (76) 
-1

>  <i_i_glide_confnum>  (76) 
6

>  <i_i_glide_posenum>  (76) 
14

>  <r_i_glide_eff_state_penalty>  (76) 
0

>  <ligand_id>  (76) 
24

>  <original_smiles>  (76) 
COC(=O)C1(CO)C(O)C23C=CC(O2)C2CCCN2C31

>  <smiles>  (76) 
[H]OC([H])([H])C1(C(=O)OC([H])([H])[H])C([H])(O[H])C23OC([H])(C([H])=C2[H])C2([H])C([H])([H])C([H])([H])C([H])([H])[N+]2([H])C31[H]

$$$$
24:1:1
     RDKit          3D

 40 43  0  0  1  0  0  0  0  0999 V2000
    3.4734    0.0456   -4.7640 C   0  0  0  0  0  0  0  0  0  0  0  0
    3.4900   -1.1524   -4.0044 O   0  0  0  0  0  0  0  0  0  0  0  0
    3.9532   -1.1915   -2.7316 C   0  0  0  0  0  0  0  0  0  0  0  0
    4.5783   -0.2567   -2.2439 O   0  0  0  0  0  0  0  0  0  0  0  0
    3.6242   -2.5225   -2.0128 C   0  0  1  0  0  0  0  0  0  0  0  0
    2.2441   -3.0383   -2.4421 C   0  0  0  0  0  0  0  0  0  0  0  0
    2.2160   -3.5144   -3.7817 O   0  0  0  0  0  0  0  0  0  0  0  0
    4.7300   -3.6323   -2.0640 C   0  0  1  0  0  0  0  0  0  0  0  0
    5.5286   -3.7350   -3.2169 O   0  0  0  0  0  0  0  0  0  0  0  0
    5.3337   -3.1048   -0.7763 C   0  0  2  0  0  0  0  0  0  0  0  0
    6.4458   -2.0955   -0.9050 C   0  0  0  0  0  0  0  0  0  0  0  0
    6.9333   -1.8847    0.3071 C   0  0  0  0  0  0  0  0  0  0  0  0
    6.1268   -2.7308    1.2575 C   0  0  2  0  0  0  0  0  0  0  0  0
    5.6321   -3.8082    0.4240 O   0  0  0  0  0  0  0  0  0  0  0  0
    4.8357   -1.9875    1.6794 C   0  0  1  0  0  0  0  0  0  0  0  0
    4.8982   -0.8049    2.6266 C   0  0  0  0  0  0  0  0  0  0  0  0
    3.4956   -0.1957    2.4420 C   0  0  0  0  0  0  0  0  0  0  0  0
    2.9404   -0.7805    1.1221 C   0  0  0  0  0  0  0  0  0  0  0  0
    4.0905   -1.4670    0.4949 N   0  0  2  0  0  0  0  0  0  0  0  0
    3.9157   -2.5921   -0.4688 C   0  0  1  0  0  0  0  0  0  0  0  0
    3.0154   -0.1501   -5.7327 H   0  0  0  0  0  0  0  0  0  0  0  0
    4.4764    0.4183   -4.9450 H   0  0  0  0  0  0  0  0  0  0  0  0
    2.8820    0.8241   -4.2902 H   0  0  0  0  0  0  0  0  0  0  0  0
    1.9192   -3.8694   -1.8135 H   0  0  0  0  0  0  0  0  0  0  0  0
    1.4971   -2.2602   -2.3448 H   0  0  0  0  0  0  0  0  0  0  0  0
    1.3425   -3.8709   -3.9305 H   0  0  0  0  0  0  0  0  0  0  0  0
    4.3164   -4.6226   -1.8512 H   0  0  0  0  0  0  0  0  0  0  0  0
    5.7823   -4.6460   -3.2716 H   0  0  0  0  0  0  0  0  0  0  0  0
    6.7478   -1.6509   -1.8351 H   0  0  0  0  0  0  0  0  0  0  0  0
    7.7211   -1.2093    0.6003 H   0  0  0  0  0  0  0  0  0  0  0  0
    6.7179   -3.1155    2.0795 H   0  0  0  0  0  0  0  0  0  0  0  0
    4.2178   -2.7450    2.1622 H   0  0  0  0  0  0  0  0  0  0  0  0
    5.1060   -1.0928    3.6574 H   0  0  0  0  0  0  0  0  0  0  0  0
    5.6610   -0.0982    2.3016 H   0  0  0  0  0  0  0  0  0  0  0  0
    2.8434   -0.4495    3.2790 H   0  0  0  0  0  0  0  0  0  0  0  0
    3.5531    0.8908    2.4099 H   0  0  0  0  0  0  0  0  0  0  0  0
    2.1479   -1.4945    1.3488 H   0  0  0  0  0  0  0  0  0  0  0  0
    2.5224   -0.0148    0.4765 H   0  0  0  0  0  0  0  0  0  0  0  0
    3.3178   -3.3898   -0.0201 H   0  0  0  0  0  0  0  0  0  0  0  0
    4.6726   -0.7569    0.0532 H   0  0  0  0  0  0  0  0  0  0  0  0
  1  2  1  0
  1 21  1  0
  1 22  1  0
  1 23  1  0
  2  3  1  0
  3  4  2  0
  3  5  1  0
  5 20  1  0
  5  6  1  1
  5  8  1  0
  6  7  1  0
  6 24  1  0
  6 25  1  0
  7 26  1  0
  8  9  1  0
  8 10  1  0
  8 27  1  1
  9 28  1  0
 10 14  1  0
 10 20  1  0
 10 11  1  6
 11 12  2  0
 11 29  1  0
 12 13  1  0
 12 30  1  0
 13 14  1  0
 13 15  1  0
 13 31  1  1
 15 19  1  0
 15 16  1  0
 15 32  1  1
 16 17  1  0
 16 33  1  0
 16 34  1  0
 17 18  1  0
 17 35  1  0
 17 36  1  0
 18 19  1  0
 18 37  1  0
 18 38  1  0
 19 20  1  0
 19 40  1  6
 20 39  1  1
M  CHG  1  19   1
M  END
>  <i_m_ct_stereo_status>  (77) 
1

>  <s_m_source_file>  (77) 
/var/tmp/pbs.5076255.sched01/tmp25ygy55i/01wbi4d2b.sdf

>  <i_m_source_file_index>  (77) 
31

>  <i_lp_mmshare_version>  (77) 
48012

>  <i_f3d_flags>  (77) 
0

>  <s_epik_input>  (77) 
W0NIM11PQyg9TylbQ0BAXShbQ0gyXVtPSF0pKFtDQEhdMVtPSF0pW0NAQEhdKFtDQEBdMTIzKU40W0NAQEhdKFtDQEBIXShPMylbQ0hdPVtDSF0yKVtDSDJdW0NIMl1bQ0gyXTQ=

>  <s_epik_cmdline>  (77) 
J2VwaWtfcHl0aG9uJywgJy1waHQnLCAnMi4wJywgJy1waCcsICc3LjAnLCAnLXRuJywgJzgnLCAnLW1hJywgJzIwMCcsICctaW1hZScsICc8aW5maWxlLm1hZT4nLCAnLW9tYWUnLCAnPG91dGZpbGUubWFlPic=

>  <r_epik_Ionization_Penalty>  (77) 
1.72283

>  <r_epik_Ionization_Penalty_Charging>  (77) 
1.70973

>  <r_epik_Ionization_Penalty_Neutral>  (77) 
0.0131052

>  <r_epik_State_Penalty>  (77) 
2.41654

>  <r_epik_Charging_Adjusted_Penalty>  (77) 
4.12627

>  <i_epik_Tot_Q>  (77) 
1

>  <i_epik_Tot_abs_Q>  (77) 
1

>  <s_epik_Chemistry_Notes>  (77) 
This compound has an ester and may undergo hydrolysis at high or low pH.

>  <s_lp_Force_Field>  (77) 
OPLS3e

>  <r_lp_Energy>  (77) 
32.4421

>  <b_lp_Chiralities_Consistent>  (77) 
1

>  <s_lp_Variant>  (77) 
24:0-2

>  <s_i_glide_gridfile>  (77) 
pfpi4k_grid

>  <i_i_glide_lignum>  (77) 
31

>  <i_i_glide_rotatable_bonds>  (77) 
5

>  <r_i_docking_score>  (77) 
-4.67972

>  <r_i_glide_ligand_efficiency>  (77) 
-0.233986

>  <r_i_glide_ligand_efficiency_sa>  (77) 
-0.635136

>  <r_i_glide_ligand_efficiency_ln>  (77) 
-1.17118

>  <r_i_glide_gscore>  (77) 
-4.67972

>  <r_i_glide_lipo>  (77) 
-0.567867

>  <r_i_glide_hbond>  (77) 
0

>  <r_i_glide_metal>  (77) 
-0

>  <r_i_glide_rewards>  (77) 
-1.98423

>  <r_i_glide_evdw>  (77) 
-25.5773

>  <r_i_glide_ecoul>  (77) 
-8.39727

>  <r_i_glide_erotb>  (77) 
0.453992

>  <r_i_glide_esite>  (77) 
-0.0431588

>  <r_i_glide_emodel>  (77) 
-46.3833

>  <r_i_glide_energy>  (77) 
-33.9746

>  <r_i_glide_einternal>  (77) 
3.832

>  <r_i_glide_intrahb_reward>  (77) 
-0.5

>  <i_i_glide_confnum>  (77) 
2

>  <i_i_glide_posenum>  (77) 
9

>  <r_i_glide_eff_state_penalty>  (77) 
0

>  <ligand_id>  (77) 
24

>  <original_smiles>  (77) 
COC(=O)C1(CO)C(O)C23C=CC(O2)C2CCCN2C31

>  <smiles>  (77) 
[H]OC([H])([H])C1(C(=O)OC([H])([H])[H])C([H])(O[H])C23OC([H])(C([H])=C2[H])C2([H])C([H])([H])C([H])([H])C([H])([H])[N+]2([H])C31[H]

$$$$
24:1:2
     RDKit          3D

 40 43  0  0  1  0  0  0  0  0999 V2000
    3.4459    0.0503   -4.7570 C   0  0  0  0  0  0  0  0  0  0  0  0
    3.4478   -1.1403   -3.9915 O   0  0  0  0  0  0  0  0  0  0  0  0
    3.9249   -1.1777   -2.7205 C   0  0  0  0  0  0  0  0  0  0  0  0
    4.5746   -0.2599   -2.2485 O   0  0  0  0  0  0  0  0  0  0  0  0
    3.5943   -2.5044   -1.9971 C   0  0  1  0  0  0  0  0  0  0  0  0
    2.2218   -3.0367   -2.4441 C   0  0  0  0  0  0  0  0  0  0  0  0
    2.2174   -3.5093   -3.7809 O   0  0  0  0  0  0  0  0  0  0  0  0
    4.7081   -3.6116   -2.0274 C   0  0  1  0  0  0  0  0  0  0  0  0
    5.5343   -3.7068   -3.1692 O   0  0  0  0  0  0  0  0  0  0  0  0
    5.2795   -3.0677   -0.7244 C   0  0  2  0  0  0  0  0  0  0  0  0
    6.3876   -2.0541   -0.8385 C   0  0  0  0  0  0  0  0  0  0  0  0
    6.8538   -1.8372    0.3884 C   0  0  0  0  0  0  0  0  0  0  0  0
    6.0318   -2.6785    1.3224 C   0  0  2  0  0  0  0  0  0  0  0  0
    5.5568   -3.7625    0.4872 O   0  0  0  0  0  0  0  0  0  0  0  0
    4.7283   -1.9334    1.7158 C   0  0  1  0  0  0  0  0  0  0  0  0
    4.7698   -0.7388    2.6530 C   0  0  0  0  0  0  0  0  0  0  0  0
    3.3690   -0.1362    2.4428 C   0  0  0  0  0  0  0  0  0  0  0  0
    2.8364   -0.7383    1.1221 C   0  0  0  0  0  0  0  0  0  0  0  0
    4.0014   -1.4176    0.5180 N   0  0  2  0  0  0  0  0  0  0  0  0
    3.8478   -2.5599   -0.4441 C   0  0  1  0  0  0  0  0  0  0  0  0
    2.9711   -0.1406   -5.7170 H   0  0  0  0  0  0  0  0  0  0  0  0
    4.4556    0.4032   -4.9544 H   0  0  0  0  0  0  0  0  0  0  0  0
    2.8780    0.8463   -4.2792 H   0  0  0  0  0  0  0  0  0  0  0  0
    1.8954   -3.8698   -1.8209 H   0  0  0  0  0  0  0  0  0  0  0  0
    1.4658   -2.2633   -2.3486 H   0  0  0  0  0  0  0  0  0  0  0  0
    1.3566   -3.8665   -3.9478 H   0  0  0  0  0  0  0  0  0  0  0  0
    4.2948   -4.5952   -1.8087 H   0  0  0  0  0  0  0  0  0  0  0  0
    6.2283   -3.0687   -3.0960 H   0  0  0  0  0  0  0  0  0  0  0  0
    6.7071   -1.6026   -1.7564 H   0  0  0  0  0  0  0  0  0  0  0  0
    7.6317   -1.1569    0.6873 H   0  0  0  0  0  0  0  0  0  0  0  0
    6.6148   -3.0533    2.1601 H   0  0  0  0  0  0  0  0  0  0  0  0
    4.1023   -2.6873    2.1937 H   0  0  0  0  0  0  0  0  0  0  0  0
    4.9586   -1.0137    3.6899 H   0  0  0  0  0  0  0  0  0  0  0  0
    5.5343   -0.0327    2.3325 H   0  0  0  0  0  0  0  0  0  0  0  0
    2.7008   -0.3811    3.2678 H   0  0  0  0  0  0  0  0  0  0  0  0
    3.4214    0.9489    2.3925 H   0  0  0  0  0  0  0  0  0  0  0  0
    2.0419   -1.4557    1.3368 H   0  0  0  0  0  0  0  0  0  0  0  0
    2.4233    0.0322    0.4759 H   0  0  0  0  0  0  0  0  0  0  0  0
    3.2446   -3.3531    0.0017 H   0  0  0  0  0  0  0  0  0  0  0  0
    4.5867   -0.7158    0.0790 H   0  0  0  0  0  0  0  0  0  0  0  0
  1  2  1  0
  1 21  1  0
  1 22  1  0
  1 23  1  0
  2  3  1  0
  3  4  2  0
  3  5  1  0
  5 20  1  0
  5  6  1  1
  5  8  1  0
  6  7  1  0
  6 24  1  0
  6 25  1  0
  7 26  1  0
  8  9  1  0
  8 10  1  0
  8 27  1  1
  9 28  1  0
 10 14  1  0
 10 20  1  0
 10 11  1  6
 11 12  2  0
 11 29  1  0
 12 13  1  0
 12 30  1  0
 13 14  1  0
 13 15  1  0
 13 31  1  1
 15 19  1  0
 15 16  1  0
 15 32  1  1
 16 17  1  0
 16 33  1  0
 16 34  1  0
 17 18  1  0
 17 35  1  0
 17 36  1  0
 18 19  1  0
 18 37  1  0
 18 38  1  0
 19 20  1  0
 19 40  1  6
 20 39  1  1
M  CHG  1  19   1
M  END
>  <i_m_ct_stereo_status>  (78) 
1

>  <s_m_source_file>  (78) 
/var/tmp/pbs.5076255.sched01/tmp25ygy55i/01wbi4d2b.sdf

>  <i_m_source_file_index>  (78) 
31

>  <i_lp_mmshare_version>  (78) 
48012

>  <i_f3d_flags>  (78) 
0

>  <s_epik_input>  (78) 
W0NIM11PQyg9TylbQ0BAXShbQ0gyXVtPSF0pKFtDQEhdMVtPSF0pW0NAQEhdKFtDQEBdMTIzKU40W0NAQEhdKFtDQEBIXShPMylbQ0hdPVtDSF0yKVtDSDJdW0NIMl1bQ0gyXTQ=

>  <s_epik_cmdline>  (78) 
J2VwaWtfcHl0aG9uJywgJy1waHQnLCAnMi4wJywgJy1waCcsICc3LjAnLCAnLXRuJywgJzgnLCAnLW1hJywgJzIwMCcsICctaW1hZScsICc8aW5maWxlLm1hZT4nLCAnLW9tYWUnLCAnPG91dGZpbGUubWFlPic=

>  <r_epik_Ionization_Penalty>  (78) 
1.72283

>  <r_epik_Ionization_Penalty_Charging>  (78) 
1.70973

>  <r_epik_Ionization_Penalty_Neutral>  (78) 
0.0131052

>  <r_epik_State_Penalty>  (78) 
2.41654

>  <r_epik_Charging_Adjusted_Penalty>  (78) 
4.12627

>  <i_epik_Tot_Q>  (78) 
1

>  <i_epik_Tot_abs_Q>  (78) 
1

>  <s_epik_Chemistry_Notes>  (78) 
This compound has an ester and may undergo hydrolysis at high or low pH.

>  <s_lp_Force_Field>  (78) 
OPLS3e

>  <r_lp_Energy>  (78) 
32.4421

>  <b_lp_Chiralities_Consistent>  (78) 
1

>  <s_lp_Variant>  (78) 
24:0-2

>  <s_i_glide_gridfile>  (78) 
pfpi4k_grid

>  <i_i_glide_lignum>  (78) 
31

>  <i_i_glide_rotatable_bonds>  (78) 
5

>  <r_i_docking_score>  (78) 
-4.47502

>  <r_i_glide_ligand_efficiency>  (78) 
-0.223751

>  <r_i_glide_ligand_efficiency_sa>  (78) 
-0.607354

>  <r_i_glide_ligand_efficiency_ln>  (78) 
-1.11995

>  <r_i_glide_gscore>  (78) 
-4.47502

>  <r_i_glide_lipo>  (78) 
-0.549862

>  <r_i_glide_hbond>  (78) 
0

>  <r_i_glide_metal>  (78) 
-0

>  <r_i_glide_rewards>  (78) 
-1.98423

>  <r_i_glide_evdw>  (78) 
-25.4035

>  <r_i_glide_ecoul>  (78) 
-7.16237

>  <r_i_glide_erotb>  (78) 
0.453992

>  <r_i_glide_esite>  (78) 
-0.0503877

>  <r_i_glide_emodel>  (78) 
-44.8109

>  <r_i_glide_energy>  (78) 
-32.5659

>  <r_i_glide_einternal>  (78) 
3.03805

>  <r_i_glide_intrahb_reward>  (78) 
-0.5

>  <i_i_glide_confnum>  (78) 
2

>  <i_i_glide_posenum>  (78) 
2

>  <r_i_glide_eff_state_penalty>  (78) 
0

>  <ligand_id>  (78) 
24

>  <original_smiles>  (78) 
COC(=O)C1(CO)C(O)C23C=CC(O2)C2CCCN2C31

>  <smiles>  (78) 
[H]OC([H])([H])C1(C(=O)OC([H])([H])[H])C([H])(O[H])C23OC([H])(C([H])=C2[H])C2([H])C([H])([H])C([H])([H])C([H])([H])[N+]2([H])C31[H]

$$$$
25:0:0
     RDKit          3D

 63 67  0  0  1  0  0  0  0  0999 V2000
    2.1966   -7.1607    1.5759 C   0  0  0  0  0  0  0  0  0  0  0  0
    2.0279   -6.6516    3.0579 C   0  0  1  0  0  0  0  0  0  0  0  0
    0.4892   -6.5298    3.3259 C   0  0  0  0  0  0  0  0  0  0  0  0
   -0.2379   -7.8772    3.0904 C   0  0  0  0  0  0  0  0  0  0  0  0
    0.4088   -8.9724    3.9648 C   0  0  1  0  0  0  0  0  0  0  0  0
   -0.1329  -10.2327    3.6492 O   0  0  0  0  0  0  0  0  0  0  0  0
    1.9330   -9.0860    3.7867 C   0  0  0  0  0  0  0  0  0  0  0  0
    2.6173   -7.7268    4.0322 C   0  0  1  0  0  0  0  0  0  0  0  0
    4.1621   -7.8409    3.9030 C   0  0  0  0  0  0  0  0  0  0  0  0
    4.8353   -6.5081    4.2515 C   0  0  0  0  0  0  0  0  0  0  0  0
    4.2977   -5.2982    3.4493 C   0  0  2  0  0  0  0  0  0  0  0  0
    2.7282   -5.2529    3.3425 C   0  0  1  0  0  0  0  0  0  0  0  0
    2.2542   -4.1310    2.3661 C   0  0  0  0  0  0  0  0  0  0  0  0
    3.3183   -3.0435    2.1359 C   0  0  0  0  0  0  0  0  0  0  0  0
    4.6468   -3.5998    1.4956 C   0  0  2  0  0  0  0  0  0  0  0  0
    5.7598   -2.5693    1.7585 C   0  0  0  0  0  0  0  0  0  0  0  0
    4.5344   -3.9177   -0.0445 C   0  0  1  0  0  0  0  0  0  0  0  0
    4.9681   -2.8089   -1.0292 C   0  0  2  0  0  0  0  0  0  0  0  0
    4.1005   -1.5428   -0.9301 C   0  0  0  0  0  0  0  0  0  0  0  0
    3.7060   -1.1645   -2.3442 C   0  0  0  0  0  0  0  0  0  0  0  0
    4.1504   -2.3792   -3.1292 C   0  0  0  0  0  0  0  0  0  0  0  0
    3.8733   -2.5105   -4.3197 O   0  0  0  0  0  0  0  0  0  0  0  0
    4.8262   -3.2251   -2.4107 N   0  0  0  0  0  0  0  0  0  0  0  0
    5.4013   -5.1899   -0.2406 C   0  0  0  0  0  0  0  0  0  0  0  0
    5.1172   -5.9890    1.0133 C   0  0  0  0  0  0  0  0  0  0  0  0
    5.0974   -4.9587    2.1522 C   0  0  2  0  0  0  0  0  0  0  0  0
    2.0496   -6.3810    0.8227 H   0  0  0  0  0  0  0  0  0  0  0  0
    1.5560   -7.9989    1.2863 H   0  0  0  0  0  0  0  0  0  0  0  0
    3.1660   -7.6465    1.4871 H   0  0  0  0  0  0  0  0  0  0  0  0
    0.2796   -6.1719    4.3470 H   0  0  0  0  0  0  0  0  0  0  0  0
    0.0909   -5.7826    2.6433 H   0  0  0  0  0  0  0  0  0  0  0  0
   -1.3034   -7.7747    3.2728 H   0  0  0  0  0  0  0  0  0  0  0  0
   -0.2377   -8.1789    2.0449 H   0  0  0  0  0  0  0  0  0  0  0  0
    0.1854   -8.7574    5.0097 H   0  0  0  0  0  0  0  0  0  0  0  0
   -0.8646  -10.4078    4.2230 H   0  0  0  0  0  0  0  0  0  0  0  0
    2.3340   -9.8464    4.4558 H   0  0  0  0  0  0  0  0  0  0  0  0
    2.1698   -9.4672    2.7923 H   0  0  0  0  0  0  0  0  0  0  0  0
    2.4102   -7.4457    5.0738 H   0  0  0  0  0  0  0  0  0  0  0  0
    4.5370   -8.6357    4.5520 H   0  0  0  0  0  0  0  0  0  0  0  0
    4.5119   -8.1548    2.9204 H   0  0  0  0  0  0  0  0  0  0  0  0
    4.6726   -6.3363    5.3173 H   0  0  0  0  0  0  0  0  0  0  0  0
    5.9167   -6.5992    4.1206 H   0  0  0  0  0  0  0  0  0  0  0  0
    4.5498   -4.4628    4.1105 H   0  0  0  0  0  0  0  0  0  0  0  0
    2.4139   -4.9190    4.3446 H   0  0  0  0  0  0  0  0  0  0  0  0
    2.0114   -4.4850    1.3819 H   0  0  0  0  0  0  0  0  0  0  0  0
    1.3352   -3.6651    2.7550 H   0  0  0  0  0  0  0  0  0  0  0  0
    2.8403   -2.2924    1.5104 H   0  0  0  0  0  0  0  0  0  0  0  0
    3.5430   -2.5418    3.0872 H   0  0  0  0  0  0  0  0  0  0  0  0
    6.6981   -2.8852    1.2894 H   0  0  0  0  0  0  0  0  0  0  0  0
    5.9299   -2.4543    2.8284 H   0  0  0  0  0  0  0  0  0  0  0  0
    5.4907   -1.5838    1.3815 H   0  0  0  0  0  0  0  0  0  0  0  0
    3.4933   -4.2025   -0.2705 H   0  0  0  0  0  0  0  0  0  0  0  0
    6.0195   -2.5783   -0.8901 H   0  0  0  0  0  0  0  0  0  0  0  0
    3.1619   -1.7364   -0.4184 H   0  0  0  0  0  0  0  0  0  0  0  0
    4.6152   -0.7224   -0.4213 H   0  0  0  0  0  0  0  0  0  0  0  0
    2.6276   -1.0137   -2.4029 H   0  0  0  0  0  0  0  0  0  0  0  0
    4.2268   -0.2675   -2.6670 H   0  0  0  0  0  0  0  0  0  0  0  0
    5.1966   -4.1132   -2.7451 H   0  0  0  0  0  0  0  0  0  0  0  0
    5.0458   -5.7744   -1.1048 H   0  0  0  0  0  0  0  0  0  0  0  0
    6.4883   -4.9684   -0.3541 H   0  0  0  0  0  0  0  0  0  0  0  0
    4.1804   -6.2918    0.7318 H   0  0  0  0  0  0  0  0  0  0  0  0
    5.7908   -6.8239    1.1974 H   0  0  0  0  0  0  0  0  0  0  0  0
    6.1502   -4.8374    2.4872 H   0  0  0  0  0  0  0  0  0  0  0  0
  2  1  1  6
  1 27  1  0
  1 28  1  0
  1 29  1  0
  2  8  1  0
  2 12  1  0
  2  3  1  0
  3  4  1  0
  3 30  1  0
  3 31  1  0
  4  5  1  0
  4 32  1  0
  4 33  1  0
  5  6  1  0
  5  7  1  0
  5 34  1  1
  6 35  1  0
  7  8  1  0
  7 36  1  0
  7 37  1  0
  8  9  1  0
  8 38  1  1
  9 10  1  0
  9 39  1  0
  9 40  1  0
 10 11  1  0
 10 41  1  0
 10 42  1  0
 11 26  1  0
 11 12  1  0
 11 43  1  1
 12 13  1  0
 12 44  1  1
 13 14  1  0
 13 45  1  0
 13 46  1  0
 14 15  1  0
 14 47  1  0
 14 48  1  0
 15 26  1  0
 15 16  1  6
 15 17  1  0
 16 49  1  0
 16 50  1  0
 16 51  1  0
 17 18  1  0
 17 24  1  0
 17 52  1  6
 18 23  1  0
 18 19  1  0
 18 53  1  1
 19 20  1  0
 19 54  1  0
 19 55  1  0
 20 21  1  0
 20 56  1  0
 20 57  1  0
 21 22  2  0
 21 23  1  0
 23 58  1  0
 24 25  1  0
 24 59  1  0
 24 60  1  0
 25 26  1  0
 25 61  1  0
 25 62  1  0
 26 63  1  1
M  END
>  <i_m_ct_stereo_status>  (79) 
1

>  <s_m_source_file>  (79) 
/var/tmp/pbs.5076255.sched01/tmp25ygy55i/01wbi4d2b.sdf

>  <i_m_source_file_index>  (79) 
32

>  <i_lp_mmshare_version>  (79) 
48012

>  <i_f3d_flags>  (79) 
0

>  <s_epik_input>  (79) 
W0NIMl0xW0NIMl1bQ0BASF0oW09IXSlbQ0gyXVtDQEhdKFtDQEBdMTJbQ0gzXSlbQ0gyXVtDSDJdW0NAQEhdM1tDQEhdMltDSDJdW0NIMl1bQ0BAXTQoW0NIM10pW0NAQEhdM1tDSDJdW0NIMl1bQ0BASF00W0NAQEhdNVtDSDJdW0NIMl1DKD1PKVtOSF01

>  <s_epik_cmdline>  (79) 
J2VwaWtfcHl0aG9uJywgJy1waHQnLCAnMi4wJywgJy1waCcsICc3LjAnLCAnLXRuJywgJzgnLCAnLW1hJywgJzIwMCcsICctaW1hZScsICc8aW5maWxlLm1hZT4nLCAnLW9tYWUnLCAnPG91dGZpbGUubWFlPic=

>  <r_lp_tautomer_probability>  (79) 
1

>  <r_epik_Ionization_Penalty>  (79) 
3.36192e-06

>  <r_epik_Ionization_Penalty_Charging>  (79) 
0

>  <r_epik_Ionization_Penalty_Neutral>  (79) 
3.36192e-06

>  <r_epik_State_Penalty>  (79) 
-0

>  <r_epik_Charging_Adjusted_Penalty>  (79) 
0

>  <i_epik_Tot_Q>  (79) 
0

>  <i_epik_Tot_abs_Q>  (79) 
0

>  <s_lp_Force_Field>  (79) 
OPLS3e

>  <r_lp_Energy>  (79) 
47.3856

>  <b_lp_Chiralities_Consistent>  (79) 
1

>  <s_lp_Variant>  (79) 
25:0-1

>  <s_i_glide_gridfile>  (79) 
pfpi4k_grid

>  <i_i_glide_lignum>  (79) 
32

>  <i_i_glide_rotatable_bonds>  (79) 
2

>  <r_i_docking_score>  (79) 
-4.06637

>  <r_i_glide_ligand_efficiency>  (79) 
-0.156399

>  <r_i_glide_ligand_efficiency_sa>  (79) 
-0.463332

>  <r_i_glide_ligand_efficiency_ln>  (79) 
-0.954975

>  <r_i_glide_gscore>  (79) 
-4.06637

>  <r_i_glide_lipo>  (79) 
-0.230995

>  <r_i_glide_hbond>  (79) 
-0.456

>  <r_i_glide_metal>  (79) 
-0

>  <r_i_glide_rewards>  (79) 
-1.17354

>  <r_i_glide_evdw>  (79) 
-28.4

>  <r_i_glide_ecoul>  (79) 
-6.22749

>  <r_i_glide_erotb>  (79) 
0.14828

>  <r_i_glide_esite>  (79) 
0

>  <r_i_glide_emodel>  (79) 
-40.0345

>  <r_i_glide_energy>  (79) 
-34.6275

>  <r_i_glide_einternal>  (79) 
1.18663

>  <r_i_glide_intrahb_reward>  (79) 
-0

>  <i_i_glide_confnum>  (79) 
4

>  <i_i_glide_posenum>  (79) 
34

>  <r_i_glide_eff_state_penalty>  (79) 
0

>  <ligand_id>  (79) 
25

>  <original_smiles>  (79) 
CC12CCC(O)CC1CCC1C2CCC2(C)C(C3CCC(=O)N3)CCC12

>  <smiles>  (79) 
[H]OC1([H])C([H])([H])C([H])([H])C2(C([H])([H])[H])C([H])(C([H])([H])C([H])([H])C3([H])C2([H])C([H])([H])C([H])([H])C2(C([H])([H])[H])C([H])(C4([H])N([H])C(=O)C([H])([H])C4([H])[H])C([H])([H])C([H])([H])C32[H])C1([H])[H]

$$$$
25:0:1
     RDKit          3D

 63 67  0  0  1  0  0  0  0  0999 V2000
    2.4934   -7.2529    2.2572 C   0  0  0  0  0  0  0  0  0  0  0  0
    1.7136   -7.1612    3.6175 C   0  0  1  0  0  0  0  0  0  0  0  0
    0.1905   -7.2698    3.2883 C   0  0  0  0  0  0  0  0  0  0  0  0
   -0.1239   -8.5703    2.5039 C   0  0  0  0  0  0  0  0  0  0  0  0
    0.3812   -9.7960    3.2887 C   0  0  1  0  0  0  0  0  0  0  0  0
    0.2391  -10.9360    2.4747 O   0  0  0  0  0  0  0  0  0  0  0  0
    1.8525   -9.7048    3.7262 C   0  0  0  0  0  0  0  0  0  0  0  0
    2.1180   -8.4018    4.5070 C   0  0  1  0  0  0  0  0  0  0  0  0
    3.5890   -8.3199    4.9986 C   0  0  0  0  0  0  0  0  0  0  0  0
    3.8049   -7.0693    5.8580 C   0  0  0  0  0  0  0  0  0  0  0  0
    3.3611   -5.7508    5.1817 C   0  0  2  0  0  0  0  0  0  0  0  0
    1.9685   -5.8271    4.4544 C   0  0  1  0  0  0  0  0  0  0  0  0
    1.6508   -4.5302    3.6571 C   0  0  0  0  0  0  0  0  0  0  0  0
    2.4926   -3.3342    4.0994 C   0  0  0  0  0  0  0  0  0  0  0  0
    4.0471   -3.5515    3.9473 C   0  0  2  0  0  0  0  0  0  0  0  0
    4.7452   -2.5140    4.8624 C   0  0  0  0  0  0  0  0  0  0  0  0
    4.5745   -3.4452    2.4686 C   0  0  1  0  0  0  0  0  0  0  0  0
    5.0908   -2.0680    1.9990 C   0  0  2  0  0  0  0  0  0  0  0  0
    3.9953   -0.9951    1.9331 C   0  0  0  0  0  0  0  0  0  0  0  0
    4.1362   -0.3228    0.5846 C   0  0  0  0  0  0  0  0  0  0  0  0
    5.1261   -1.2057   -0.1447 C   0  0  0  0  0  0  0  0  0  0  0  0
    5.4185   -1.0608   -1.3371 O   0  0  0  0  0  0  0  0  0  0  0  0
    5.6276   -2.1290    0.6507 N   0  0  0  0  0  0  0  0  0  0  0  0
    5.6804   -4.5300    2.3633 C   0  0  0  0  0  0  0  0  0  0  0  0
    5.1636   -5.6329    3.2113 C   0  0  0  0  0  0  0  0  0  0  0  0
    4.5027   -4.9856    4.4260 C   0  0  2  0  0  0  0  0  0  0  0  0
    2.5074   -6.3322    1.6797 H   0  0  0  0  0  0  0  0  0  0  0  0
    2.1951   -8.0139    1.5700 H   0  0  0  0  0  0  0  0  0  0  0  0
    3.4902   -7.6126    2.4596 H   0  0  0  0  0  0  0  0  0  0  0  0
   -0.4460   -7.2391    4.1889 H   0  0  0  0  0  0  0  0  0  0  0  0
   -0.0962   -6.4115    2.6718 H   0  0  0  0  0  0  0  0  0  0  0  0
   -1.1794   -8.6385    2.2552 H   0  0  0  0  0  0  0  0  0  0  0  0
    0.3131   -8.5604    1.5083 H   0  0  0  0  0  0  0  0  0  0  0  0
   -0.2364   -9.9089    4.1747 H   0  0  0  0  0  0  0  0  0  0  0  0
    0.4834  -10.7179    1.5777 H   0  0  0  0  0  0  0  0  0  0  0  0
    2.1261  -10.5751    4.3245 H   0  0  0  0  0  0  0  0  0  0  0  0
    2.5126   -9.7758    2.8588 H   0  0  0  0  0  0  0  0  0  0  0  0
    1.4869   -8.4430    5.4166 H   0  0  0  0  0  0  0  0  0  0  0  0
    3.8503   -9.2196    5.5590 H   0  0  0  0  0  0  0  0  0  0  0  0
    4.3388   -8.3245    4.2128 H   0  0  0  0  0  0  0  0  0  0  0  0
    3.2370   -7.2163    6.7800 H   0  0  0  0  0  0  0  0  0  0  0  0
    4.8558   -7.0117    6.1580 H   0  0  0  0  0  0  0  0  0  0  0  0
    3.1840   -5.1051    6.0566 H   0  0  0  0  0  0  0  0  0  0  0  0
    1.2483   -5.8257    5.3081 H   0  0  0  0  0  0  0  0  0  0  0  0
    1.8458   -4.5842    2.6080 H   0  0  0  0  0  0  0  0  0  0  0  0
    0.5900   -4.2919    3.7260 H   0  0  0  0  0  0  0  0  0  0  0  0
    2.1425   -2.4838    3.5250 H   0  0  0  0  0  0  0  0  0  0  0  0
    2.2499   -3.0842    5.1491 H   0  0  0  0  0  0  0  0  0  0  0  0
    5.8187   -2.6054    4.7534 H   0  0  0  0  0  0  0  0  0  0  0  0
    4.4954   -2.6876    5.9087 H   0  0  0  0  0  0  0  0  0  0  0  0
    4.4453   -1.5003    4.6125 H   0  0  0  0  0  0  0  0  0  0  0  0
    3.7665   -3.7624    1.7922 H   0  0  0  0  0  0  0  0  0  0  0  0
    5.9243   -1.7360    2.6181 H   0  0  0  0  0  0  0  0  0  0  0  0
    3.0042   -1.4359    1.9198 H   0  0  0  0  0  0  0  0  0  0  0  0
    4.0546   -0.2949    2.7641 H   0  0  0  0  0  0  0  0  0  0  0  0
    3.1678   -0.2937    0.0847 H   0  0  0  0  0  0  0  0  0  0  0  0
    4.5196    0.6889    0.7029 H   0  0  0  0  0  0  0  0  0  0  0  0
    6.3011   -2.8208    0.3722 H   0  0  0  0  0  0  0  0  0  0  0  0
    5.8076   -4.8774    1.3240 H   0  0  0  0  0  0  0  0  0  0  0  0
    6.6290   -4.1883    2.7145 H   0  0  0  0  0  0  0  0  0  0  0  0
    4.4641   -5.9290    2.4965 H   0  0  0  0  0  0  0  0  0  0  0  0
    5.8465   -6.4269    3.4545 H   0  0  0  0  0  0  0  0  0  0  0  0
    5.3004   -4.8536    5.1752 H   0  0  0  0  0  0  0  0  0  0  0  0
  2  1  1  6
  1 27  1  0
  1 28  1  0
  1 29  1  0
  2  8  1  0
  2 12  1  0
  2  3  1  0
  3  4  1  0
  3 30  1  0
  3 31  1  0
  4  5  1  0
  4 32  1  0
  4 33  1  0
  5  6  1  0
  5  7  1  0
  5 34  1  1
  6 35  1  0
  7  8  1  0
  7 36  1  0
  7 37  1  0
  8  9  1  0
  8 38  1  1
  9 10  1  0
  9 39  1  0
  9 40  1  0
 10 11  1  0
 10 41  1  0
 10 42  1  0
 11 26  1  0
 11 12  1  0
 11 43  1  1
 12 13  1  0
 12 44  1  1
 13 14  1  0
 13 45  1  0
 13 46  1  0
 14 15  1  0
 14 47  1  0
 14 48  1  0
 15 26  1  0
 15 16  1  1
 15 17  1  0
 16 49  1  0
 16 50  1  0
 16 51  1  0
 17 18  1  0
 17 24  1  0
 17 52  1  6
 18 23  1  0
 18 19  1  0
 18 53  1  1
 19 20  1  0
 19 54  1  0
 19 55  1  0
 20 21  1  0
 20 56  1  0
 20 57  1  0
 21 22  2  0
 21 23  1  0
 23 58  1  0
 24 25  1  0
 24 59  1  0
 24 60  1  0
 25 26  1  0
 25 61  1  0
 25 62  1  0
 26 63  1  1
M  END
>  <i_m_ct_stereo_status>  (80) 
1

>  <s_m_source_file>  (80) 
/var/tmp/pbs.5076255.sched01/tmp25ygy55i/01wbi4d2b.sdf

>  <i_m_source_file_index>  (80) 
32

>  <i_lp_mmshare_version>  (80) 
48012

>  <i_f3d_flags>  (80) 
0

>  <s_epik_input>  (80) 
W0NIMl0xW0NIMl1bQ0BASF0oW09IXSlbQ0gyXVtDQEhdKFtDQEBdMTJbQ0gzXSlbQ0gyXVtDSDJdW0NAQEhdM1tDQEhdMltDSDJdW0NIMl1bQ0BAXTQoW0NIM10pW0NAQEhdM1tDSDJdW0NIMl1bQ0BASF00W0NAQEhdNVtDSDJdW0NIMl1DKD1PKVtOSF01

>  <s_epik_cmdline>  (80) 
J2VwaWtfcHl0aG9uJywgJy1waHQnLCAnMi4wJywgJy1waCcsICc3LjAnLCAnLXRuJywgJzgnLCAnLW1hJywgJzIwMCcsICctaW1hZScsICc8aW5maWxlLm1hZT4nLCAnLW9tYWUnLCAnPG91dGZpbGUubWFlPic=

>  <r_lp_tautomer_probability>  (80) 
1

>  <r_epik_Ionization_Penalty>  (80) 
3.36192e-06

>  <r_epik_Ionization_Penalty_Charging>  (80) 
0

>  <r_epik_Ionization_Penalty_Neutral>  (80) 
3.36192e-06

>  <r_epik_State_Penalty>  (80) 
-0

>  <r_epik_Charging_Adjusted_Penalty>  (80) 
0

>  <i_epik_Tot_Q>  (80) 
0

>  <i_epik_Tot_abs_Q>  (80) 
0

>  <s_lp_Force_Field>  (80) 
OPLS3e

>  <r_lp_Energy>  (80) 
47.3856

>  <b_lp_Chiralities_Consistent>  (80) 
1

>  <s_lp_Variant>  (80) 
25:0-1

>  <s_i_glide_gridfile>  (80) 
pfpi4k_grid

>  <i_i_glide_lignum>  (80) 
32

>  <i_i_glide_rotatable_bonds>  (80) 
2

>  <r_i_docking_score>  (80) 
-2.84385

>  <r_i_glide_ligand_efficiency>  (80) 
-0.109379

>  <r_i_glide_ligand_efficiency_sa>  (80) 
-0.324034

>  <r_i_glide_ligand_efficiency_ln>  (80) 
-0.667868

>  <r_i_glide_gscore>  (80) 
-2.84385

>  <r_i_glide_lipo>  (80) 
-0.284647

>  <r_i_glide_hbond>  (80) 
-0.250293

>  <r_i_glide_metal>  (80) 
-0

>  <r_i_glide_rewards>  (80) 
-0.957645

>  <r_i_glide_evdw>  (80) 
-21.2011

>  <r_i_glide_ecoul>  (80) 
-2.8902

>  <r_i_glide_erotb>  (80) 
0.14828

>  <r_i_glide_esite>  (80) 
-0.00595756

>  <r_i_glide_emodel>  (80) 
-26.4348

>  <r_i_glide_energy>  (80) 
-24.0913

>  <r_i_glide_einternal>  (80) 
0.40744

>  <r_i_glide_intrahb_reward>  (80) 
-0

>  <i_i_glide_confnum>  (80) 
4

>  <i_i_glide_posenum>  (80) 
2

>  <r_i_glide_eff_state_penalty>  (80) 
0

>  <ligand_id>  (80) 
25

>  <original_smiles>  (80) 
CC12CCC(O)CC1CCC1C2CCC2(C)C(C3CCC(=O)N3)CCC12

>  <smiles>  (80) 
[H]OC1([H])C([H])([H])C([H])([H])C2(C([H])([H])[H])C([H])(C([H])([H])C([H])([H])C3([H])C2([H])C([H])([H])C([H])([H])C2(C([H])([H])[H])C([H])(C4([H])N([H])C(=O)C([H])([H])C4([H])[H])C([H])([H])C([H])([H])C32[H])C1([H])[H]

$$$$
25:0:2
     RDKit          3D

 63 67  0  0  1  0  0  0  0  0999 V2000
    3.5251   -4.1119   -0.3388 C   0  0  0  0  0  0  0  0  0  0  0  0
    4.8573   -3.6119    0.1536 C   0  0  1  0  0  0  0  0  0  0  0  0
    5.7368   -3.6178   -1.1122 C   0  0  0  0  0  0  0  0  0  0  0  0
    5.1193   -2.7563   -2.2302 C   0  0  0  0  0  0  0  0  0  0  0  0
    4.8522   -1.3273   -1.7414 C   0  0  1  0  0  0  0  0  0  0  0  0
    4.2157   -0.5960   -2.7645 O   0  0  0  0  0  0  0  0  0  0  0  0
    3.9948   -1.2975   -0.4701 C   0  0  0  0  0  0  0  0  0  0  0  0
    4.6225   -2.1452    0.6534 C   0  0  1  0  0  0  0  0  0  0  0  0
    3.7534   -2.0876    1.9377 C   0  0  0  0  0  0  0  0  0  0  0  0
    4.3537   -2.9196    3.0769 C   0  0  0  0  0  0  0  0  0  0  0  0
    4.6672   -4.3772    2.6773 C   0  0  2  0  0  0  0  0  0  0  0  0
    5.4598   -4.4669    1.3349 C   0  0  1  0  0  0  0  0  0  0  0  0
    5.7423   -5.9564    1.0048 C   0  0  0  0  0  0  0  0  0  0  0  0
    4.5152   -6.8902    1.0662 C   0  0  0  0  0  0  0  0  0  0  0  0
    3.7795   -6.8392    2.4127 C   0  0  2  0  0  0  0  0  0  0  0  0
    4.7151   -7.5348    3.4026 C   0  0  0  0  0  0  0  0  0  0  0  0
    2.3681   -7.4961    2.2911 C   0  0  1  0  0  0  0  0  0  0  0  0
    2.0001   -8.4859    3.4119 C   0  0  2  0  0  0  0  0  0  0  0  0
    0.6501   -9.1687    3.1745 C   0  0  0  0  0  0  0  0  0  0  0  0
   -0.1172   -9.0616    4.4973 C   0  0  0  0  0  0  0  0  0  0  0  0
    0.7202   -8.1112    5.3428 C   0  0  0  0  0  0  0  0  0  0  0  0
    0.3824   -7.6660    6.4206 O   0  0  0  0  0  0  0  0  0  0  0  0
    1.8627   -7.8365    4.7035 N   0  0  0  0  0  0  0  0  0  0  0  0
    1.3105   -6.3705    2.2482 C   0  0  0  0  0  0  0  0  0  0  0  0
    2.0752   -5.0782    2.3596 C   0  0  0  0  0  0  0  0  0  0  0  0
    3.4753   -5.3904    2.8703 C   0  0  2  0  0  0  0  0  0  0  0  0
    3.4493   -5.1653   -0.6225 H   0  0  0  0  0  0  0  0  0  0  0  0
    3.0327   -3.7185   -1.2024 H   0  0  0  0  0  0  0  0  0  0  0  0
    2.7859   -3.6931    0.3135 H   0  0  0  0  0  0  0  0  0  0  0  0
    6.7337   -3.2758   -0.8618 H   0  0  0  0  0  0  0  0  0  0  0  0
    5.8120   -4.6418   -1.4784 H   0  0  0  0  0  0  0  0  0  0  0  0
    5.7653   -2.7722   -3.0940 H   0  0  0  0  0  0  0  0  0  0  0  0
    4.2029   -3.1868   -2.6270 H   0  0  0  0  0  0  0  0  0  0  0  0
    5.8083   -0.8564   -1.5266 H   0  0  0  0  0  0  0  0  0  0  0  0
    3.2942   -0.8074   -2.7624 H   0  0  0  0  0  0  0  0  0  0  0  0
    3.8556   -0.2767   -0.1258 H   0  0  0  0  0  0  0  0  0  0  0  0
    2.9902   -1.6517   -0.7027 H   0  0  0  0  0  0  0  0  0  0  0  0
    5.5893   -1.7232    0.9011 H   0  0  0  0  0  0  0  0  0  0  0  0
    3.6410   -1.0551    2.2532 H   0  0  0  0  0  0  0  0  0  0  0  0
    2.7215   -2.3922    1.7685 H   0  0  0  0  0  0  0  0  0  0  0  0
    5.2816   -2.4340    3.3812 H   0  0  0  0  0  0  0  0  0  0  0  0
    3.6996   -2.8949    3.9488 H   0  0  0  0  0  0  0  0  0  0  0  0
    5.3792   -4.7046    3.4377 H   0  0  0  0  0  0  0  0  0  0  0  0
    6.4320   -4.0204    1.5402 H   0  0  0  0  0  0  0  0  0  0  0  0
    6.2885   -6.0631    0.0736 H   0  0  0  0  0  0  0  0  0  0  0  0
    6.4618   -6.3365    1.7404 H   0  0  0  0  0  0  0  0  0  0  0  0
    3.7695   -6.7552    0.2813 H   0  0  0  0  0  0  0  0  0  0  0  0
    4.7840   -7.8966    0.7610 H   0  0  0  0  0  0  0  0  0  0  0  0
    4.2634   -7.6061    4.3770 H   0  0  0  0  0  0  0  0  0  0  0  0
    5.6237   -6.9760    3.5597 H   0  0  0  0  0  0  0  0  0  0  0  0
    4.9559   -8.5272    3.0307 H   0  0  0  0  0  0  0  0  0  0  0  0
    2.2958   -8.0484    1.3481 H   0  0  0  0  0  0  0  0  0  0  0  0
    2.7734   -9.2452    3.4883 H   0  0  0  0  0  0  0  0  0  0  0  0
    0.0933   -8.6681    2.3834 H   0  0  0  0  0  0  0  0  0  0  0  0
    0.7786  -10.2045    2.8563 H   0  0  0  0  0  0  0  0  0  0  0  0
   -1.1290   -8.6679    4.3568 H   0  0  0  0  0  0  0  0  0  0  0  0
   -0.1777  -10.0159    4.9999 H   0  0  0  0  0  0  0  0  0  0  0  0
    2.5574   -7.2110    5.0754 H   0  0  0  0  0  0  0  0  0  0  0  0
    0.7415   -6.4263    1.3114 H   0  0  0  0  0  0  0  0  0  0  0  0
    0.6078   -6.3594    3.0687 H   0  0  0  0  0  0  0  0  0  0  0  0
    1.9866   -4.9975    1.2773 H   0  0  0  0  0  0  0  0  0  0  0  0
    1.5638   -4.2161    2.7931 H   0  0  0  0  0  0  0  0  0  0  0  0
    3.3024   -5.4281    3.9524 H   0  0  0  0  0  0  0  0  0  0  0  0
  2  1  1  6
  1 27  1  0
  1 28  1  0
  1 29  1  0
  2  8  1  0
  2 12  1  0
  2  3  1  0
  3  4  1  0
  3 30  1  0
  3 31  1  0
  4  5  1  0
  4 32  1  0
  4 33  1  0
  5  6  1  0
  5  7  1  0
  5 34  1  1
  6 35  1  0
  7  8  1  0
  7 36  1  0
  7 37  1  0
  8  9  1  0
  8 38  1  1
  9 10  1  0
  9 39  1  0
  9 40  1  0
 10 11  1  0
 10 41  1  0
 10 42  1  0
 11 26  1  0
 11 12  1  0
 11 43  1  1
 12 13  1  0
 12 44  1  1
 13 14  1  0
 13 45  1  0
 13 46  1  0
 14 15  1  0
 14 47  1  0
 14 48  1  0
 15 26  1  0
 15 16  1  1
 15 17  1  0
 16 49  1  0
 16 50  1  0
 16 51  1  0
 17 18  1  0
 17 24  1  0
 17 52  1  6
 18 23  1  0
 18 19  1  0
 18 53  1  1
 19 20  1  0
 19 54  1  0
 19 55  1  0
 20 21  1  0
 20 56  1  0
 20 57  1  0
 21 22  2  0
 21 23  1  0
 23 58  1  0
 24 25  1  0
 24 59  1  0
 24 60  1  0
 25 26  1  0
 25 61  1  0
 25 62  1  0
 26 63  1  1
M  END
>  <i_m_ct_stereo_status>  (81) 
1

>  <s_m_source_file>  (81) 
/var/tmp/pbs.5076255.sched01/tmp25ygy55i/01wbi4d2b.sdf

>  <i_m_source_file_index>  (81) 
32

>  <i_lp_mmshare_version>  (81) 
48012

>  <i_f3d_flags>  (81) 
0

>  <s_epik_input>  (81) 
W0NIMl0xW0NIMl1bQ0BASF0oW09IXSlbQ0gyXVtDQEhdKFtDQEBdMTJbQ0gzXSlbQ0gyXVtDSDJdW0NAQEhdM1tDQEhdMltDSDJdW0NIMl1bQ0BAXTQoW0NIM10pW0NAQEhdM1tDSDJdW0NIMl1bQ0BASF00W0NAQEhdNVtDSDJdW0NIMl1DKD1PKVtOSF01

>  <s_epik_cmdline>  (81) 
J2VwaWtfcHl0aG9uJywgJy1waHQnLCAnMi4wJywgJy1waCcsICc3LjAnLCAnLXRuJywgJzgnLCAnLW1hJywgJzIwMCcsICctaW1hZScsICc8aW5maWxlLm1hZT4nLCAnLW9tYWUnLCAnPG91dGZpbGUubWFlPic=

>  <r_lp_tautomer_probability>  (81) 
1

>  <r_epik_Ionization_Penalty>  (81) 
3.36192e-06

>  <r_epik_Ionization_Penalty_Charging>  (81) 
0

>  <r_epik_Ionization_Penalty_Neutral>  (81) 
3.36192e-06

>  <r_epik_State_Penalty>  (81) 
-0

>  <r_epik_Charging_Adjusted_Penalty>  (81) 
0

>  <i_epik_Tot_Q>  (81) 
0

>  <i_epik_Tot_abs_Q>  (81) 
0

>  <s_lp_Force_Field>  (81) 
OPLS3e

>  <r_lp_Energy>  (81) 
47.3856

>  <b_lp_Chiralities_Consistent>  (81) 
1

>  <s_lp_Variant>  (81) 
25:0-1

>  <s_i_glide_gridfile>  (81) 
pfpi4k_grid

>  <i_i_glide_lignum>  (81) 
32

>  <i_i_glide_rotatable_bonds>  (81) 
2

>  <r_i_docking_score>  (81) 
-2.4337

>  <r_i_glide_ligand_efficiency>  (81) 
-0.0936039

>  <r_i_glide_ligand_efficiency_sa>  (81) 
-0.277301

>  <r_i_glide_ligand_efficiency_ln>  (81) 
-0.571547

>  <r_i_glide_gscore>  (81) 
-2.4337

>  <r_i_glide_lipo>  (81) 
-0.495577

>  <r_i_glide_hbond>  (81) 
0

>  <r_i_glide_metal>  (81) 
-0

>  <r_i_glide_rewards>  (81) 
-0.957645

>  <r_i_glide_evdw>  (81) 
-28.783

>  <r_i_glide_ecoul>  (81) 
-1.9091

>  <r_i_glide_erotb>  (81) 
0.14828

>  <r_i_glide_esite>  (81) 
-0.0278295

>  <r_i_glide_emodel>  (81) 
-30.1914

>  <r_i_glide_energy>  (81) 
-30.6921

>  <r_i_glide_einternal>  (81) 
1.82354

>  <r_i_glide_intrahb_reward>  (81) 
-0

>  <i_i_glide_confnum>  (81) 
3

>  <i_i_glide_posenum>  (81) 
1

>  <r_i_glide_eff_state_penalty>  (81) 
0

>  <ligand_id>  (81) 
25

>  <original_smiles>  (81) 
CC12CCC(O)CC1CCC1C2CCC2(C)C(C3CCC(=O)N3)CCC12

>  <smiles>  (81) 
[H]OC1([H])C([H])([H])C([H])([H])C2(C([H])([H])[H])C([H])(C([H])([H])C([H])([H])C3([H])C2([H])C([H])([H])C([H])([H])C2(C([H])([H])[H])C([H])(C4([H])N([H])C(=O)C([H])([H])C4([H])[H])C([H])([H])C([H])([H])C32[H])C1([H])[H]

$$$$
26:0:0
     RDKit          3D

 64 73  0  0  1  0  0  0  0  0999 V2000
    5.9212   -7.4580    4.9147 C   0  0  0  0  0  0  0  0  0  0  0  0
    4.3883   -7.5887    4.8681 C   0  0  2  0  0  0  0  0  0  0  0  0
    3.9416   -8.0128    6.1981 N   0  0  0  0  0  0  0  0  0  0  0  0
    3.1703   -7.2684    7.0951 C   0  0  2  0  0  0  0  0  0  0  0  0
    1.9941   -6.3834    6.6940 C   0  0  1  0  0  0  0  0  0  0  0  0
    2.4431   -5.0883    6.0028 C   0  0  0  0  0  0  0  0  0  0  0  0
    1.6598   -4.7081    4.7363 C   0  0  0  0  0  0  0  0  0  0  0  0
    2.2577   -5.1414    3.4073 C   0  0  0  0  0  0  0  0  0  0  0  0
    2.5619   -6.4017    2.8929 C   0  0  0  0  0  0  0  0  0  0  0  0
    2.9938   -6.2248    1.5830 N   0  0  0  0  0  0  0  0  0  0  0  0
    3.0641   -4.8941    1.2349 C   0  0  0  0  0  0  0  0  0  0  0  0
    3.4680   -4.2472    0.0580 C   0  0  0  0  0  0  0  0  0  0  0  0
    3.4349   -2.8414   -0.0137 C   0  0  0  0  0  0  0  0  0  0  0  0
    2.9874   -2.1057    1.0981 C   0  0  0  0  0  0  0  0  0  0  0  0
    2.5709   -2.7696    2.2689 C   0  0  0  0  0  0  0  0  0  0  0  0
    2.6068   -4.1840    2.3787 C   0  0  0  0  0  0  0  0  0  0  0  0
    2.4384   -7.7809    3.3619 C   0  0  0  0  0  0  0  0  0  0  0  0
    1.2234   -8.1897    3.7780 C   0  0  0  0  0  0  0  0  0  0  0  0
    0.6980   -7.3693    4.7258 O   0  0  0  0  0  0  0  0  0  0  0  0
    1.2947   -7.5622    6.0209 C   0  0  1  0  0  0  0  0  0  0  0  0
    2.5303   -8.4456    6.2644 C   0  0  1  0  0  0  0  0  0  0  0  0
    2.6719   -9.8474    5.6160 C   0  0  1  0  0  0  0  0  0  0  0  0
    3.0578  -10.6546    6.7255 O   0  0  0  0  0  0  0  0  0  0  0  0
    1.2973  -10.3594    5.1545 C   0  0  2  0  0  0  0  0  0  0  0  0
    1.0999  -11.6136    4.2753 C   0  0  0  0  0  0  0  0  0  0  0  0
    1.0322  -10.7137    3.0389 C   0  0  0  0  0  0  0  0  0  0  0  0
    0.6585   -9.5846    4.0058 C   0  0  2  0  0  0  0  0  0  0  0  0
    3.6230   -9.8749    4.4319 N   0  0  0  0  0  0  0  0  0  0  0  0
    4.3800  -10.9767    4.1382 C   0  0  0  0  0  0  0  0  0  0  0  0
    4.3169  -12.0375    4.7586 O   0  0  0  0  0  0  0  0  0  0  0  0
    5.3303  -10.9903    2.9382 C   0  0  0  0  0  0  0  0  0  0  0  0
    5.8249   -9.6189    2.5219 C   0  0  0  0  0  0  0  0  0  0  0  0
    4.6534   -8.6423    2.4320 C   0  0  1  0  0  0  0  0  0  0  0  0
    3.8856   -9.0371    1.2987 O   0  0  0  0  0  0  0  0  0  0  0  0
    3.7720   -8.5311    3.7357 C   0  0  2  0  0  0  0  0  0  0  0  0
    3.2365   -7.0117    0.9970 H   0  0  0  0  0  0  0  0  0  0  0  0
    6.3430   -7.1059    3.9740 H   0  0  0  0  0  0  0  0  0  0  0  0
    6.3906   -8.4000    5.1925 H   0  0  0  0  0  0  0  0  0  0  0  0
    6.2198   -6.7290    5.6694 H   0  0  0  0  0  0  0  0  0  0  0  0
    4.0997   -6.5701    4.6971 H   0  0  0  0  0  0  0  0  0  0  0  0
    3.3198   -7.5290    8.1393 H   0  0  0  0  0  0  0  0  0  0  0  0
    1.3969   -6.1326    7.5682 H   0  0  0  0  0  0  0  0  0  0  0  0
    2.3055   -4.2791    6.7242 H   0  0  0  0  0  0  0  0  0  0  0  0
    3.5183   -5.0498    5.8390 H   0  0  0  0  0  0  0  0  0  0  0  0
    0.6100   -4.9862    4.8225 H   0  0  0  0  0  0  0  0  0  0  0  0
    1.6264   -3.6224    4.7455 H   0  0  0  0  0  0  0  0  0  0  0  0
    3.8071   -4.8186   -0.7908 H   0  0  0  0  0  0  0  0  0  0  0  0
    3.7385   -2.3296   -0.9160 H   0  0  0  0  0  0  0  0  0  0  0  0
    2.9398   -1.0266    1.0387 H   0  0  0  0  0  0  0  0  0  0  0  0
    2.2150   -2.1767    3.0971 H   0  0  0  0  0  0  0  0  0  0  0  0
    0.4737   -7.9056    6.6537 H   0  0  0  0  0  0  0  0  0  0  0  0
    2.3635  -11.2658    6.9639 H   0  0  0  0  0  0  0  0  0  0  0  0
    0.5960  -10.4119    5.9921 H   0  0  0  0  0  0  0  0  0  0  0  0
    1.9077  -12.3393    4.2934 H   0  0  0  0  0  0  0  0  0  0  0  0
    0.1490  -12.1090    4.4690 H   0  0  0  0  0  0  0  0  0  0  0  0
    1.9904  -10.6107    2.5392 H   0  0  0  0  0  0  0  0  0  0  0  0
    0.2432  -10.9791    2.3364 H   0  0  0  0  0  0  0  0  0  0  0  0
   -0.4265   -9.5354    4.1174 H   0  0  0  0  0  0  0  0  0  0  0  0
    6.1753  -11.6428    3.1538 H   0  0  0  0  0  0  0  0  0  0  0  0
    4.8056  -11.4560    2.1105 H   0  0  0  0  0  0  0  0  0  0  0  0
    6.5864   -9.2896    3.2219 H   0  0  0  0  0  0  0  0  0  0  0  0
    6.3321   -9.6877    1.5583 H   0  0  0  0  0  0  0  0  0  0  0  0
    5.0615   -7.6632    2.1817 H   0  0  0  0  0  0  0  0  0  0  0  0
    3.8157   -9.9866    1.2851 H   0  0  0  0  0  0  0  0  0  0  0  0
  1  2  1  0
  1 37  1  0
  1 38  1  0
  1 39  1  0
  2 35  1  0
  2  3  1  0
  2 40  1  6
 21  3  1  6
  3  4  1  0
  4 21  1  0
  4  5  1  0
  4 41  1  1
  5 20  1  0
  5  6  1  0
  5 42  1  1
  6  7  1  0
  6 43  1  0
  6 44  1  0
  7  8  1  0
  7 45  1  0
  7 46  1  0
  8 16  1  0
  8  9  2  0
  9 10  1  0
  9 17  1  0
 10 36  1  0
 10 11  1  0
 11 16  2  0
 11 12  1  0
 12 13  2  0
 12 47  1  0
 13 14  1  0
 13 48  1  0
 14 15  2  0
 14 49  1  0
 15 16  1  0
 15 50  1  0
 35 17  1  6
 17 18  2  0
 18 27  1  0
 18 19  1  0
 19 20  1  0
 20 21  1  0
 20 51  1  1
 21 22  1  0
 22 23  1  1
 22 24  1  0
 22 28  1  0
 23 52  1  0
 24 27  1  0
 24 25  1  0
 24 53  1  1
 25 26  1  0
 25 54  1  0
 25 55  1  0
 26 27  1  0
 26 56  1  0
 26 57  1  0
 27 58  1  1
 28 35  1  0
 28 29  1  0
 29 30  2  0
 29 31  1  0
 31 32  1  0
 31 59  1  0
 31 60  1  0
 32 33  1  0
 32 61  1  0
 32 62  1  0
 33 34  1  0
 33 35  1  0
 33 63  1  6
 34 64  1  0
M  END
>  <i_m_ct_stereo_status>  (82) 
1

>  <s_m_source_file>  (82) 
/var/tmp/pbs.5076255.sched01/tmp25ygy55i/01wbi4d2b.sdf

>  <i_m_source_file_index>  (82) 
33

>  <i_lp_mmshare_version>  (82) 
48012

>  <i_f3d_flags>  (82) 
1

>  <s_epik_input>  (82) 
QzEyM040W0NASF0xW0NAQEhdNVtDQEhdMk9DNj1DKFtDQEBdNyhbQ0BASF00W0NIM10pTihbQ0BdMyhbT0hdKVtDQEhdOFtDQEBIXTZbQ0gyXVtDSDJdOClDKD1PKVtDSDJdW0NIMl1bQ0BIXTdbT0hdKWM5YyhbQ0gyXVtDSDJdNSljMWMoW25IXTkpW2NIXVtjSF1bY0hdW2NIXTE=

>  <s_epik_cmdline>  (82) 
J2VwaWtfcHl0aG9uJywgJy1waHQnLCAnMi4wJywgJy1waCcsICc3LjAnLCAnLXRuJywgJzgnLCAnLW1hJywgJzIwMCcsICctaW1hZScsICc8aW5maWxlLm1hZT4nLCAnLW9tYWUnLCAnPG91dGZpbGUubWFlPic=

>  <r_epik_Ionization_Penalty>  (82) 
0.28357

>  <r_epik_Ionization_Penalty_Charging>  (82) 
0

>  <r_epik_Ionization_Penalty_Neutral>  (82) 
0.28357

>  <r_epik_State_Penalty>  (82) 
0.276246

>  <r_epik_Charging_Adjusted_Penalty>  (82) 
0.276246

>  <i_epik_Tot_Q>  (82) 
0

>  <i_epik_Tot_abs_Q>  (82) 
0

>  <s_lp_Force_Field>  (82) 
OPLS3e

>  <r_lp_Energy>  (82) 
162.593

>  <b_lp_Chiralities_Consistent>  (82) 
1

>  <s_lp_Variant>  (82) 
26:0-1

>  <s_i_glide_gridfile>  (82) 
pfpi4k_grid

>  <i_i_glide_lignum>  (82) 
33

>  <i_i_glide_rotatable_bonds>  (82) 
2

>  <r_i_docking_score>  (82) 
-3.22107

>  <r_i_glide_ligand_efficiency>  (82) 
-0.0920305

>  <r_i_glide_ligand_efficiency_sa>  (82) 
-0.301038

>  <r_i_glide_ligand_efficiency_ln>  (82) 
-0.707096

>  <r_i_glide_gscore>  (82) 
-3.22107

>  <r_i_glide_lipo>  (82) 
-0.247724

>  <r_i_glide_hbond>  (82) 
-0.03453

>  <r_i_glide_metal>  (82) 
-0

>  <r_i_glide_rewards>  (82) 
-0.693994

>  <r_i_glide_evdw>  (82) 
-25.94

>  <r_i_glide_ecoul>  (82) 
-5.90651

>  <r_i_glide_erotb>  (82) 
0

>  <r_i_glide_esite>  (82) 
-0.0618437

>  <r_i_glide_emodel>  (82) 
-43.6941

>  <r_i_glide_energy>  (82) 
-31.8465

>  <r_i_glide_einternal>  (82) 
0.738435

>  <r_i_glide_intrahb_reward>  (82) 
-0.5

>  <i_i_glide_confnum>  (82) 
1

>  <i_i_glide_posenum>  (82) 
20

>  <r_i_glide_eff_state_penalty>  (82) 
0

>  <ligand_id>  (82) 
26

>  <original_smiles>  (82) 
CC1N2C3C4CCc5c([nH]c6ccccc56)C5=C6OC4C32C(O)(C2CCC62)N2C(=O)CCC(O)C512

>  <smiles>  (82) 
[H]OC1([H])C([H])([H])C([H])([H])C(=O)N2C3(O[H])C4([H])C([H])([H])C([H])([H])C4([H])C4=C5c6c(c7c([H])c([H])c([H])c([H])c7n6[H])C([H])([H])C([H])([H])C6([H])C([H])(O4)C34N(C([H])(C([H])([H])[H])C521)C64[H]

$$$$
26:0:1
     RDKit          3D

 64 73  0  0  1  0  0  0  0  0999 V2000
    4.7233   -7.9347    5.4209 C   0  0  0  0  0  0  0  0  0  0  0  0
    3.4247   -7.2550    4.9527 C   0  0  2  0  0  0  0  0  0  0  0  0
    2.4939   -7.2641    6.0873 N   0  0  0  0  0  0  0  0  0  0  0  0
    1.9964   -6.1545    6.7828 C   0  0  2  0  0  0  0  0  0  0  0  0
    1.6259   -4.8267    6.1301 C   0  0  1  0  0  0  0  0  0  0  0  0
    2.8487   -4.0198    5.6638 C   0  0  0  0  0  0  0  0  0  0  0  0
    2.7466   -3.4039    4.2552 C   0  0  0  0  0  0  0  0  0  0  0  0
    3.3556   -4.2016    3.1133 C   0  0  0  0  0  0  0  0  0  0  0  0
    3.0840   -5.4789    2.6240 C   0  0  0  0  0  0  0  0  0  0  0  0
    3.8720   -5.6720    1.5002 N   0  0  0  0  0  0  0  0  0  0  0  0
    4.7078   -4.6076    1.2589 C   0  0  0  0  0  0  0  0  0  0  0  0
    5.6795   -4.3728    0.2780 C   0  0  0  0  0  0  0  0  0  0  0  0
    6.4037   -3.1689    0.2890 C   0  0  0  0  0  0  0  0  0  0  0  0
    6.1270   -2.2014    1.2755 C   0  0  0  0  0  0  0  0  0  0  0  0
    5.1363   -2.4430    2.2435 C   0  0  0  0  0  0  0  0  0  0  0  0
    4.4027   -3.6571    2.2752 C   0  0  0  0  0  0  0  0  0  0  0  0
    2.1387   -6.5498    2.9583 C   0  0  0  0  0  0  0  0  0  0  0  0
    0.8386   -6.2337    3.0090 C   0  0  0  0  0  0  0  0  0  0  0  0
    0.6031   -5.1789    3.8354 O   0  0  0  0  0  0  0  0  0  0  0  0
    0.6225   -5.5349    5.2220 C   0  0  1  0  0  0  0  0  0  0  0  0
    1.1056   -6.9033    5.7270 C   0  0  1  0  0  0  0  0  0  0  0  0
    0.6564   -8.2328    5.0670 C   0  0  1  0  0  0  0  0  0  0  0  0
    0.2264   -9.0296    6.1673 O   0  0  0  0  0  0  0  0  0  0  0  0
   -0.6072   -8.0000    4.2168 C   0  0  2  0  0  0  0  0  0  0  0  0
   -1.1932   -9.0368    3.2265 C   0  0  0  0  0  0  0  0  0  0  0  0
   -0.4460   -8.3470    2.0911 C   0  0  0  0  0  0  0  0  0  0  0  0
   -0.4117   -7.1169    2.9892 C   0  0  2  0  0  0  0  0  0  0  0  0
    1.7235   -8.8513    4.1855 N   0  0  0  0  0  0  0  0  0  0  0  0
    1.8375  -10.2026    4.0405 C   0  0  0  0  0  0  0  0  0  0  0  0
    1.0542  -10.9969    4.5684 O   0  0  0  0  0  0  0  0  0  0  0  0
    2.9078  -10.8176    3.1353 C   0  0  0  0  0  0  0  0  0  0  0  0
    4.1396   -9.9442    2.9601 C   0  0  0  0  0  0  0  0  0  0  0  0
    3.7314   -8.5105    2.6218 C   0  0  1  0  0  0  0  0  0  0  0  0
    3.1895   -8.5431    1.3067 O   0  0  0  0  0  0  0  0  0  0  0  0
    2.7331   -7.8414    3.6397 C   0  0  2  0  0  0  0  0  0  0  0  0
    3.8097   -6.5212    0.9506 H   0  0  0  0  0  0  0  0  0  0  0  0
    5.4943   -7.9384    4.6520 H   0  0  0  0  0  0  0  0  0  0  0  0
    4.5382   -8.9551    5.7558 H   0  0  0  0  0  0  0  0  0  0  0  0
    5.1460   -7.3977    6.2718 H   0  0  0  0  0  0  0  0  0  0  0  0
    3.7654   -6.2549    4.7698 H   0  0  0  0  0  0  0  0  0  0  0  0
    1.7301   -6.3526    7.8229 H   0  0  0  0  0  0  0  0  0  0  0  0
    1.0491   -4.2168    6.8174 H   0  0  0  0  0  0  0  0  0  0  0  0
    2.9682   -3.1919    6.3685 H   0  0  0  0  0  0  0  0  0  0  0  0
    3.7865   -4.5548    5.7993 H   0  0  0  0  0  0  0  0  0  0  0  0
    1.7249   -3.0922    4.0369 H   0  0  0  0  0  0  0  0  0  0  0  0
    3.2812   -2.4607    4.3246 H   0  0  0  0  0  0  0  0  0  0  0  0
    5.8757   -5.1187   -0.4752 H   0  0  0  0  0  0  0  0  0  0  0  0
    7.1662   -2.9862   -0.4505 H   0  0  0  0  0  0  0  0  0  0  0  0
    6.6802   -1.2742    1.2893 H   0  0  0  0  0  0  0  0  0  0  0  0
    4.9432   -1.6851    2.9891 H   0  0  0  0  0  0  0  0  0  0  0  0
   -0.3914   -5.3354    5.5800 H   0  0  0  0  0  0  0  0  0  0  0  0
    0.4551   -9.9369    5.9882 H   0  0  0  0  0  0  0  0  0  0  0  0
   -1.4202   -7.5967    4.8381 H   0  0  0  0  0  0  0  0  0  0  0  0
   -0.9274  -10.0827    3.4021 H   0  0  0  0  0  0  0  0  0  0  0  0
   -2.2749   -8.9410    3.1272 H   0  0  0  0  0  0  0  0  0  0  0  0
    0.5163   -8.7993    1.8756 H   0  0  0  0  0  0  0  0  0  0  0  0
   -1.0375   -8.2266    1.1816 H   0  0  0  0  0  0  0  0  0  0  0  0
   -1.2982   -6.5217    2.8083 H   0  0  0  0  0  0  0  0  0  0  0  0
    3.2005  -11.7882    3.5326 H   0  0  0  0  0  0  0  0  0  0  0  0
    2.4616  -11.0150    2.1622 H   0  0  0  0  0  0  0  0  0  0  0  0
    4.7458   -9.9956    3.8585 H   0  0  0  0  0  0  0  0  0  0  0  0
    4.7690  -10.3529    2.1686 H   0  0  0  0  0  0  0  0  0  0  0  0
    4.6425   -7.9145    2.5462 H   0  0  0  0  0  0  0  0  0  0  0  0
    2.5463   -9.2395    1.2678 H   0  0  0  0  0  0  0  0  0  0  0  0
  1  2  1  0
  1 37  1  0
  1 38  1  0
  1 39  1  0
  2 35  1  0
  2  3  1  0
  2 40  1  6
 21  3  1  6
  3  4  1  0
  4 21  1  0
  4  5  1  0
  4 41  1  1
  5 20  1  0
  5  6  1  0
  5 42  1  1
  6  7  1  0
  6 43  1  0
  6 44  1  0
  7  8  1  0
  7 45  1  0
  7 46  1  0
  8 16  1  0
  8  9  2  0
  9 10  1  0
  9 17  1  0
 10 36  1  0
 10 11  1  0
 11 16  2  0
 11 12  1  0
 12 13  2  0
 12 47  1  0
 13 14  1  0
 13 48  1  0
 14 15  2  0
 14 49  1  0
 15 16  1  0
 15 50  1  0
 35 17  1  6
 17 18  2  0
 18 27  1  0
 18 19  1  0
 19 20  1  0
 20 21  1  0
 20 51  1  1
 21 22  1  0
 22 23  1  1
 22 24  1  0
 22 28  1  0
 23 52  1  0
 24 27  1  0
 24 25  1  0
 24 53  1  1
 25 26  1  0
 25 54  1  0
 25 55  1  0
 26 27  1  0
 26 56  1  0
 26 57  1  0
 27 58  1  6
 28 35  1  0
 28 29  1  0
 29 30  2  0
 29 31  1  0
 31 32  1  0
 31 59  1  0
 31 60  1  0
 32 33  1  0
 32 61  1  0
 32 62  1  0
 33 34  1  0
 33 35  1  0
 33 63  1  6
 34 64  1  0
M  END
>  <i_m_ct_stereo_status>  (83) 
1

>  <s_m_source_file>  (83) 
/var/tmp/pbs.5076255.sched01/tmp25ygy55i/01wbi4d2b.sdf

>  <i_m_source_file_index>  (83) 
33

>  <i_lp_mmshare_version>  (83) 
48012

>  <i_f3d_flags>  (83) 
1

>  <s_epik_input>  (83) 
QzEyM040W0NASF0xW0NAQEhdNVtDQEhdMk9DNj1DKFtDQEBdNyhbQ0BASF00W0NIM10pTihbQ0BdMyhbT0hdKVtDQEhdOFtDQEBIXTZbQ0gyXVtDSDJdOClDKD1PKVtDSDJdW0NIMl1bQ0BIXTdbT0hdKWM5YyhbQ0gyXVtDSDJdNSljMWMoW25IXTkpW2NIXVtjSF1bY0hdW2NIXTE=

>  <s_epik_cmdline>  (83) 
J2VwaWtfcHl0aG9uJywgJy1waHQnLCAnMi4wJywgJy1waCcsICc3LjAnLCAnLXRuJywgJzgnLCAnLW1hJywgJzIwMCcsICctaW1hZScsICc8aW5maWxlLm1hZT4nLCAnLW9tYWUnLCAnPG91dGZpbGUubWFlPic=

>  <r_epik_Ionization_Penalty>  (83) 
0.28357

>  <r_epik_Ionization_Penalty_Charging>  (83) 
0

>  <r_epik_Ionization_Penalty_Neutral>  (83) 
0.28357

>  <r_epik_State_Penalty>  (83) 
0.276246

>  <r_epik_Charging_Adjusted_Penalty>  (83) 
0.276246

>  <i_epik_Tot_Q>  (83) 
0

>  <i_epik_Tot_abs_Q>  (83) 
0

>  <s_lp_Force_Field>  (83) 
OPLS3e

>  <r_lp_Energy>  (83) 
162.593

>  <b_lp_Chiralities_Consistent>  (83) 
1

>  <s_lp_Variant>  (83) 
26:0-1

>  <s_i_glide_gridfile>  (83) 
pfpi4k_grid

>  <i_i_glide_lignum>  (83) 
33

>  <i_i_glide_rotatable_bonds>  (83) 
2

>  <r_i_docking_score>  (83) 
-3.08951

>  <r_i_glide_ligand_efficiency>  (83) 
-0.0882716

>  <r_i_glide_ligand_efficiency_sa>  (83) 
-0.288742

>  <r_i_glide_ligand_efficiency_ln>  (83) 
-0.678215

>  <r_i_glide_gscore>  (83) 
-3.08951

>  <r_i_glide_lipo>  (83) 
-0.397639

>  <r_i_glide_hbond>  (83) 
0

>  <r_i_glide_metal>  (83) 
-0

>  <r_i_glide_rewards>  (83) 
-1.19399

>  <r_i_glide_evdw>  (83) 
-30.7461

>  <r_i_glide_ecoul>  (83) 
0.572429

>  <r_i_glide_erotb>  (83) 
0

>  <r_i_glide_esite>  (83) 
-0.046433

>  <r_i_glide_emodel>  (83) 
-46.8053

>  <r_i_glide_energy>  (83) 
-30.1736

>  <r_i_glide_einternal>  (83) 
0.714454

>  <r_i_glide_intrahb_reward>  (83) 
-1

>  <i_i_glide_confnum>  (83) 
1

>  <i_i_glide_posenum>  (83) 
30

>  <r_i_glide_eff_state_penalty>  (83) 
0

>  <ligand_id>  (83) 
26

>  <original_smiles>  (83) 
CC1N2C3C4CCc5c([nH]c6ccccc56)C5=C6OC4C32C(O)(C2CCC62)N2C(=O)CCC(O)C512

>  <smiles>  (83) 
[H]OC1([H])C([H])([H])C([H])([H])C(=O)N2C3(O[H])C4([H])C([H])([H])C([H])([H])C4([H])C4=C5c6c(c7c([H])c([H])c([H])c([H])c7n6[H])C([H])([H])C([H])([H])C6([H])C([H])(O4)C34N(C([H])(C([H])([H])[H])C521)C64[H]

$$$$
26:0:2
     RDKit          3D

 64 73  0  0  1  0  0  0  0  0999 V2000
    5.4417   -7.1449    3.7227 C   0  0  0  0  0  0  0  0  0  0  0  0
    4.1130   -6.5250    4.1900 C   0  0  2  0  0  0  0  0  0  0  0  0
    3.9325   -6.8790    5.6014 N   0  0  0  0  0  0  0  0  0  0  0  0
    3.9257   -5.9918    6.6831 C   0  0  2  0  0  0  0  0  0  0  0  0
    3.2832   -4.6067    6.6659 C   0  0  1  0  0  0  0  0  0  0  0  0
    4.0878   -3.5950    5.8359 C   0  0  0  0  0  0  0  0  0  0  0  0
    3.2600   -2.7105    4.8869 C   0  0  0  0  0  0  0  0  0  0  0  0
    3.1416   -3.1761    3.4466 C   0  0  0  0  0  0  0  0  0  0  0  0
    2.6172   -4.3442    2.8901 C   0  0  0  0  0  0  0  0  0  0  0  0
    2.6779   -4.2104    1.5085 N   0  0  0  0  0  0  0  0  0  0  0  0
    3.2803   -3.0367    1.1225 C   0  0  0  0  0  0  0  0  0  0  0  0
    3.5828   -2.5000   -0.1377 C   0  0  0  0  0  0  0  0  0  0  0  0
    4.2248   -1.2510   -0.2259 C   0  0  0  0  0  0  0  0  0  0  0  0
    4.5440   -0.5521    0.9524 C   0  0  0  0  0  0  0  0  0  0  0  0
    4.2225   -1.0968    2.2110 C   0  0  0  0  0  0  0  0  0  0  0  0
    3.5886   -2.3620    2.3365 C   0  0  0  0  0  0  0  0  0  0  0  0
    1.9777   -5.5509    3.4148 C   0  0  0  0  0  0  0  0  0  0  0  0
    0.9066   -5.3962    4.2082 C   0  0  0  0  0  0  0  0  0  0  0  0
    1.1549   -4.5747    5.2609 O   0  0  0  0  0  0  0  0  0  0  0  0
    1.9323   -5.2075    6.2874 C   0  0  1  0  0  0  0  0  0  0  0  0
    2.5816   -6.5916    6.1295 C   0  0  1  0  0  0  0  0  0  0  0  0
    1.8172   -7.7887    5.5097 C   0  0  1  0  0  0  0  0  0  0  0  0
    2.0070   -8.8366    6.4545 O   0  0  0  0  0  0  0  0  0  0  0  0
    0.3027   -7.5214    5.5289 C   0  0  2  0  0  0  0  0  0  0  0  0
   -0.7411   -8.3940    4.7766 C   0  0  0  0  0  0  0  0  0  0  0  0
   -0.7164   -7.3963    3.6178 C   0  0  0  0  0  0  0  0  0  0  0  0
   -0.1746   -6.3825    4.6365 C   0  0  2  0  0  0  0  0  0  0  0  0
    2.2262   -8.0888    4.0845 N   0  0  0  0  0  0  0  0  0  0  0  0
    2.2118   -9.3639    3.5859 C   0  0  0  0  0  0  0  0  0  0  0  0
    1.8184  -10.3302    4.2414 O   0  0  0  0  0  0  0  0  0  0  0  0
    2.6070   -9.6548    2.1358 C   0  0  0  0  0  0  0  0  0  0  0  0
    3.5692   -8.6346    1.5500 C   0  0  0  0  0  0  0  0  0  0  0  0
    3.0766   -7.2112    1.8348 C   0  0  1  0  0  0  0  0  0  0  0  0
    1.8860   -7.0005    1.0839 O   0  0  0  0  0  0  0  0  0  0  0  0
    2.8095   -6.8880    3.3478 C   0  0  2  0  0  0  0  0  0  0  0  0
    2.3278   -4.9297    0.8885 H   0  0  0  0  0  0  0  0  0  0  0  0
    5.6775   -6.9028    2.6874 H   0  0  0  0  0  0  0  0  0  0  0  0
    5.4422   -8.2256    3.8536 H   0  0  0  0  0  0  0  0  0  0  0  0
    6.2679   -6.7571    4.3203 H   0  0  0  0  0  0  0  0  0  0  0  0
    4.3253   -5.4768    4.0965 H   0  0  0  0  0  0  0  0  0  0  0  0
    4.2405   -6.4343    7.6283 H   0  0  0  0  0  0  0  0  0  0  0  0
    3.1819   -4.2282    7.6792 H   0  0  0  0  0  0  0  0  0  0  0  0
    4.5863   -2.9260    6.5448 H   0  0  0  0  0  0  0  0  0  0  0  0
    4.9402   -4.0431    5.3265 H   0  0  0  0  0  0  0  0  0  0  0  0
    2.2893   -2.4713    5.3187 H   0  0  0  0  0  0  0  0  0  0  0  0
    3.7707   -1.7518    4.8818 H   0  0  0  0  0  0  0  0  0  0  0  0
    3.3221   -3.0345   -1.0364 H   0  0  0  0  0  0  0  0  0  0  0  0
    4.4620   -0.8261   -1.1902 H   0  0  0  0  0  0  0  0  0  0  0  0
    5.0298    0.4105    0.8808 H   0  0  0  0  0  0  0  0  0  0  0  0
    4.4732   -0.5355    3.0977 H   0  0  0  0  0  0  0  0  0  0  0  0
    1.2825   -5.2015    7.1653 H   0  0  0  0  0  0  0  0  0  0  0  0
    1.7676   -9.6645    6.0535 H   0  0  0  0  0  0  0  0  0  0  0  0
   -0.0484   -7.3512    6.5557 H   0  0  0  0  0  0  0  0  0  0  0  0
   -0.4466   -9.4198    4.5478 H   0  0  0  0  0  0  0  0  0  0  0  0
   -1.7242   -8.4013    5.2444 H   0  0  0  0  0  0  0  0  0  0  0  0
   -0.0324   -7.6900    2.8327 H   0  0  0  0  0  0  0  0  0  0  0  0
   -1.7071   -7.1599    3.2310 H   0  0  0  0  0  0  0  0  0  0  0  0
   -0.9936   -5.8444    5.1088 H   0  0  0  0  0  0  0  0  0  0  0  0
    3.0522  -10.6495    2.0815 H   0  0  0  0  0  0  0  0  0  0  0  0
    1.6990   -9.7002    1.5339 H   0  0  0  0  0  0  0  0  0  0  0  0
    4.5630   -8.8128    1.9518 H   0  0  0  0  0  0  0  0  0  0  0  0
    3.6784   -8.8005    0.4780 H   0  0  0  0  0  0  0  0  0  0  0  0
    3.8195   -6.5228    1.4265 H   0  0  0  0  0  0  0  0  0  0  0  0
    1.3421   -7.7731    1.1750 H   0  0  0  0  0  0  0  0  0  0  0  0
  1  2  1  0
  1 37  1  0
  1 38  1  0
  1 39  1  0
  2 35  1  0
  2  3  1  0
  2 40  1  1
 21  3  1  6
  3  4  1  0
  4 21  1  0
  4  5  1  0
  4 41  1  1
  5 20  1  0
  5  6  1  0
  5 42  1  1
  6  7  1  0
  6 43  1  0
  6 44  1  0
  7  8  1  0
  7 45  1  0
  7 46  1  0
  8 16  1  0
  8  9  2  0
  9 10  1  0
  9 17  1  0
 10 36  1  0
 10 11  1  0
 11 16  2  0
 11 12  1  0
 12 13  2  0
 12 47  1  0
 13 14  1  0
 13 48  1  0
 14 15  2  0
 14 49  1  0
 15 16  1  0
 15 50  1  0
 35 17  1  6
 17 18  2  0
 18 27  1  0
 18 19  1  0
 19 20  1  0
 20 21  1  0
 20 51  1  1
 21 22  1  0
 22 23  1  1
 22 24  1  0
 22 28  1  0
 23 52  1  0
 24 27  1  0
 24 25  1  0
 24 53  1  1
 25 26  1  0
 25 54  1  0
 25 55  1  0
 26 27  1  0
 26 56  1  0
 26 57  1  0
 27 58  1  1
 28 35  1  0
 28 29  1  0
 29 30  2  0
 29 31  1  0
 31 32  1  0
 31 59  1  0
 31 60  1  0
 32 33  1  0
 32 61  1  0
 32 62  1  0
 33 34  1  0
 33 35  1  0
 33 63  1  6
 34 64  1  0
M  END
>  <i_m_ct_stereo_status>  (84) 
1

>  <s_m_source_file>  (84) 
/var/tmp/pbs.5076255.sched01/tmp25ygy55i/01wbi4d2b.sdf

>  <i_m_source_file_index>  (84) 
33

>  <i_lp_mmshare_version>  (84) 
48012

>  <i_f3d_flags>  (84) 
1

>  <s_epik_input>  (84) 
QzEyM040W0NASF0xW0NAQEhdNVtDQEhdMk9DNj1DKFtDQEBdNyhbQ0BASF00W0NIM10pTihbQ0BdMyhbT0hdKVtDQEhdOFtDQEBIXTZbQ0gyXVtDSDJdOClDKD1PKVtDSDJdW0NIMl1bQ0BIXTdbT0hdKWM5YyhbQ0gyXVtDSDJdNSljMWMoW25IXTkpW2NIXVtjSF1bY0hdW2NIXTE=

>  <s_epik_cmdline>  (84) 
J2VwaWtfcHl0aG9uJywgJy1waHQnLCAnMi4wJywgJy1waCcsICc3LjAnLCAnLXRuJywgJzgnLCAnLW1hJywgJzIwMCcsICctaW1hZScsICc8aW5maWxlLm1hZT4nLCAnLW9tYWUnLCAnPG91dGZpbGUubWFlPic=

>  <r_epik_Ionization_Penalty>  (84) 
0.28357

>  <r_epik_Ionization_Penalty_Charging>  (84) 
0

>  <r_epik_Ionization_Penalty_Neutral>  (84) 
0.28357

>  <r_epik_State_Penalty>  (84) 
0.276246

>  <r_epik_Charging_Adjusted_Penalty>  (84) 
0.276246

>  <i_epik_Tot_Q>  (84) 
0

>  <i_epik_Tot_abs_Q>  (84) 
0

>  <s_lp_Force_Field>  (84) 
OPLS3e

>  <r_lp_Energy>  (84) 
162.593

>  <b_lp_Chiralities_Consistent>  (84) 
1

>  <s_lp_Variant>  (84) 
26:0-1

>  <s_i_glide_gridfile>  (84) 
pfpi4k_grid

>  <i_i_glide_lignum>  (84) 
33

>  <i_i_glide_rotatable_bonds>  (84) 
2

>  <r_i_docking_score>  (84) 
-2.75146

>  <r_i_glide_ligand_efficiency>  (84) 
-0.0786132

>  <r_i_glide_ligand_efficiency_sa>  (84) 
-0.257149

>  <r_i_glide_ligand_efficiency_ln>  (84) 
-0.604007

>  <r_i_glide_gscore>  (84) 
-2.75146

>  <r_i_glide_lipo>  (84) 
-0.184212

>  <r_i_glide_hbond>  (84) 
0

>  <r_i_glide_metal>  (84) 
-0

>  <r_i_glide_rewards>  (84) 
-1.19399

>  <r_i_glide_evdw>  (84) 
-27.2095

>  <r_i_glide_ecoul>  (84) 
0.129967

>  <r_i_glide_erotb>  (84) 
0

>  <r_i_glide_esite>  (84) 
-0.0322737

>  <r_i_glide_emodel>  (84) 
-42.715

>  <r_i_glide_energy>  (84) 
-27.0796

>  <r_i_glide_einternal>  (84) 
0.957371

>  <r_i_glide_intrahb_reward>  (84) 
-1

>  <i_i_glide_confnum>  (84) 
2

>  <i_i_glide_posenum>  (84) 
28

>  <r_i_glide_eff_state_penalty>  (84) 
0

>  <ligand_id>  (84) 
26

>  <original_smiles>  (84) 
CC1N2C3C4CCc5c([nH]c6ccccc56)C5=C6OC4C32C(O)(C2CCC62)N2C(=O)CCC(O)C512

>  <smiles>  (84) 
[H]OC1([H])C([H])([H])C([H])([H])C(=O)N2C3(O[H])C4([H])C([H])([H])C([H])([H])C4([H])C4=C5c6c(c7c([H])c([H])c([H])c([H])c7n6[H])C([H])([H])C([H])([H])C6([H])C([H])(O4)C34N(C([H])(C([H])([H])[H])C521)C64[H]

$$$$
26:1:0
     RDKit          3D

 65 74  0  0  1  0  0  0  0  0999 V2000
    3.6921  -10.3848    6.6904 C   0  0  0  0  0  0  0  0  0  0  0  0
    3.5062   -9.6702    5.3476 C   0  0  2  0  0  0  0  0  0  0  0  0
    3.4111  -10.7293    4.3014 N   0  0  1  0  0  0  0  0  0  0  0  0
    2.3751  -11.0850    3.4257 C   0  0  2  0  0  0  0  0  0  0  0  0
    1.4473  -10.0293    2.8435 C   0  0  1  0  0  0  0  0  0  0  0  0
    0.5129   -9.3964    3.8850 C   0  0  0  0  0  0  0  0  0  0  0  0
    0.3721   -7.8655    3.7915 C   0  0  0  0  0  0  0  0  0  0  0  0
    1.2719   -7.0103    4.6647 C   0  0  0  0  0  0  0  0  0  0  0  0
    2.6591   -6.9079    4.7539 C   0  0  0  0  0  0  0  0  0  0  0  0
    2.9486   -5.8784    5.6373 N   0  0  0  0  0  0  0  0  0  0  0  0
    1.8161   -5.3366    6.1923 C   0  0  0  0  0  0  0  0  0  0  0  0
    1.6194   -4.3102    7.1430 C   0  0  0  0  0  0  0  0  0  0  0  0
    0.3142   -3.9762    7.5398 C   0  0  0  0  0  0  0  0  0  0  0  0
   -0.7805   -4.6506    6.9748 C   0  0  0  0  0  0  0  0  0  0  0  0
   -0.5666   -5.6599    6.0133 C   0  0  0  0  0  0  0  0  0  0  0  0
    0.7355   -6.0406    5.6022 C   0  0  0  0  0  0  0  0  0  0  0  0
    3.7964   -7.5530    4.0946 C   0  0  0  0  0  0  0  0  0  0  0  0
    3.8597   -7.4774    2.7487 C   0  0  0  0  0  0  0  0  0  0  0  0
    2.7275   -7.9169    2.1583 O   0  0  0  0  0  0  0  0  0  0  0  0
    2.6282   -9.3509    2.1573 C   0  0  1  0  0  0  0  0  0  0  0  0
    3.6098  -10.2648    2.9076 C   0  0  1  0  0  0  0  0  0  0  0  0
    5.1377  -10.0492    2.9040 C   0  0  1  0  0  0  0  0  0  0  0  0
    5.6220  -11.3600    2.6252 O   0  0  0  0  0  0  0  0  0  0  0  0
    5.5483   -9.1478    1.7214 C   0  0  2  0  0  0  0  0  0  0  0  0
    6.9557   -8.5235    1.5360 C   0  0  0  0  0  0  0  0  0  0  0  0
    6.4391   -7.2349    2.1711 C   0  0  0  0  0  0  0  0  0  0  0  0
    5.0327   -7.7109    1.7863 C   0  0  2  0  0  0  0  0  0  0  0  0
    5.6499   -9.4272    4.1903 N   0  0  0  0  0  0  0  0  0  0  0  0
    6.9122   -9.6895    4.6704 C   0  0  0  0  0  0  0  0  0  0  0  0
    7.7169  -10.4131    4.0932 O   0  0  0  0  0  0  0  0  0  0  0  0
    7.4351   -9.0083    5.9369 C   0  0  0  0  0  0  0  0  0  0  0  0
    6.3463   -8.5858    6.9061 C   0  0  0  0  0  0  0  0  0  0  0  0
    5.2413   -7.8317    6.1643 C   0  0  1  0  0  0  0  0  0  0  0  0
    5.7871   -6.5794    5.7662 O   0  0  0  0  0  0  0  0  0  0  0  0
    4.6107   -8.6008    4.9391 C   0  0  2  0  0  0  0  0  0  0  0  0
    3.9024   -5.5911    5.8240 H   0  0  0  0  0  0  0  0  0  0  0  0
    3.6957   -9.6839    7.5282 H   0  0  0  0  0  0  0  0  0  0  0  0
    4.5896  -11.0007    6.7187 H   0  0  0  0  0  0  0  0  0  0  0  0
    2.8512  -11.0517    6.8642 H   0  0  0  0  0  0  0  0  0  0  0  0
    2.5537   -9.2039    5.4919 H   0  0  0  0  0  0  0  0  0  0  0  0
    2.3804  -12.0982    3.0367 H   0  0  0  0  0  0  0  0  0  0  0  0
    0.8377  -10.4573    2.0497 H   0  0  0  0  0  0  0  0  0  0  0  0
   -0.4801   -9.8200    3.7044 H   0  0  0  0  0  0  0  0  0  0  0  0
    0.6988   -9.7412    4.9012 H   0  0  0  0  0  0  0  0  0  0  0  0
    0.4019   -7.5469    2.7486 H   0  0  0  0  0  0  0  0  0  0  0  0
   -0.6569   -7.6733    4.0858 H   0  0  0  0  0  0  0  0  0  0  0  0
    2.4637   -3.8013    7.5706 H   0  0  0  0  0  0  0  0  0  0  0  0
    0.1603   -3.2050    8.2848 H   0  0  0  0  0  0  0  0  0  0  0  0
   -1.7890   -4.4060    7.2817 H   0  0  0  0  0  0  0  0  0  0  0  0
   -1.4240   -6.1682    5.5949 H   0  0  0  0  0  0  0  0  0  0  0  0
    2.6268   -9.6141    1.0983 H   0  0  0  0  0  0  0  0  0  0  0  0
    5.1575  -11.7187    1.8686 H   0  0  0  0  0  0  0  0  0  0  0  0
    5.2309   -9.5990    0.7747 H   0  0  0  0  0  0  0  0  0  0  0  0
    7.7519   -8.9915    2.0918 H   0  0  0  0  0  0  0  0  0  0  0  0
    7.2300   -8.4077    0.4906 H   0  0  0  0  0  0  0  0  0  0  0  0
    6.6269   -7.1694    3.2370 H   0  0  0  0  0  0  0  0  0  0  0  0
    6.7496   -6.3247    1.6606 H   0  0  0  0  0  0  0  0  0  0  0  0
    4.7661   -7.3378    0.7988 H   0  0  0  0  0  0  0  0  0  0  0  0
    8.1212   -9.6873    6.4438 H   0  0  0  0  0  0  0  0  0  0  0  0
    8.0318   -8.1438    5.6421 H   0  0  0  0  0  0  0  0  0  0  0  0
    5.9682   -9.4609    7.4271 H   0  0  0  0  0  0  0  0  0  0  0  0
    6.7678   -7.9551    7.6899 H   0  0  0  0  0  0  0  0  0  0  0  0
    4.4622   -7.5918    6.8900 H   0  0  0  0  0  0  0  0  0  0  0  0
    6.5310   -6.7438    5.1982 H   0  0  0  0  0  0  0  0  0  0  0  0
    3.9714  -11.5366    4.5116 H   0  0  0  0  0  0  0  0  0  0  0  0
  1  2  1  0
  1 37  1  0
  1 38  1  0
  1 39  1  0
  2 35  1  0
  2  3  1  0
  2 40  1  1
  3 21  1  0
  3  4  1  0
  3 65  1  1
  4 21  1  0
  4  5  1  0
  4 41  1  6
  5 20  1  0
  5  6  1  0
  5 42  1  6
  6  7  1  0
  6 43  1  0
  6 44  1  0
  7  8  1  0
  7 45  1  0
  7 46  1  0
  8 16  1  0
  8  9  2  0
  9 10  1  0
  9 17  1  0
 10 36  1  0
 10 11  1  0
 11 16  2  0
 11 12  1  0
 12 13  2  0
 12 47  1  0
 13 14  1  0
 13 48  1  0
 14 15  2  0
 14 49  1  0
 15 16  1  0
 15 50  1  0
 35 17  1  6
 17 18  2  0
 18 27  1  0
 18 19  1  0
 19 20  1  0
 20 21  1  0
 20 51  1  6
 21 22  1  6
 22 23  1  6
 22 24  1  0
 22 28  1  0
 23 52  1  0
 24 27  1  0
 24 25  1  0
 24 53  1  6
 25 26  1  0
 25 54  1  0
 25 55  1  0
 26 27  1  0
 26 56  1  0
 26 57  1  0
 27 58  1  6
 28 35  1  0
 28 29  1  0
 29 30  2  0
 29 31  1  0
 31 32  1  0
 31 59  1  0
 31 60  1  0
 32 33  1  0
 32 61  1  0
 32 62  1  0
 33 34  1  0
 33 35  1  0
 33 63  1  1
 34 64  1  0
M  CHG  1   3   1
M  END
>  <i_m_ct_stereo_status>  (85) 
1

>  <s_m_source_file>  (85) 
/var/tmp/pbs.5076255.sched01/tmp25ygy55i/01wbi4d2b.sdf

>  <i_m_source_file_index>  (85) 
34

>  <i_lp_mmshare_version>  (85) 
48012

>  <i_f3d_flags>  (85) 
1

>  <s_epik_input>  (85) 
QzEyM040W0NASF0xW0NAQEhdNVtDQEhdMk9DNj1DKFtDQEBdNyhbQ0BASF00W0NIM10pTihbQ0BdMyhbT0hdKVtDQEhdOFtDQEBIXTZbQ0gyXVtDSDJdOClDKD1PKVtDSDJdW0NIMl1bQ0BIXTdbT0hdKWM5YyhbQ0gyXVtDSDJdNSljMWMoW25IXTkpW2NIXVtjSF1bY0hdW2NIXTE=

>  <s_epik_cmdline>  (85) 
J2VwaWtfcHl0aG9uJywgJy1waHQnLCAnMi4wJywgJy1waCcsICc3LjAnLCAnLXRuJywgJzgnLCAnLW1hJywgJzIwMCcsICctaW1hZScsICc8aW5maWxlLm1hZT4nLCAnLW9tYWUnLCAnPG91dGZpbGUubWFlPic=

>  <r_epik_Ionization_Penalty>  (85) 
0.573323

>  <r_epik_Ionization_Penalty_Charging>  (85) 
0.572757

>  <r_epik_Ionization_Penalty_Neutral>  (85) 
0.000566013

>  <r_epik_State_Penalty>  (85) 
0.584854

>  <r_epik_Charging_Adjusted_Penalty>  (85) 
1.15761

>  <i_epik_Tot_Q>  (85) 
1

>  <i_epik_Tot_abs_Q>  (85) 
1

>  <s_lp_Force_Field>  (85) 
OPLS3e

>  <r_lp_Energy>  (85) 
181.311

>  <b_lp_Chiralities_Consistent>  (85) 
1

>  <s_lp_Variant>  (85) 
26:0-2

>  <s_i_glide_gridfile>  (85) 
pfpi4k_grid

>  <i_i_glide_lignum>  (85) 
34

>  <i_i_glide_rotatable_bonds>  (85) 
2

>  <r_i_docking_score>  (85) 
-3.38206

>  <r_i_glide_ligand_efficiency>  (85) 
-0.0966302

>  <r_i_glide_ligand_efficiency_sa>  (85) 
-0.316084

>  <r_i_glide_ligand_efficiency_ln>  (85) 
-0.742437

>  <r_i_glide_gscore>  (85) 
-3.38206

>  <r_i_glide_lipo>  (85) 
-0.40364

>  <r_i_glide_hbond>  (85) 
0

>  <r_i_glide_metal>  (85) 
-0

>  <r_i_glide_rewards>  (85) 
-0.687122

>  <r_i_glide_evdw>  (85) 
-24.0631

>  <r_i_glide_ecoul>  (85) 
-6.94671

>  <r_i_glide_erotb>  (85) 
0

>  <r_i_glide_esite>  (85) 
-0.0461343

>  <r_i_glide_emodel>  (85) 
-44.9187

>  <r_i_glide_energy>  (85) 
-31.0098

>  <r_i_glide_einternal>  (85) 
0.0429085

>  <r_i_glide_intrahb_reward>  (85) 
-0.5

>  <i_i_glide_confnum>  (85) 
1

>  <i_i_glide_posenum>  (85) 
15

>  <r_i_glide_eff_state_penalty>  (85) 
0

>  <ligand_id>  (85) 
26

>  <original_smiles>  (85) 
CC1N2C3C4CCc5c([nH]c6ccccc56)C5=C6OC4C32C(O)(C2CCC62)N2C(=O)CCC(O)C512

>  <smiles>  (85) 
[H]OC1([H])C([H])([H])C([H])([H])C(=O)N2C3(O[H])C4([H])C([H])([H])C([H])([H])C4([H])C4=C5c6c(c7c([H])c([H])c([H])c([H])c7n6[H])C([H])([H])C([H])([H])C6([H])C([H])(O4)C34C6([H])[N+]4([H])C([H])(C([H])([H])[H])C521

$$$$
26:1:1
     RDKit          3D

 65 74  0  0  1  0  0  0  0  0999 V2000
    3.5272   -9.3462    5.9877 C   0  0  0  0  0  0  0  0  0  0  0  0
    3.0349   -8.4361    4.8512 C   0  0  2  0  0  0  0  0  0  0  0  0
    2.8175   -9.3032    3.6651 N   0  0  1  0  0  0  0  0  0  0  0  0
    1.6707   -9.6044    2.9089 C   0  0  2  0  0  0  0  0  0  0  0  0
    0.5556   -8.5872    2.7266 C   0  0  1  0  0  0  0  0  0  0  0  0
   -0.2014   -8.2441    4.0243 C   0  0  0  0  0  0  0  0  0  0  0  0
   -0.4674   -6.7377    4.2469 C   0  0  0  0  0  0  0  0  0  0  0  0
    0.5234   -5.9503    5.0851 C   0  0  0  0  0  0  0  0  0  0  0  0
    1.8839   -5.7139    4.9308 C   0  0  0  0  0  0  0  0  0  0  0  0
    2.2705   -4.8209    5.9328 N   0  0  0  0  0  0  0  0  0  0  0  0
    1.2245   -4.5085    6.7715 C   0  0  0  0  0  0  0  0  0  0  0  0
    1.1515   -3.6823    7.9096 C   0  0  0  0  0  0  0  0  0  0  0  0
   -0.0782   -3.5730    8.5926 C   0  0  0  0  0  0  0  0  0  0  0  0
   -1.2043   -4.2550    8.1203 C   0  0  0  0  0  0  0  0  0  0  0  0
   -1.1187   -5.0431    6.9546 C   0  0  0  0  0  0  0  0  0  0  0  0
    0.1100   -5.2115    6.2641 C   0  0  0  0  0  0  0  0  0  0  0  0
    2.9163   -6.1089    3.9876 C   0  0  0  0  0  0  0  0  0  0  0  0
    2.7072   -5.8008    2.6692 C   0  0  0  0  0  0  0  0  0  0  0  0
    1.5108   -6.2636    2.2272 O   0  0  0  0  0  0  0  0  0  0  0  0
    1.5331   -7.6788    1.9828 C   0  0  1  0  0  0  0  0  0  0  0  0
    2.7099   -8.5880    2.3655 C   0  0  1  0  0  0  0  0  0  0  0  0
    4.1964   -8.2173    2.1240 C   0  0  1  0  0  0  0  0  0  0  0  0
    4.7389   -9.4023    1.5426 O   0  0  0  0  0  0  0  0  0  0  0  0
    4.2797   -7.0816    1.0764 C   0  0  2  0  0  0  0  0  0  0  0  0
    5.5654   -6.2815    0.7657 C   0  0  0  0  0  0  0  0  0  0  0  0
    5.0898   -5.1794    1.7172 C   0  0  0  0  0  0  0  0  0  0  0  0
    3.6798   -5.7446    1.5004 C   0  0  2  0  0  0  0  0  0  0  0  0
    4.8897   -7.7620    3.3970 N   0  0  0  0  0  0  0  0  0  0  0  0
    6.2452   -7.9644    3.5769 C   0  0  0  0  0  0  0  0  0  0  0  0
    6.9633   -8.4872    2.7434 O   0  0  0  0  0  0  0  0  0  0  0  0
    6.9477   -7.4506    4.8354 C   0  0  0  0  0  0  0  0  0  0  0  0
    6.0389   -7.3190    6.0467 C   0  0  0  0  0  0  0  0  0  0  0  0
    4.7558   -6.5726    5.6710 C   0  0  1  0  0  0  0  0  0  0  0  0
    5.1205   -5.2226    5.4131 O   0  0  0  0  0  0  0  0  0  0  0  0
    3.9608   -7.1864    4.4546 C   0  0  2  0  0  0  0  0  0  0  0  0
    3.2152   -4.4743    5.9885 H   0  0  0  0  0  0  0  0  0  0  0  0
    3.6510   -8.7953    6.9171 H   0  0  0  0  0  0  0  0  0  0  0  0
    4.4576   -9.8542    5.7352 H   0  0  0  0  0  0  0  0  0  0  0  0
    2.7826  -10.1215    6.1970 H   0  0  0  0  0  0  0  0  0  0  0  0
    2.0937   -8.0997    5.2458 H   0  0  0  0  0  0  0  0  0  0  0  0
    1.6508  -10.5616    2.3778 H   0  0  0  0  0  0  0  0  0  0  0  0
   -0.1488   -8.9356    1.9962 H   0  0  0  0  0  0  0  0  0  0  0  0
   -1.1738   -8.7374    3.9448 H   0  0  0  0  0  0  0  0  0  0  0  0
    0.2097   -8.7300    4.9028 H   0  0  0  0  0  0  0  0  0  0  0  0
   -0.6527   -6.2485    3.2888 H   0  0  0  0  0  0  0  0  0  0  0  0
   -1.4307   -6.7128    4.7466 H   0  0  0  0  0  0  0  0  0  0  0  0
    2.0168   -3.1651    8.2704 H   0  0  0  0  0  0  0  0  0  0  0  0
   -0.1398   -2.9661    9.4867 H   0  0  0  0  0  0  0  0  0  0  0  0
   -2.1453   -4.1929    8.6405 H   0  0  0  0  0  0  0  0  0  0  0  0
   -2.0041   -5.5347    6.6003 H   0  0  0  0  0  0  0  0  0  0  0  0
    1.3322   -7.7537    0.9036 H   0  0  0  0  0  0  0  0  0  0  0  0
    4.0692   -9.9944    1.2275 H   0  0  0  0  0  0  0  0  0  0  0  0
    3.8269   -7.4079    0.1297 H   0  0  0  0  0  0  0  0  0  0  0  0
    6.5121   -6.7586    1.0199 H   0  0  0  0  0  0  0  0  0  0  0  0
    5.5780   -5.9357   -0.2602 H   0  0  0  0  0  0  0  0  0  0  0  0
    5.4920   -5.2880    2.7161 H   0  0  0  0  0  0  0  0  0  0  0  0
    5.2359   -4.1717    1.3262 H   0  0  0  0  0  0  0  0  0  0  0  0
    3.2077   -5.2504    0.6578 H   0  0  0  0  0  0  0  0  0  0  0  0
    7.7685   -8.1296    5.0727 H   0  0  0  0  0  0  0  0  0  0  0  0
    7.4093   -6.4901    4.6010 H   0  0  0  0  0  0  0  0  0  0  0  0
    5.8392   -8.3081    6.4525 H   0  0  0  0  0  0  0  0  0  0  0  0
    6.5595   -6.7873    6.8413 H   0  0  0  0  0  0  0  0  0  0  0  0
    4.1195   -6.5527    6.5535 H   0  0  0  0  0  0  0  0  0  0  0  0
    5.7568   -5.2122    4.7136 H   0  0  0  0  0  0  0  0  0  0  0  0
    3.4810  -10.0638    3.6107 H   0  0  0  0  0  0  0  0  0  0  0  0
  1  2  1  0
  1 37  1  0
  1 38  1  0
  1 39  1  0
  2 35  1  0
  2  3  1  0
  2 40  1  1
  3 21  1  0
  3  4  1  0
  3 65  1  6
  4 21  1  0
  4  5  1  0
  4 41  1  6
  5 20  1  0
  5  6  1  0
  5 42  1  6
  6  7  1  0
  6 43  1  0
  6 44  1  0
  7  8  1  0
  7 45  1  0
  7 46  1  0
  8 16  1  0
  8  9  2  0
  9 10  1  0
  9 17  1  0
 10 36  1  0
 10 11  1  0
 11 16  2  0
 11 12  1  0
 12 13  2  0
 12 47  1  0
 13 14  1  0
 13 48  1  0
 14 15  2  0
 14 49  1  0
 15 16  1  0
 15 50  1  0
 35 17  1  6
 17 18  2  0
 18 27  1  0
 18 19  1  0
 19 20  1  0
 20 21  1  0
 20 51  1  6
 21 22  1  6
 22 23  1  6
 22 24  1  0
 22 28  1  0
 23 52  1  0
 24 27  1  0
 24 25  1  0
 24 53  1  6
 25 26  1  0
 25 54  1  0
 25 55  1  0
 26 27  1  0
 26 56  1  0
 26 57  1  0
 27 58  1  6
 28 35  1  0
 28 29  1  0
 29 30  2  0
 29 31  1  0
 31 32  1  0
 31 59  1  0
 31 60  1  0
 32 33  1  0
 32 61  1  0
 32 62  1  0
 33 34  1  0
 33 35  1  0
 33 63  1  1
 34 64  1  0
M  CHG  1   3   1
M  END
>  <i_m_ct_stereo_status>  (86) 
1

>  <s_m_source_file>  (86) 
/var/tmp/pbs.5076255.sched01/tmp25ygy55i/01wbi4d2b.sdf

>  <i_m_source_file_index>  (86) 
34

>  <i_lp_mmshare_version>  (86) 
48012

>  <i_f3d_flags>  (86) 
1

>  <s_epik_input>  (86) 
QzEyM040W0NASF0xW0NAQEhdNVtDQEhdMk9DNj1DKFtDQEBdNyhbQ0BASF00W0NIM10pTihbQ0BdMyhbT0hdKVtDQEhdOFtDQEBIXTZbQ0gyXVtDSDJdOClDKD1PKVtDSDJdW0NIMl1bQ0BIXTdbT0hdKWM5YyhbQ0gyXVtDSDJdNSljMWMoW25IXTkpW2NIXVtjSF1bY0hdW2NIXTE=

>  <s_epik_cmdline>  (86) 
J2VwaWtfcHl0aG9uJywgJy1waHQnLCAnMi4wJywgJy1waCcsICc3LjAnLCAnLXRuJywgJzgnLCAnLW1hJywgJzIwMCcsICctaW1hZScsICc8aW5maWxlLm1hZT4nLCAnLW9tYWUnLCAnPG91dGZpbGUubWFlPic=

>  <r_epik_Ionization_Penalty>  (86) 
0.573323

>  <r_epik_Ionization_Penalty_Charging>  (86) 
0.572757

>  <r_epik_Ionization_Penalty_Neutral>  (86) 
0.000566013

>  <r_epik_State_Penalty>  (86) 
0.584854

>  <r_epik_Charging_Adjusted_Penalty>  (86) 
1.15761

>  <i_epik_Tot_Q>  (86) 
1

>  <i_epik_Tot_abs_Q>  (86) 
1

>  <s_lp_Force_Field>  (86) 
OPLS3e

>  <r_lp_Energy>  (86) 
181.311

>  <b_lp_Chiralities_Consistent>  (86) 
1

>  <s_lp_Variant>  (86) 
26:0-2

>  <s_i_glide_gridfile>  (86) 
pfpi4k_grid

>  <i_i_glide_lignum>  (86) 
34

>  <i_i_glide_rotatable_bonds>  (86) 
2

>  <r_i_docking_score>  (86) 
-3.06388

>  <r_i_glide_ligand_efficiency>  (86) 
-0.0875394

>  <r_i_glide_ligand_efficiency_sa>  (86) 
-0.286347

>  <r_i_glide_ligand_efficiency_ln>  (86) 
-0.672589

>  <r_i_glide_gscore>  (86) 
-3.06388

>  <r_i_glide_lipo>  (86) 
-0.35441

>  <r_i_glide_hbond>  (86) 
0

>  <r_i_glide_metal>  (86) 
-0

>  <r_i_glide_rewards>  (86) 
-0.689562

>  <r_i_glide_evdw>  (86) 
-26.9815

>  <r_i_glide_ecoul>  (86) 
-4.38503

>  <r_i_glide_erotb>  (86) 
0

>  <r_i_glide_esite>  (86) 
-0.0130781

>  <r_i_glide_emodel>  (86) 
-44.3184

>  <r_i_glide_energy>  (86) 
-31.3665

>  <r_i_glide_einternal>  (86) 
0.164784

>  <r_i_glide_intrahb_reward>  (86) 
-0.5

>  <i_i_glide_confnum>  (86) 
1

>  <i_i_glide_posenum>  (86) 
13

>  <r_i_glide_eff_state_penalty>  (86) 
0

>  <ligand_id>  (86) 
26

>  <original_smiles>  (86) 
CC1N2C3C4CCc5c([nH]c6ccccc56)C5=C6OC4C32C(O)(C2CCC62)N2C(=O)CCC(O)C512

>  <smiles>  (86) 
[H]OC1([H])C([H])([H])C([H])([H])C(=O)N2C3(O[H])C4([H])C([H])([H])C([H])([H])C4([H])C4=C5c6c(c7c([H])c([H])c([H])c([H])c7n6[H])C([H])([H])C([H])([H])C6([H])C([H])(O4)C34C6([H])[N+]4([H])C([H])(C([H])([H])[H])C521

$$$$
26:1:2
     RDKit          3D

 65 74  0  0  1  0  0  0  0  0999 V2000
    4.4678   -8.0414    5.5990 C   0  0  0  0  0  0  0  0  0  0  0  0
    3.1209   -7.3828    5.2737 C   0  0  2  0  0  0  0  0  0  0  0  0
    2.1468   -7.8100    6.3249 N   0  0  1  0  0  0  0  0  0  0  0  0
    1.4428   -7.0929    7.2889 C   0  0  2  0  0  0  0  0  0  0  0  0
    0.9558   -5.6740    7.0196 C   0  0  1  0  0  0  0  0  0  0  0  0
    2.0856   -4.6375    6.8812 C   0  0  0  0  0  0  0  0  0  0  0  0
    1.9281   -3.6468    5.7113 C   0  0  0  0  0  0  0  0  0  0  0  0
    2.6174   -3.9878    4.3896 C   0  0  0  0  0  0  0  0  0  0  0  0
    2.4989   -5.0672    3.5392 C   0  0  0  0  0  0  0  0  0  0  0  0
    3.2781   -4.8006    2.4100 N   0  0  0  0  0  0  0  0  0  0  0  0
    3.9511   -3.6248    2.5205 C   0  0  0  0  0  0  0  0  0  0  0  0
    4.8662   -2.9566    1.6706 C   0  0  0  0  0  0  0  0  0  0  0  0
    5.4218   -1.7409    2.0591 C   0  0  0  0  0  0  0  0  0  0  0  0
    5.0559   -1.1637    3.2969 C   0  0  0  0  0  0  0  0  0  0  0  0
    4.1299   -1.8317    4.1276 C   0  0  0  0  0  0  0  0  0  0  0  0
    3.5691   -3.0647    3.7808 C   0  0  0  0  0  0  0  0  0  0  0  0
    1.7061   -6.3125    3.5228 C   0  0  0  0  0  0  0  0  0  0  0  0
    0.3972   -6.2101    3.5882 C   0  0  0  0  0  0  0  0  0  0  0  0
   -0.0056   -5.4715    4.6686 O   0  0  0  0  0  0  0  0  0  0  0  0
    0.0754   -6.1990    5.8867 C   0  0  1  0  0  0  0  0  0  0  0  0
    0.7263   -7.5933    6.0071 C   0  0  1  0  0  0  0  0  0  0  0  0
    0.4894   -8.7257    4.9790 C   0  0  1  0  0  0  0  0  0  0  0  0
    0.2195   -9.8380    5.8191 O   0  0  0  0  0  0  0  0  0  0  0  0
   -0.7864   -8.4370    4.1773 C   0  0  2  0  0  0  0  0  0  0  0  0
   -1.2034   -9.2173    2.9007 C   0  0  0  0  0  0  0  0  0  0  0  0
   -0.5639   -8.1241    2.0536 C   0  0  0  0  0  0  0  0  0  0  0  0
   -0.7247   -7.2122    3.2705 C   0  0  2  0  0  0  0  0  0  0  0  0
    1.6547   -8.9075    4.0266 N   0  0  0  0  0  0  0  0  0  0  0  0
    1.9606  -10.1172    3.4809 C   0  0  0  0  0  0  0  0  0  0  0  0
    1.2946  -11.1436    3.6968 O   0  0  0  0  0  0  0  0  0  0  0  0
    3.0995  -10.2782    2.4813 C   0  0  0  0  0  0  0  0  0  0  0  0
    4.1936   -9.2306    2.6095 C   0  0  0  0  0  0  0  0  0  0  0  0
    3.5775   -7.8336    2.6949 C   0  0  1  0  0  0  0  0  0  0  0  0
    3.0281   -7.5476    1.4121 O   0  0  0  0  0  0  0  0  0  0  0  0
    2.5043   -7.6495    3.8305 C   0  0  2  0  0  0  0  0  0  0  0  0
    3.3102   -5.4407    1.6267 H   0  0  0  0  0  0  0  0  0  0  0  0
    5.2471   -7.7273    4.9034 H   0  0  0  0  0  0  0  0  0  0  0  0
    4.4009   -9.1299    5.6016 H   0  0  0  0  0  0  0  0  0  0  0  0
    4.8126   -7.7349    6.5885 H   0  0  0  0  0  0  0  0  0  0  0  0
    3.3660   -6.3456    5.3939 H   0  0  0  0  0  0  0  0  0  0  0  0
    1.1493   -7.6222    8.1986 H   0  0  0  0  0  0  0  0  0  0  0  0
    0.2810   -5.3488    7.8028 H   0  0  0  0  0  0  0  0  0  0  0  0
    2.0724   -4.0421    7.8016 H   0  0  0  0  0  0  0  0  0  0  0  0
    3.0816   -5.0727    6.9301 H   0  0  0  0  0  0  0  0  0  0  0  0
    0.8761   -3.4003    5.5600 H   0  0  0  0  0  0  0  0  0  0  0  0
    2.3577   -2.7198    6.0799 H   0  0  0  0  0  0  0  0  0  0  0  0
    5.1398   -3.4058    0.7258 H   0  0  0  0  0  0  0  0  0  0  0  0
    6.1354   -1.2322    1.4281 H   0  0  0  0  0  0  0  0  0  0  0  0
    5.4892   -0.2295    3.6011 H   0  0  0  0  0  0  0  0  0  0  0  0
    3.8724   -1.3643    5.0733 H   0  0  0  0  0  0  0  0  0  0  0  0
   -0.9579   -6.2264    6.2340 H   0  0  0  0  0  0  0  0  0  0  0  0
   -0.6182  -10.2551    5.5653 H   0  0  0  0  0  0  0  0  0  0  0  0
   -1.6605   -8.3607    4.8448 H   0  0  0  0  0  0  0  0  0  0  0  0
   -0.7898  -10.2170    2.7775 H   0  0  0  0  0  0  0  0  0  0  0  0
   -2.2873   -9.2434    2.7759 H   0  0  0  0  0  0  0  0  0  0  0  0
    0.4542   -8.3506    1.7686 H   0  0  0  0  0  0  0  0  0  0  0  0
   -1.1616   -7.8426    1.1927 H   0  0  0  0  0  0  0  0  0  0  0  0
   -1.6877   -6.7154    3.2423 H   0  0  0  0  0  0  0  0  0  0  0  0
    3.5390  -11.2666    2.5954 H   0  0  0  0  0  0  0  0  0  0  0  0
    2.6767  -10.2666    1.4726 H   0  0  0  0  0  0  0  0  0  0  0  0
    4.8108   -9.4602    3.4741 H   0  0  0  0  0  0  0  0  0  0  0  0
    4.8691   -9.2935    1.7550 H   0  0  0  0  0  0  0  0  0  0  0  0
    4.3931   -7.1187    2.8337 H   0  0  0  0  0  0  0  0  0  0  0  0
    2.4558   -8.2648    1.1749 H   0  0  0  0  0  0  0  0  0  0  0  0
    2.3149   -8.7629    6.6376 H   0  0  0  0  0  0  0  0  0  0  0  0
  1  2  1  0
  1 37  1  0
  1 38  1  0
  1 39  1  0
  2 35  1  0
  2  3  1  0
  2 40  1  1
  3 21  1  0
  3  4  1  0
  3 65  1  1
  4 21  1  0
  4  5  1  0
  4 41  1  1
  5 20  1  0
  5  6  1  0
  5 42  1  1
  6  7  1  0
  6 43  1  0
  6 44  1  0
  7  8  1  0
  7 45  1  0
  7 46  1  0
  8 16  1  0
  8  9  2  0
  9 10  1  0
  9 17  1  0
 10 36  1  0
 10 11  1  0
 11 16  2  0
 11 12  1  0
 12 13  2  0
 12 47  1  0
 13 14  1  0
 13 48  1  0
 14 15  2  0
 14 49  1  0
 15 16  1  0
 15 50  1  0
 35 17  1  6
 17 18  2  0
 18 27  1  0
 18 19  1  0
 19 20  1  0
 20 21  1  0
 20 51  1  1
 21 22  1  1
 22 23  1  1
 22 24  1  0
 22 28  1  0
 23 52  1  0
 24 27  1  0
 24 25  1  0
 24 53  1  1
 25 26  1  0
 25 54  1  0
 25 55  1  0
 26 27  1  0
 26 56  1  0
 26 57  1  0
 27 58  1  6
 28 35  1  0
 28 29  1  0
 29 30  2  0
 29 31  1  0
 31 32  1  0
 31 59  1  0
 31 60  1  0
 32 33  1  0
 32 61  1  0
 32 62  1  0
 33 34  1  0
 33 35  1  0
 33 63  1  1
 34 64  1  0
M  CHG  1   3   1
M  END
>  <i_m_ct_stereo_status>  (87) 
1

>  <s_m_source_file>  (87) 
/var/tmp/pbs.5076255.sched01/tmp25ygy55i/01wbi4d2b.sdf

>  <i_m_source_file_index>  (87) 
34

>  <i_lp_mmshare_version>  (87) 
48012

>  <i_f3d_flags>  (87) 
1

>  <s_epik_input>  (87) 
QzEyM040W0NASF0xW0NAQEhdNVtDQEhdMk9DNj1DKFtDQEBdNyhbQ0BASF00W0NIM10pTihbQ0BdMyhbT0hdKVtDQEhdOFtDQEBIXTZbQ0gyXVtDSDJdOClDKD1PKVtDSDJdW0NIMl1bQ0BIXTdbT0hdKWM5YyhbQ0gyXVtDSDJdNSljMWMoW25IXTkpW2NIXVtjSF1bY0hdW2NIXTE=

>  <s_epik_cmdline>  (87) 
J2VwaWtfcHl0aG9uJywgJy1waHQnLCAnMi4wJywgJy1waCcsICc3LjAnLCAnLXRuJywgJzgnLCAnLW1hJywgJzIwMCcsICctaW1hZScsICc8aW5maWxlLm1hZT4nLCAnLW9tYWUnLCAnPG91dGZpbGUubWFlPic=

>  <r_epik_Ionization_Penalty>  (87) 
0.573323

>  <r_epik_Ionization_Penalty_Charging>  (87) 
0.572757

>  <r_epik_Ionization_Penalty_Neutral>  (87) 
0.000566013

>  <r_epik_State_Penalty>  (87) 
0.584854

>  <r_epik_Charging_Adjusted_Penalty>  (87) 
1.15761

>  <i_epik_Tot_Q>  (87) 
1

>  <i_epik_Tot_abs_Q>  (87) 
1

>  <s_lp_Force_Field>  (87) 
OPLS3e

>  <r_lp_Energy>  (87) 
181.311

>  <b_lp_Chiralities_Consistent>  (87) 
1

>  <s_lp_Variant>  (87) 
26:0-2

>  <s_i_glide_gridfile>  (87) 
pfpi4k_grid

>  <i_i_glide_lignum>  (87) 
34

>  <i_i_glide_rotatable_bonds>  (87) 
2

>  <r_i_docking_score>  (87) 
-2.84811

>  <r_i_glide_ligand_efficiency>  (87) 
-0.0813746

>  <r_i_glide_ligand_efficiency_sa>  (87) 
-0.266182

>  <r_i_glide_ligand_efficiency_ln>  (87) 
-0.625224

>  <r_i_glide_gscore>  (87) 
-2.84811

>  <r_i_glide_lipo>  (87) 
-0.228957

>  <r_i_glide_hbond>  (87) 
0

>  <r_i_glide_metal>  (87) 
-0

>  <r_i_glide_rewards>  (87) 
-0.722426

>  <r_i_glide_evdw>  (87) 
-29.8754

>  <r_i_glide_ecoul>  (87) 
-2.30014

>  <r_i_glide_erotb>  (87) 
0

>  <r_i_glide_esite>  (87) 
-0.0579388

>  <r_i_glide_emodel>  (87) 
-44.3367

>  <r_i_glide_energy>  (87) 
-32.1755

>  <r_i_glide_einternal>  (87) 
0.443225

>  <r_i_glide_intrahb_reward>  (87) 
-0.5

>  <i_i_glide_confnum>  (87) 
2

>  <i_i_glide_posenum>  (87) 
22

>  <r_i_glide_eff_state_penalty>  (87) 
0

>  <ligand_id>  (87) 
26

>  <original_smiles>  (87) 
CC1N2C3C4CCc5c([nH]c6ccccc56)C5=C6OC4C32C(O)(C2CCC62)N2C(=O)CCC(O)C512

>  <smiles>  (87) 
[H]OC1([H])C([H])([H])C([H])([H])C(=O)N2C3(O[H])C4([H])C([H])([H])C([H])([H])C4([H])C4=C5c6c(c7c([H])c([H])c([H])c([H])c7n6[H])C([H])([H])C([H])([H])C6([H])C([H])(O4)C34C6([H])[N+]4([H])C([H])(C([H])([H])[H])C521

$$$$
27:0:0
     RDKit          3D

 44 47  0  0  1  0  0  0  0  0999 V2000
    2.5127   -3.2814    2.9764 O   0  0  0  0  0  0  0  0  0  0  0  0
    2.6111   -4.3785    2.4575 C   0  0  0  0  0  0  0  0  0  0  0  0
    3.5121   -4.5786    1.4680 N   0  0  0  0  0  0  0  0  0  0  0  0
    4.3517   -3.5377    0.8615 C   0  0  2  0  0  0  0  0  0  0  0  0
    5.2127   -2.7797    1.9220 C   0  0  0  0  0  0  0  0  0  0  0  0
    6.0609   -1.6997    1.2355 C   0  0  1  0  0  0  0  0  0  0  0  0
    7.0161   -2.3707    0.2365 C   0  0  0  0  0  0  0  0  0  0  0  0
    6.1898   -3.1263   -0.8287 C   0  0  2  0  0  0  0  0  0  0  0  0
    5.2706   -2.1432   -1.5828 C   0  0  0  0  0  0  0  0  0  0  0  0
    4.3224   -1.4581   -0.5805 C   0  0  2  0  0  0  0  0  0  0  0  0
    5.1287   -0.7088    0.5058 C   0  0  0  0  0  0  0  0  0  0  0  0
    3.4505   -2.5330    0.0932 C   0  0  0  0  0  0  0  0  0  0  0  0
    5.3190   -4.2073   -0.1440 C   0  0  0  0  0  0  0  0  0  0  0  0
    1.8709   -5.4688    2.7566 N   0  0  0  0  0  0  0  0  0  0  0  0
    0.7750   -5.4779    3.9367 S   0  0  0  0  0  0  0  0  0  0  0  0
    0.4643   -4.1896    4.5710 O   0  0  0  0  0  0  0  0  0  0  0  0
   -0.3801   -6.3053    3.5537 O   0  0  0  0  0  0  0  0  0  0  0  0
    1.6862   -6.3863    5.1974 C   0  0  0  0  0  0  0  0  0  0  0  0
    3.0766   -6.2255    5.3808 C   0  0  0  0  0  0  0  0  0  0  0  0
    3.7337   -6.9339    6.4023 C   0  0  0  0  0  0  0  0  0  0  0  0
    2.9934   -7.7890    7.2422 C   0  0  0  0  0  0  0  0  0  0  0  0
    1.6045   -7.9307    7.0680 C   0  0  0  0  0  0  0  0  0  0  0  0
    0.5971   -9.0441    8.2336 Br  0  0  0  0  0  0  0  0  0  0  0  0
    0.9529   -7.2360    6.0408 C   0  0  0  0  0  0  0  0  0  0  0  0
    3.5711   -5.5089    1.0742 H   0  0  0  0  0  0  0  0  0  0  0  0
    4.6248   -2.2479    2.6652 H   0  0  0  0  0  0  0  0  0  0  0  0
    5.8377   -3.4815    2.4750 H   0  0  0  0  0  0  0  0  0  0  0  0
    6.6277   -1.1637    1.9975 H   0  0  0  0  0  0  0  0  0  0  0  0
    7.6551   -1.6208   -0.2275 H   0  0  0  0  0  0  0  0  0  0  0  0
    7.6735   -3.0617    0.7647 H   0  0  0  0  0  0  0  0  0  0  0  0
    6.8679   -3.6030   -1.5354 H   0  0  0  0  0  0  0  0  0  0  0  0
    5.8560   -1.3976   -2.1172 H   0  0  0  0  0  0  0  0  0  0  0  0
    4.6918   -2.6833   -2.3327 H   0  0  0  0  0  0  0  0  0  0  0  0
    3.6765   -0.7563   -1.1085 H   0  0  0  0  0  0  0  0  0  0  0  0
    4.4430   -0.2400    1.2121 H   0  0  0  0  0  0  0  0  0  0  0  0
    5.7167    0.0987    0.0729 H   0  0  0  0  0  0  0  0  0  0  0  0
    2.8459   -3.0492   -0.6555 H   0  0  0  0  0  0  0  0  0  0  0  0
    2.7404   -2.0366    0.7541 H   0  0  0  0  0  0  0  0  0  0  0  0
    5.9567   -4.9301    0.3683 H   0  0  0  0  0  0  0  0  0  0  0  0
    4.7621   -4.7694   -0.8976 H   0  0  0  0  0  0  0  0  0  0  0  0
    3.6573   -5.5601    4.7547 H   0  0  0  0  0  0  0  0  0  0  0  0
    4.8002   -6.8191    6.5392 H   0  0  0  0  0  0  0  0  0  0  0  0
    3.4949   -8.3311    8.0363 H   0  0  0  0  0  0  0  0  0  0  0  0
   -0.1155   -7.3341    5.9019 H   0  0  0  0  0  0  0  0  0  0  0  0
  1  2  2  0
  2  3  1  0
  2 14  1  0
  4  3  1  1
  3 25  1  0
  4 12  1  0
  4 13  1  0
  4  5  1  0
  5  6  1  0
  5 26  1  0
  5 27  1  0
  6 11  1  0
  6  7  1  0
  6 28  1  1
  7  8  1  0
  7 29  1  0
  7 30  1  0
  8  9  1  0
  8 13  1  0
  8 31  1  6
  9 10  1  0
  9 32  1  0
  9 33  1  0
 10 11  1  0
 10 12  1  0
 10 34  1  6
 11 35  1  0
 11 36  1  0
 12 37  1  0
 12 38  1  0
 13 39  1  0
 13 40  1  0
 14 15  1  0
 15 16  2  0
 15 17  2  0
 15 18  1  0
 18 24  1  0
 18 19  2  0
 19 20  1  0
 19 41  1  0
 20 21  2  0
 20 42  1  0
 21 22  1  0
 21 43  1  0
 22 23  1  0
 22 24  2  0
 24 44  1  0
M  CHG  1  14  -1
M  END
>  <i_m_ct_stereo_status>  (88) 
1

>  <s_m_source_file>  (88) 
/var/tmp/pbs.5076255.sched01/tmp25ygy55i/01wbi4d2b.sdf

>  <i_m_source_file_index>  (88) 
35

>  <i_lp_mmshare_version>  (88) 
48012

>  <i_f3d_flags>  (88) 
0

>  <s_epik_input>  (88) 
QnJjKFtjSF0xKVtjSF1bY0hdW2NIXWMxUyg9TykoPU8pW05IXUMoPU8pW05IXUMyM1tDSDJdW0NASF00W0NIMl1bQ0BASF0oW0NIMl0zKVtDSDJdW0NASF0oW0NIMl00KVtDSDJdMg==

>  <s_epik_cmdline>  (88) 
J2VwaWtfcHl0aG9uJywgJy1waHQnLCAnMi4wJywgJy1waCcsICc3LjAnLCAnLXRuJywgJzgnLCAnLW1hJywgJzIwMCcsICctaW1hZScsICc8aW5maWxlLm1hZT4nLCAnLW9tYWUnLCAnPG91dGZpbGUubWFlPic=

>  <r_epik_Ionization_Penalty>  (88) 
0.0103877

>  <r_epik_Ionization_Penalty_Charging>  (88) 
0.0103874

>  <r_epik_Ionization_Penalty_Neutral>  (88) 
3.10304e-07

>  <r_epik_State_Penalty>  (88) 
0.0079407

>  <r_epik_Charging_Adjusted_Penalty>  (88) 
0.0183281

>  <i_epik_Tot_Q>  (88) 
-1

>  <i_epik_Tot_abs_Q>  (88) 
1

>  <s_lp_Force_Field>  (88) 
OPLS3e

>  <r_lp_Energy>  (88) 
9.37152

>  <b_lp_Chiralities_Consistent>  (88) 
1

>  <s_lp_Variant>  (88) 
27:0-1

>  <s_i_glide_gridfile>  (88) 
pfpi4k_grid

>  <i_i_glide_lignum>  (88) 
35

>  <i_i_glide_rotatable_bonds>  (88) 
5

>  <r_i_docking_score>  (88) 
-2.26272

>  <r_i_glide_ligand_efficiency>  (88) 
-0.0942802

>  <r_i_glide_ligand_efficiency_sa>  (88) 
-0.271951

>  <r_i_glide_ligand_efficiency_ln>  (88) 
-0.541574

>  <r_i_glide_gscore>  (88) 
-2.26272

>  <r_i_glide_lipo>  (88) 
-0.588265

>  <r_i_glide_hbond>  (88) 
0

>  <r_i_glide_metal>  (88) 
-0

>  <r_i_glide_rewards>  (88) 
-0.597802

>  <r_i_glide_evdw>  (88) 
-23.3741

>  <r_i_glide_ecoul>  (88) 
-0.924247

>  <r_i_glide_erotb>  (88) 
0.347942

>  <r_i_glide_esite>  (88) 
-0.11726

>  <r_i_glide_emodel>  (88) 
-28.0238

>  <r_i_glide_energy>  (88) 
-24.2983

>  <r_i_glide_einternal>  (88) 
2.58823

>  <r_i_glide_intrahb_reward>  (88) 
-0

>  <i_i_glide_confnum>  (88) 
1

>  <i_i_glide_posenum>  (88) 
6

>  <r_i_glide_eff_state_penalty>  (88) 
0

>  <ligand_id>  (88) 
27

>  <original_smiles>  (88) 
O=C(NC12CC3CC(CC(C3)C1)C2)NS(=O)(=O)c1cccc(Br)c1

>  <smiles>  (88) 
[H]c1c([H])c(Br)c([H])c(S(=O)(=O)[N-]C(=O)N([H])C23C([H])([H])C4([H])C([H])([H])C([H])(C([H])([H])C([H])(C4([H])[H])C2([H])[H])C3([H])[H])c1[H]

$$$$
27:0:1
     RDKit          3D

 44 47  0  0  1  0  0  0  0  0999 V2000
    1.9467   -5.7819    0.9733 O   0  0  0  0  0  0  0  0  0  0  0  0
    2.3658   -5.2719    2.0214 C   0  0  0  0  0  0  0  0  0  0  0  0
    2.1101   -5.8705    3.1921 N   0  0  0  0  0  0  0  0  0  0  0  0
    1.2491   -7.0504    3.3888 C   0  0  2  0  0  0  0  0  0  0  0  0
    1.2219   -7.4017    4.8942 C   0  0  0  0  0  0  0  0  0  0  0  0
    0.2541   -8.5852    5.1321 C   0  0  1  0  0  0  0  0  0  0  0  0
   -1.1639   -8.1797    4.6801 C   0  0  0  0  0  0  0  0  0  0  0  0
   -1.1570   -7.8338    3.1960 C   0  0  2  0  0  0  0  0  0  0  0  0
   -0.6865   -9.0374    2.3881 C   0  0  0  0  0  0  0  0  0  0  0  0
    0.7385   -9.4614    2.8362 C   0  0  2  0  0  0  0  0  0  0  0  0
    0.7372   -9.8149    4.3338 C   0  0  0  0  0  0  0  0  0  0  0  0
    1.7252   -8.3069    2.5923 C   0  0  0  0  0  0  0  0  0  0  0  0
   -0.1897   -6.6707    2.9601 C   0  0  0  0  0  0  0  0  0  0  0  0
    3.1077   -4.1471    2.1210 N   0  0  0  0  0  0  0  0  0  0  0  0
    3.7469   -3.3810    0.8520 S   0  0  0  0  0  0  0  0  0  0  0  0
    3.1116   -3.6744   -0.4482 O   0  0  0  0  0  0  0  0  0  0  0  0
    4.0348   -1.9818    1.1753 O   0  0  0  0  0  0  0  0  0  0  0  0
    5.3480   -4.2396    0.8429 C   0  0  0  0  0  0  0  0  0  0  0  0
    5.4653   -5.6407    0.9916 C   0  0  0  0  0  0  0  0  0  0  0  0
    6.7296   -6.2443    1.0300 C   0  0  0  0  0  0  0  0  0  0  0  0
    7.8840   -5.4647    0.8830 C   0  0  0  0  0  0  0  0  0  0  0  0
    7.7744   -4.0675    0.7225 C   0  0  0  0  0  0  0  0  0  0  0  0
    9.3347   -3.0199    0.4749 Br  0  0  0  0  0  0  0  0  0  0  0  0
    6.5107   -3.4529    0.7146 C   0  0  0  0  0  0  0  0  0  0  0  0
    2.4861   -5.4354    4.0334 H   0  0  0  0  0  0  0  0  0  0  0  0
    2.2247   -7.6580    5.2424 H   0  0  0  0  0  0  0  0  0  0  0  0
    0.8964   -6.5367    5.4783 H   0  0  0  0  0  0  0  0  0  0  0  0
    0.2314   -8.8351    6.1932 H   0  0  0  0  0  0  0  0  0  0  0  0
   -1.8635   -8.9932    4.8531 H   0  0  0  0  0  0  0  0  0  0  0  0
   -1.4958   -7.3050    5.2396 H   0  0  0  0  0  0  0  0  0  0  0  0
   -2.1591   -7.5489    2.8695 H   0  0  0  0  0  0  0  0  0  0  0  0
   -1.3851   -9.8711    2.4740 H   0  0  0  0  0  0  0  0  0  0  0  0
   -0.6954   -8.6901    1.3549 H   0  0  0  0  0  0  0  0  0  0  0  0
    1.0550  -10.3270    2.2523 H   0  0  0  0  0  0  0  0  0  0  0  0
    1.7428  -10.0983    4.6491 H   0  0  0  0  0  0  0  0  0  0  0  0
    0.0837  -10.6672    4.5183 H   0  0  0  0  0  0  0  0  0  0  0  0
    1.7443   -8.1818    1.5108 H   0  0  0  0  0  0  0  0  0  0  0  0
    2.7349   -8.5948    2.8882 H   0  0  0  0  0  0  0  0  0  0  0  0
   -0.5158   -5.8332    3.5678 H   0  0  0  0  0  0  0  0  0  0  0  0
   -0.2479   -6.3960    1.9046 H   0  0  0  0  0  0  0  0  0  0  0  0
    4.6121   -6.2944    1.0818 H   0  0  0  0  0  0  0  0  0  0  0  0
    6.8050   -7.3127    1.1512 H   0  0  0  0  0  0  0  0  0  0  0  0
    8.8564   -5.9445    0.8677 H   0  0  0  0  0  0  0  0  0  0  0  0
    6.4232   -2.3858    0.6129 H   0  0  0  0  0  0  0  0  0  0  0  0
  1  2  2  0
  2  3  1  0
  2 14  1  0
  4  3  1  1
  3 25  1  0
  4 12  1  0
  4 13  1  0
  4  5  1  0
  5  6  1  0
  5 26  1  0
  5 27  1  0
  6 11  1  0
  6  7  1  0
  6 28  1  1
  7  8  1  0
  7 29  1  0
  7 30  1  0
  8  9  1  0
  8 13  1  0
  8 31  1  6
  9 10  1  0
  9 32  1  0
  9 33  1  0
 10 11  1  0
 10 12  1  0
 10 34  1  6
 11 35  1  0
 11 36  1  0
 12 37  1  0
 12 38  1  0
 13 39  1  0
 13 40  1  0
 14 15  1  0
 15 16  2  0
 15 17  2  0
 15 18  1  0
 18 24  1  0
 18 19  2  0
 19 20  1  0
 19 41  1  0
 20 21  2  0
 20 42  1  0
 21 22  1  0
 21 43  1  0
 22 23  1  0
 22 24  2  0
 24 44  1  0
M  CHG  1  14  -1
M  END
>  <i_m_ct_stereo_status>  (89) 
1

>  <s_m_source_file>  (89) 
/var/tmp/pbs.5076255.sched01/tmp25ygy55i/01wbi4d2b.sdf

>  <i_m_source_file_index>  (89) 
35

>  <i_lp_mmshare_version>  (89) 
48012

>  <i_f3d_flags>  (89) 
0

>  <s_epik_input>  (89) 
QnJjKFtjSF0xKVtjSF1bY0hdW2NIXWMxUyg9TykoPU8pW05IXUMoPU8pW05IXUMyM1tDSDJdW0NASF00W0NIMl1bQ0BASF0oW0NIMl0zKVtDSDJdW0NASF0oW0NIMl00KVtDSDJdMg==

>  <s_epik_cmdline>  (89) 
J2VwaWtfcHl0aG9uJywgJy1waHQnLCAnMi4wJywgJy1waCcsICc3LjAnLCAnLXRuJywgJzgnLCAnLW1hJywgJzIwMCcsICctaW1hZScsICc8aW5maWxlLm1hZT4nLCAnLW9tYWUnLCAnPG91dGZpbGUubWFlPic=

>  <r_epik_Ionization_Penalty>  (89) 
0.0103877

>  <r_epik_Ionization_Penalty_Charging>  (89) 
0.0103874

>  <r_epik_Ionization_Penalty_Neutral>  (89) 
3.10304e-07

>  <r_epik_State_Penalty>  (89) 
0.0079407

>  <r_epik_Charging_Adjusted_Penalty>  (89) 
0.0183281

>  <i_epik_Tot_Q>  (89) 
-1

>  <i_epik_Tot_abs_Q>  (89) 
1

>  <s_lp_Force_Field>  (89) 
OPLS3e

>  <r_lp_Energy>  (89) 
9.37152

>  <b_lp_Chiralities_Consistent>  (89) 
1

>  <s_lp_Variant>  (89) 
27:0-1

>  <s_i_glide_gridfile>  (89) 
pfpi4k_grid

>  <i_i_glide_lignum>  (89) 
35

>  <i_i_glide_rotatable_bonds>  (89) 
5

>  <r_i_docking_score>  (89) 
-2.01944

>  <r_i_glide_ligand_efficiency>  (89) 
-0.0841433

>  <r_i_glide_ligand_efficiency_sa>  (89) 
-0.242711

>  <r_i_glide_ligand_efficiency_ln>  (89) 
-0.483344

>  <r_i_glide_gscore>  (89) 
-2.01944

>  <r_i_glide_lipo>  (89) 
-0.624509

>  <r_i_glide_hbond>  (89) 
-0.0333497

>  <r_i_glide_metal>  (89) 
-0

>  <r_i_glide_rewards>  (89) 
-0.601709

>  <r_i_glide_evdw>  (89) 
-25.7925

>  <r_i_glide_ecoul>  (89) 
1.41492

>  <r_i_glide_erotb>  (89) 
0.347942

>  <r_i_glide_esite>  (89) 
-0.0304238

>  <r_i_glide_emodel>  (89) 
-27.4089

>  <r_i_glide_energy>  (89) 
-24.3776

>  <r_i_glide_einternal>  (89) 
2.3797

>  <r_i_glide_intrahb_reward>  (89) 
-0

>  <i_i_glide_confnum>  (89) 
1

>  <i_i_glide_posenum>  (89) 
38

>  <r_i_glide_eff_state_penalty>  (89) 
0

>  <ligand_id>  (89) 
27

>  <original_smiles>  (89) 
O=C(NC12CC3CC(CC(C3)C1)C2)NS(=O)(=O)c1cccc(Br)c1

>  <smiles>  (89) 
[H]c1c([H])c(Br)c([H])c(S(=O)(=O)[N-]C(=O)N([H])C23C([H])([H])C4([H])C([H])([H])C([H])(C([H])([H])C([H])(C4([H])[H])C2([H])[H])C3([H])[H])c1[H]

$$$$
27:0:2
     RDKit          3D

 44 47  0  0  1  0  0  0  0  0999 V2000
    1.8127   -4.1911    2.5033 O   0  0  0  0  0  0  0  0  0  0  0  0
    2.8210   -4.5193    3.1220 C   0  0  0  0  0  0  0  0  0  0  0  0
    2.8928   -5.7502    3.6558 N   0  0  0  0  0  0  0  0  0  0  0  0
    1.8255   -6.7642    3.6652 C   0  0  2  0  0  0  0  0  0  0  0  0
    1.2733   -7.0620    2.2367 C   0  0  0  0  0  0  0  0  0  0  0  0
    0.1657   -8.1204    2.3089 C   0  0  1  0  0  0  0  0  0  0  0  0
    0.7487   -9.4285    2.8746 C   0  0  0  0  0  0  0  0  0  0  0  0
    1.3024   -9.1634    4.2920 C   0  0  2  0  0  0  0  0  0  0  0  0
    0.1688   -8.6727    5.2122 C   0  0  0  0  0  0  0  0  0  0  0  0
   -0.4342   -7.3735    4.6359 C   0  0  2  0  0  0  0  0  0  0  0  0
   -0.9787   -7.6189    3.2128 C   0  0  0  0  0  0  0  0  0  0  0  0
    0.6628   -6.2941    4.5849 C   0  0  0  0  0  0  0  0  0  0  0  0
    2.4052   -8.0846    4.2321 C   0  0  0  0  0  0  0  0  0  0  0  0
    3.8951   -3.7343    3.3366 N   0  0  0  0  0  0  0  0  0  0  0  0
    3.9709   -2.2191    2.7652 S   0  0  0  0  0  0  0  0  0  0  0  0
    2.6685   -1.5400    2.6449 O   0  0  0  0  0  0  0  0  0  0  0  0
    5.0694   -1.4636    3.3908 O   0  0  0  0  0  0  0  0  0  0  0  0
    4.5176   -2.6054    1.1019 C   0  0  0  0  0  0  0  0  0  0  0  0
    3.5898   -2.7933    0.0558 C   0  0  0  0  0  0  0  0  0  0  0  0
    4.0425   -3.0591   -1.2506 C   0  0  0  0  0  0  0  0  0  0  0  0
    5.4268   -3.1381   -1.5081 C   0  0  0  0  0  0  0  0  0  0  0  0
    6.3471   -2.9667   -0.4562 C   0  0  0  0  0  0  0  0  0  0  0  0
    8.2126   -3.0551   -0.8038 Br  0  0  0  0  0  0  0  0  0  0  0  0
    5.8974   -2.7056    0.8474 C   0  0  0  0  0  0  0  0  0  0  0  0
    3.7456   -5.9785    4.1516 H   0  0  0  0  0  0  0  0  0  0  0  0
    0.8170   -6.2009    1.7549 H   0  0  0  0  0  0  0  0  0  0  0  0
    2.0823   -7.3862    1.5806 H   0  0  0  0  0  0  0  0  0  0  0  0
   -0.2221   -8.2665    1.3013 H   0  0  0  0  0  0  0  0  0  0  0  0
   -0.0189  -10.2034    2.8984 H   0  0  0  0  0  0  0  0  0  0  0  0
    1.5436   -9.7900    2.2197 H   0  0  0  0  0  0  0  0  0  0  0  0
    1.7217  -10.0872    4.6905 H   0  0  0  0  0  0  0  0  0  0  0  0
   -0.5877   -9.4492    5.3059 H   0  0  0  0  0  0  0  0  0  0  0  0
    0.5537   -8.4973    6.2170 H   0  0  0  0  0  0  0  0  0  0  0  0
   -1.2498   -7.0307    5.2747 H   0  0  0  0  0  0  0  0  0  0  0  0
   -1.3975   -6.6950    2.8130 H   0  0  0  0  0  0  0  0  0  0  0  0
   -1.7929   -8.3447    3.2312 H   0  0  0  0  0  0  0  0  0  0  0  0
    1.0303   -6.0932    5.5937 H   0  0  0  0  0  0  0  0  0  0  0  0
    0.2235   -5.3598    4.2325 H   0  0  0  0  0  0  0  0  0  0  0  0
    3.2294   -8.4298    3.6063 H   0  0  0  0  0  0  0  0  0  0  0  0
    2.8210   -7.9243    5.2286 H   0  0  0  0  0  0  0  0  0  0  0  0
    2.5346   -2.7299    0.2545 H   0  0  0  0  0  0  0  0  0  0  0  0
    3.3350   -3.1924   -2.0557 H   0  0  0  0  0  0  0  0  0  0  0  0
    5.7839   -3.3275   -2.5106 H   0  0  0  0  0  0  0  0  0  0  0  0
    6.6033   -2.5742    1.6489 H   0  0  0  0  0  0  0  0  0  0  0  0
  1  2  2  0
  2  3  1  0
  2 14  1  0
  4  3  1  6
  3 25  1  0
  4 12  1  0
  4 13  1  0
  4  5  1  0
  5  6  1  0
  5 26  1  0
  5 27  1  0
  6 11  1  0
  6  7  1  0
  6 28  1  6
  7  8  1  0
  7 29  1  0
  7 30  1  0
  8  9  1  0
  8 13  1  0
  8 31  1  1
  9 10  1  0
  9 32  1  0
  9 33  1  0
 10 11  1  0
 10 12  1  0
 10 34  1  1
 11 35  1  0
 11 36  1  0
 12 37  1  0
 12 38  1  0
 13 39  1  0
 13 40  1  0
 14 15  1  0
 15 16  2  0
 15 17  2  0
 15 18  1  0
 18 24  1  0
 18 19  2  0
 19 20  1  0
 19 41  1  0
 20 21  2  0
 20 42  1  0
 21 22  1  0
 21 43  1  0
 22 23  1  0
 22 24  2  0
 24 44  1  0
M  CHG  1  14  -1
M  END
>  <i_m_ct_stereo_status>  (90) 
1

>  <s_m_source_file>  (90) 
/var/tmp/pbs.5076255.sched01/tmp25ygy55i/01wbi4d2b.sdf

>  <i_m_source_file_index>  (90) 
35

>  <i_lp_mmshare_version>  (90) 
48012

>  <i_f3d_flags>  (90) 
0

>  <s_epik_input>  (90) 
QnJjKFtjSF0xKVtjSF1bY0hdW2NIXWMxUyg9TykoPU8pW05IXUMoPU8pW05IXUMyM1tDSDJdW0NASF00W0NIMl1bQ0BASF0oW0NIMl0zKVtDSDJdW0NASF0oW0NIMl00KVtDSDJdMg==

>  <s_epik_cmdline>  (90) 
J2VwaWtfcHl0aG9uJywgJy1waHQnLCAnMi4wJywgJy1waCcsICc3LjAnLCAnLXRuJywgJzgnLCAnLW1hJywgJzIwMCcsICctaW1hZScsICc8aW5maWxlLm1hZT4nLCAnLW9tYWUnLCAnPG91dGZpbGUubWFlPic=

>  <r_epik_Ionization_Penalty>  (90) 
0.0103877

>  <r_epik_Ionization_Penalty_Charging>  (90) 
0.0103874

>  <r_epik_Ionization_Penalty_Neutral>  (90) 
3.10304e-07

>  <r_epik_State_Penalty>  (90) 
0.0079407

>  <r_epik_Charging_Adjusted_Penalty>  (90) 
0.0183281

>  <i_epik_Tot_Q>  (90) 
-1

>  <i_epik_Tot_abs_Q>  (90) 
1

>  <s_lp_Force_Field>  (90) 
OPLS3e

>  <r_lp_Energy>  (90) 
9.37152

>  <b_lp_Chiralities_Consistent>  (90) 
1

>  <s_lp_Variant>  (90) 
27:0-1

>  <s_i_glide_gridfile>  (90) 
pfpi4k_grid

>  <i_i_glide_lignum>  (90) 
35

>  <i_i_glide_rotatable_bonds>  (90) 
5

>  <r_i_docking_score>  (90) 
-1.44591

>  <r_i_glide_ligand_efficiency>  (90) 
-0.0602463

>  <r_i_glide_ligand_efficiency_sa>  (90) 
-0.17378

>  <r_i_glide_ligand_efficiency_ln>  (90) 
-0.346073

>  <r_i_glide_gscore>  (90) 
-1.44591

>  <r_i_glide_lipo>  (90) 
-0.193025

>  <r_i_glide_hbond>  (90) 
0

>  <r_i_glide_metal>  (90) 
-0

>  <r_i_glide_rewards>  (90) 
-0.597894

>  <r_i_glide_evdw>  (90) 
-28.6943

>  <r_i_glide_ecoul>  (90) 
2.94098

>  <r_i_glide_erotb>  (90) 
0.347942

>  <r_i_glide_esite>  (90) 
-0.0093675

>  <r_i_glide_emodel>  (90) 
-28.7653

>  <r_i_glide_energy>  (90) 
-25.7533

>  <r_i_glide_einternal>  (90) 
0.278347

>  <r_i_glide_intrahb_reward>  (90) 
-0

>  <i_i_glide_confnum>  (90) 
4

>  <i_i_glide_posenum>  (90) 
40

>  <r_i_glide_eff_state_penalty>  (90) 
0

>  <ligand_id>  (90) 
27

>  <original_smiles>  (90) 
O=C(NC12CC3CC(CC(C3)C1)C2)NS(=O)(=O)c1cccc(Br)c1

>  <smiles>  (90) 
[H]c1c([H])c(Br)c([H])c(S(=O)(=O)[N-]C(=O)N([H])C23C([H])([H])C4([H])C([H])([H])C([H])(C([H])([H])C([H])(C4([H])[H])C2([H])[H])C3([H])[H])c1[H]

$$$$
27:1:0
     RDKit          3D

 45 48  0  0  1  0  0  0  0  0999 V2000
    4.4997   -0.5689    1.5234 O   0  0  0  0  0  0  0  0  0  0  0  0
    3.4541   -0.6159    0.8610 C   0  0  0  0  0  0  0  0  0  0  0  0
    2.2705   -0.1193    1.2882 N   0  0  0  0  0  0  0  0  0  0  0  0
    1.8891    0.5938    2.5177 C   0  0  2  0  0  0  0  0  0  0  0  0
    0.6881   -0.1376    3.1807 C   0  0  0  0  0  0  0  0  0  0  0  0
    0.2868    0.5834    4.4850 C   0  0  1  0  0  0  0  0  0  0  0  0
    1.4861    0.6027    5.4649 C   0  0  0  0  0  0  0  0  0  0  0  0
    2.6435    1.3799    4.8202 C   0  0  2  0  0  0  0  0  0  0  0  0
    2.2300    2.8185    4.4631 C   0  0  0  0  0  0  0  0  0  0  0  0
    1.0287    2.7777    3.4934 C   0  0  2  0  0  0  0  0  0  0  0  0
   -0.1433    2.0329    4.1684 C   0  0  0  0  0  0  0  0  0  0  0  0
    1.4264    2.0441    2.1912 C   0  0  0  0  0  0  0  0  0  0  0  0
    3.0458    0.6744    3.5538 C   0  0  0  0  0  0  0  0  0  0  0  0
    3.4240   -1.1912   -0.3967 N   0  0  0  0  0  0  0  0  0  0  0  0
    4.7394   -2.0761   -1.0729 S   0  0  0  0  0  0  0  0  0  0  0  0
    4.4568   -2.2580   -2.5183 O   0  0  0  0  0  0  0  0  0  0  0  0
    6.0201   -1.4532   -0.6793 O   0  0  0  0  0  0  0  0  0  0  0  0
    4.6039   -3.6919   -0.2794 C   0  0  0  0  0  0  0  0  0  0  0  0
    5.7785   -4.4050    0.0870 C   0  0  0  0  0  0  0  0  0  0  0  0
    5.6618   -5.6874    0.6782 C   0  0  0  0  0  0  0  0  0  0  0  0
    4.3754   -6.2406    0.9143 C   0  0  0  0  0  0  0  0  0  0  0  0
    3.2198   -5.5168    0.5688 C   0  0  0  0  0  0  0  0  0  0  0  0
    1.4913   -6.2541    0.8827 Br  0  0  0  0  0  0  0  0  0  0  0  0
    3.3355   -4.2311   -0.0239 C   0  0  0  0  0  0  0  0  0  0  0  0
    1.5097   -0.2416    0.6221 H   0  0  0  0  0  0  0  0  0  0  0  0
   -0.1620   -0.1641    2.5029 H   0  0  0  0  0  0  0  0  0  0  0  0
    0.9503   -1.1745    3.3886 H   0  0  0  0  0  0  0  0  0  0  0  0
   -0.5476    0.0520    4.9514 H   0  0  0  0  0  0  0  0  0  0  0  0
    1.2140    1.0553    6.4194 H   0  0  0  0  0  0  0  0  0  0  0  0
    1.8033   -0.4222    5.6665 H   0  0  0  0  0  0  0  0  0  0  0  0
    3.5001    1.3959    5.4855 H   0  0  0  0  0  0  0  0  0  0  0  0
    1.9933    3.3874    5.3637 H   0  0  0  0  0  0  0  0  0  0  0  0
    3.0657    3.3318    3.9770 H   0  0  0  0  0  0  0  0  0  0  0  0
    0.7238    3.7998    3.2582 H   0  0  0  0  0  0  0  0  0  0  0  0
   -1.0141    2.0349    3.5116 H   0  0  0  0  0  0  0  0  0  0  0  0
   -0.4373    2.5501    5.0840 H   0  0  0  0  0  0  0  0  0  0  0  0
    2.2145    2.5990    1.6818 H   0  0  0  0  0  0  0  0  0  0  0  0
    0.5785    2.0392    1.5044 H   0  0  0  0  0  0  0  0  0  0  0  0
    3.3930   -0.3330    3.8032 H   0  0  0  0  0  0  0  0  0  0  0  0
    3.8793    1.2459    3.1357 H   0  0  0  0  0  0  0  0  0  0  0  0
    2.5192   -1.2985   -0.9031 H   0  0  0  0  0  0  0  0  0  0  0  0
    6.7467   -3.9830   -0.1081 H   0  0  0  0  0  0  0  0  0  0  0  0
    6.5442   -6.2388    0.9353 H   0  0  0  0  0  0  0  0  0  0  0  0
    4.2994   -7.2126    1.3542 H   0  0  0  0  0  0  0  0  0  0  0  0
    2.4494   -3.7051   -0.3079 H   0  0  0  0  0  0  0  0  0  0  0  0
  1  2  2  0
  2  3  1  0
  2 14  1  0
  4  3  1  6
  3 25  1  0
  4 12  1  0
  4 13  1  0
  4  5  1  0
  5  6  1  0
  5 26  1  0
  5 27  1  0
  6 11  1  0
  6  7  1  0
  6 28  1  1
  7  8  1  0
  7 29  1  0
  7 30  1  0
  8  9  1  0
  8 13  1  0
  8 31  1  1
  9 10  1  0
  9 32  1  0
  9 33  1  0
 10 11  1  0
 10 12  1  0
 10 34  1  6
 11 35  1  0
 11 36  1  0
 12 37  1  0
 12 38  1  0
 13 39  1  0
 13 40  1  0
 14 15  1  0
 14 41  1  0
 15 16  2  0
 15 17  2  0
 15 18  1  0
 18 24  1  0
 18 19  2  0
 19 20  1  0
 19 42  1  0
 20 21  2  0
 20 43  1  0
 21 22  1  0
 21 44  1  0
 22 23  1  0
 22 24  2  0
 24 45  1  0
M  END
>  <i_m_ct_stereo_status>  (91) 
1

>  <s_m_source_file>  (91) 
/var/tmp/pbs.5076255.sched01/tmp25ygy55i/01wbi4d2b.sdf

>  <i_m_source_file_index>  (91) 
36

>  <i_lp_mmshare_version>  (91) 
48012

>  <i_f3d_flags>  (91) 
0

>  <s_epik_input>  (91) 
QnJjKFtjSF0xKVtjSF1bY0hdW2NIXWMxUyg9TykoPU8pW05IXUMoPU8pW05IXUMyM1tDSDJdW0NASF00W0NIMl1bQ0BASF0oW0NIMl0zKVtDSDJdW0NASF0oW0NIMl00KVtDSDJdMg==

>  <s_epik_cmdline>  (91) 
J2VwaWtfcHl0aG9uJywgJy1waHQnLCAnMi4wJywgJy1waCcsICc3LjAnLCAnLXRuJywgJzgnLCAnLW1hJywgJzIwMCcsICctaW1hZScsICc8aW5maWxlLm1hZT4nLCAnLW9tYWUnLCAnPG91dGZpbGUubWFlPic=

>  <r_epik_Ionization_Penalty>  (91) 
2.40107

>  <r_epik_Ionization_Penalty_Charging>  (91) 
0

>  <r_epik_Ionization_Penalty_Neutral>  (91) 
2.40107

>  <r_epik_State_Penalty>  (91) 
2.55896

>  <r_epik_Charging_Adjusted_Penalty>  (91) 
2.55896

>  <i_epik_Tot_Q>  (91) 
0

>  <i_epik_Tot_abs_Q>  (91) 
0

>  <s_lp_Force_Field>  (91) 
OPLS3e

>  <r_lp_Energy>  (91) 
-5.62987

>  <b_lp_Chiralities_Consistent>  (91) 
1

>  <s_lp_Variant>  (91) 
27:0-2

>  <s_i_glide_gridfile>  (91) 
pfpi4k_grid

>  <i_i_glide_lignum>  (91) 
36

>  <i_i_glide_rotatable_bonds>  (91) 
5

>  <r_i_docking_score>  (91) 
-3.97188

>  <r_i_glide_ligand_efficiency>  (91) 
-0.165495

>  <r_i_glide_ligand_efficiency_sa>  (91) 
-0.47737

>  <r_i_glide_ligand_efficiency_ln>  (91) 
-0.950652

>  <r_i_glide_gscore>  (91) 
-3.97188

>  <r_i_glide_lipo>  (91) 
-0.294619

>  <r_i_glide_hbond>  (91) 
-0.289729

>  <r_i_glide_metal>  (91) 
-0

>  <r_i_glide_rewards>  (91) 
-0.59093

>  <r_i_glide_evdw>  (91) 
-27.6522

>  <r_i_glide_ecoul>  (91) 
-9.73831

>  <r_i_glide_erotb>  (91) 
0.346412

>  <r_i_glide_esite>  (91) 
-0.299651

>  <r_i_glide_emodel>  (91) 
-44.3055

>  <r_i_glide_energy>  (91) 
-37.3905

>  <r_i_glide_einternal>  (91) 
6.47973

>  <r_i_glide_intrahb_reward>  (91) 
-0

>  <i_i_glide_confnum>  (91) 
3

>  <i_i_glide_posenum>  (91) 
35

>  <r_i_glide_eff_state_penalty>  (91) 
0

>  <ligand_id>  (91) 
27

>  <original_smiles>  (91) 
O=C(NC12CC3CC(CC(C3)C1)C2)NS(=O)(=O)c1cccc(Br)c1

>  <smiles>  (91) 
[H]c1c([H])c(Br)c([H])c(S(=O)(=O)N([H])C(=O)N([H])C23C([H])([H])C4([H])C([H])([H])C([H])(C([H])([H])C([H])(C4([H])[H])C2([H])[H])C3([H])[H])c1[H]

$$$$
27:1:1
     RDKit          3D

 45 48  0  0  1  0  0  0  0  0999 V2000
    0.4549    1.2980    4.4115 O   0  0  0  0  0  0  0  0  0  0  0  0
    0.6340    1.7839    3.2922 C   0  0  0  0  0  0  0  0  0  0  0  0
    1.4977    1.2812    2.3924 N   0  0  0  0  0  0  0  0  0  0  0  0
    2.3951    0.1368    2.5790 C   0  0  2  0  0  0  0  0  0  0  0  0
    1.5854   -1.1664    2.8136 C   0  0  0  0  0  0  0  0  0  0  0  0
    2.5468   -2.3617    2.9676 C   0  0  1  0  0  0  0  0  0  0  0  0
    3.3704   -2.5173    1.6743 C   0  0  0  0  0  0  0  0  0  0  0  0
    4.2052   -1.2379    1.4458 C   0  0  2  0  0  0  0  0  0  0  0  0
    5.1505   -0.9839    2.6385 C   0  0  0  0  0  0  0  0  0  0  0  0
    4.3144   -0.8324    3.9237 C   0  0  2  0  0  0  0  0  0  0  0  0
    3.4906   -2.1157    4.1666 C   0  0  0  0  0  0  0  0  0  0  0  0
    3.3599    0.3703    3.7729 C   0  0  0  0  0  0  0  0  0  0  0  0
    3.2497   -0.0353    1.2977 C   0  0  0  0  0  0  0  0  0  0  0  0
   -0.0339    2.9345    2.8880 N   0  0  0  0  0  0  0  0  0  0  0  0
   -0.7653    4.1100    3.9283 S   0  0  0  0  0  0  0  0  0  0  0  0
   -1.8064    4.7944    3.1364 O   0  0  0  0  0  0  0  0  0  0  0  0
   -1.1349    3.4882    5.2054 O   0  0  0  0  0  0  0  0  0  0  0  0
    0.5166    5.3279    4.2536 C   0  0  0  0  0  0  0  0  0  0  0  0
    1.6541    5.4448    3.4260 C   0  0  0  0  0  0  0  0  0  0  0  0
    2.6219    6.4325    3.7121 C   0  0  0  0  0  0  0  0  0  0  0  0
    2.4475    7.3016    4.8107 C   0  0  0  0  0  0  0  0  0  0  0  0
    1.3069    7.1838    5.6304 C   0  0  0  0  0  0  0  0  0  0  0  0
    1.0800    8.3632    7.1157 Br  0  0  0  0  0  0  0  0  0  0  0  0
    0.3410    6.1929    5.3567 C   0  0  0  0  0  0  0  0  0  0  0  0
    1.5548    1.7432    1.4968 H   0  0  0  0  0  0  0  0  0  0  0  0
    0.9738   -1.0957    3.7119 H   0  0  0  0  0  0  0  0  0  0  0  0
    0.8981   -1.3357    1.9833 H   0  0  0  0  0  0  0  0  0  0  0  0
    1.9614   -3.2644    3.1434 H   0  0  0  0  0  0  0  0  0  0  0  0
    4.0134   -3.3957    1.7370 H   0  0  0  0  0  0  0  0  0  0  0  0
    2.6999   -2.6781    0.8292 H   0  0  0  0  0  0  0  0  0  0  0  0
    4.7946   -1.3520    0.5358 H   0  0  0  0  0  0  0  0  0  0  0  0
    5.8663   -1.7978    2.7447 H   0  0  0  0  0  0  0  0  0  0  0  0
    5.7334   -0.0799    2.4677 H   0  0  0  0  0  0  0  0  0  0  0  0
    4.9738   -0.6556    4.7742 H   0  0  0  0  0  0  0  0  0  0  0  0
    2.9125   -2.0224    5.0861 H   0  0  0  0  0  0  0  0  0  0  0  0
    4.1535   -2.9691    4.3062 H   0  0  0  0  0  0  0  0  0  0  0  0
    3.9267    1.2913    3.6291 H   0  0  0  0  0  0  0  0  0  0  0  0
    2.8142    0.4902    4.7065 H   0  0  0  0  0  0  0  0  0  0  0  0
    2.6125   -0.2066    0.4341 H   0  0  0  0  0  0  0  0  0  0  0  0
    3.8211    0.8689    1.0856 H   0  0  0  0  0  0  0  0  0  0  0  0
    0.1170    3.3441    1.9392 H   0  0  0  0  0  0  0  0  0  0  0  0
    1.7806    4.8025    2.5611 H   0  0  0  0  0  0  0  0  0  0  0  0
    3.4914    6.5309    3.0733 H   0  0  0  0  0  0  0  0  0  0  0  0
    3.1899    8.0630    5.0227 H   0  0  0  0  0  0  0  0  0  0  0  0
   -0.5337    6.1064    5.9938 H   0  0  0  0  0  0  0  0  0  0  0  0
  1  2  2  0
  2  3  1  0
  2 14  1  0
  4  3  1  6
  3 25  1  0
  4 12  1  0
  4 13  1  0
  4  5  1  0
  5  6  1  0
  5 26  1  0
  5 27  1  0
  6 11  1  0
  6  7  1  0
  6 28  1  1
  7  8  1  0
  7 29  1  0
  7 30  1  0
  8  9  1  0
  8 13  1  0
  8 31  1  6
  9 10  1  0
  9 32  1  0
  9 33  1  0
 10 11  1  0
 10 12  1  0
 10 34  1  1
 11 35  1  0
 11 36  1  0
 12 37  1  0
 12 38  1  0
 13 39  1  0
 13 40  1  0
 14 15  1  0
 14 41  1  0
 15 16  2  0
 15 17  2  0
 15 18  1  0
 18 24  1  0
 18 19  2  0
 19 20  1  0
 19 42  1  0
 20 21  2  0
 20 43  1  0
 21 22  1  0
 21 44  1  0
 22 23  1  0
 22 24  2  0
 24 45  1  0
M  END
>  <i_m_ct_stereo_status>  (92) 
1

>  <s_m_source_file>  (92) 
/var/tmp/pbs.5076255.sched01/tmp25ygy55i/01wbi4d2b.sdf

>  <i_m_source_file_index>  (92) 
36

>  <i_lp_mmshare_version>  (92) 
48012

>  <i_f3d_flags>  (92) 
0

>  <s_epik_input>  (92) 
QnJjKFtjSF0xKVtjSF1bY0hdW2NIXWMxUyg9TykoPU8pW05IXUMoPU8pW05IXUMyM1tDSDJdW0NASF00W0NIMl1bQ0BASF0oW0NIMl0zKVtDSDJdW0NASF0oW0NIMl00KVtDSDJdMg==

>  <s_epik_cmdline>  (92) 
J2VwaWtfcHl0aG9uJywgJy1waHQnLCAnMi4wJywgJy1waCcsICc3LjAnLCAnLXRuJywgJzgnLCAnLW1hJywgJzIwMCcsICctaW1hZScsICc8aW5maWxlLm1hZT4nLCAnLW9tYWUnLCAnPG91dGZpbGUubWFlPic=

>  <r_epik_Ionization_Penalty>  (92) 
2.40107

>  <r_epik_Ionization_Penalty_Charging>  (92) 
0

>  <r_epik_Ionization_Penalty_Neutral>  (92) 
2.40107

>  <r_epik_State_Penalty>  (92) 
2.55896

>  <r_epik_Charging_Adjusted_Penalty>  (92) 
2.55896

>  <i_epik_Tot_Q>  (92) 
0

>  <i_epik_Tot_abs_Q>  (92) 
0

>  <s_lp_Force_Field>  (92) 
OPLS3e

>  <r_lp_Energy>  (92) 
-5.62987

>  <b_lp_Chiralities_Consistent>  (92) 
1

>  <s_lp_Variant>  (92) 
27:0-2

>  <s_i_glide_gridfile>  (92) 
pfpi4k_grid

>  <i_i_glide_lignum>  (92) 
36

>  <i_i_glide_rotatable_bonds>  (92) 
5

>  <r_i_docking_score>  (92) 
-3.55524

>  <r_i_glide_ligand_efficiency>  (92) 
-0.148135

>  <r_i_glide_ligand_efficiency_sa>  (92) 
-0.427295

>  <r_i_glide_ligand_efficiency_ln>  (92) 
-0.850931

>  <r_i_glide_gscore>  (92) 
-3.55524

>  <r_i_glide_lipo>  (92) 
-0.168933

>  <r_i_glide_hbond>  (92) 
-0.16

>  <r_i_glide_metal>  (92) 
-0

>  <r_i_glide_rewards>  (92) 
-0.59093

>  <r_i_glide_evdw>  (92) 
-24.1413

>  <r_i_glide_ecoul>  (92) 
-9.42023

>  <r_i_glide_erotb>  (92) 
0.346412

>  <r_i_glide_esite>  (92) 
-0.361685

>  <r_i_glide_emodel>  (92) 
-42.1204

>  <r_i_glide_energy>  (92) 
-33.5615

>  <r_i_glide_einternal>  (92) 
1.70752

>  <r_i_glide_intrahb_reward>  (92) 
-0

>  <i_i_glide_confnum>  (92) 
1

>  <i_i_glide_posenum>  (92) 
32

>  <r_i_glide_eff_state_penalty>  (92) 
0

>  <ligand_id>  (92) 
27

>  <original_smiles>  (92) 
O=C(NC12CC3CC(CC(C3)C1)C2)NS(=O)(=O)c1cccc(Br)c1

>  <smiles>  (92) 
[H]c1c([H])c(Br)c([H])c(S(=O)(=O)N([H])C(=O)N([H])C23C([H])([H])C4([H])C([H])([H])C([H])(C([H])([H])C([H])(C4([H])[H])C2([H])[H])C3([H])[H])c1[H]

$$$$
27:1:2
     RDKit          3D

 45 48  0  0  1  0  0  0  0  0999 V2000
    3.6081   -0.0202    2.6143 O   0  0  0  0  0  0  0  0  0  0  0  0
    2.8268   -0.1447    1.6734 C   0  0  0  0  0  0  0  0  0  0  0  0
    1.5502    0.2815    1.6811 N   0  0  0  0  0  0  0  0  0  0  0  0
    0.8642    1.0077    2.7492 C   0  0  2  0  0  0  0  0  0  0  0  0
   -0.5804    1.3444    2.2927 C   0  0  0  0  0  0  0  0  0  0  0  0
   -1.3397    2.0754    3.4191 C   0  0  1  0  0  0  0  0  0  0  0  0
   -1.3921    1.1723    4.6665 C   0  0  0  0  0  0  0  0  0  0  0  0
    0.0434    0.8681    5.1345 C   0  0  2  0  0  0  0  0  0  0  0  0
    0.7927    2.1784    5.4583 C   0  0  0  0  0  0  0  0  0  0  0  0
    0.8286    3.0805    4.2058 C   0  0  2  0  0  0  0  0  0  0  0  0
   -0.6134    3.3963    3.7578 C   0  0  0  0  0  0  0  0  0  0  0  0
    1.5794    2.3518    3.0749 C   0  0  0  0  0  0  0  0  0  0  0  0
    0.7880    0.1223    4.0200 C   0  0  0  0  0  0  0  0  0  0  0  0
    3.2044   -0.7470    0.4793 N   0  0  0  0  0  0  0  0  0  0  0  0
    4.7847   -1.3349    0.0715 S   0  0  0  0  0  0  0  0  0  0  0  0
    4.8947   -1.2838   -1.3940 O   0  0  0  0  0  0  0  0  0  0  0  0
    5.7952   -0.6555    0.8983 O   0  0  0  0  0  0  0  0  0  0  0  0
    4.7224   -3.0681    0.5390 C   0  0  0  0  0  0  0  0  0  0  0  0
    5.9114   -3.7288    0.9097 C   0  0  0  0  0  0  0  0  0  0  0  0
    5.8706   -5.0949    1.2667 C   0  0  0  0  0  0  0  0  0  0  0  0
    4.6419   -5.7865    1.2581 C   0  0  0  0  0  0  0  0  0  0  0  0
    3.4581   -5.1219    0.8900 C   0  0  0  0  0  0  0  0  0  0  0  0
    1.8075   -6.0644    0.8799 Br  0  0  0  0  0  0  0  0  0  0  0  0
    3.4943   -3.7606    0.5293 C   0  0  0  0  0  0  0  0  0  0  0  0
    1.0239    0.1350    0.8221 H   0  0  0  0  0  0  0  0  0  0  0  0
   -0.5615    1.9598    1.3919 H   0  0  0  0  0  0  0  0  0  0  0  0
   -1.1235    0.4410    2.0192 H   0  0  0  0  0  0  0  0  0  0  0  0
   -2.3539    2.2966    3.0857 H   0  0  0  0  0  0  0  0  0  0  0  0
   -1.9576    1.6548    5.4645 H   0  0  0  0  0  0  0  0  0  0  0  0
   -1.9123    0.2440    4.4259 H   0  0  0  0  0  0  0  0  0  0  0  0
    0.0150    0.2381    6.0234 H   0  0  0  0  0  0  0  0  0  0  0  0
    0.3140    2.7008    6.2877 H   0  0  0  0  0  0  0  0  0  0  0  0
    1.8106    1.9544    5.7776 H   0  0  0  0  0  0  0  0  0  0  0  0
    1.3460    4.0099    4.4400 H   0  0  0  0  0  0  0  0  0  0  0  0
   -0.5961    4.0490    2.8877 H   0  0  0  0  0  0  0  0  0  0  0  0
   -1.1453    3.9338    4.5456 H   0  0  0  0  0  0  0  0  0  0  0  0
    2.6117    2.1997    3.3903 H   0  0  0  0  0  0  0  0  0  0  0  0
    1.6237    2.9814    2.1838 H   0  0  0  0  0  0  0  0  0  0  0  0
    0.2877   -0.8207    3.7893 H   0  0  0  0  0  0  0  0  0  0  0  0
    1.7826   -0.1359    4.3851 H   0  0  0  0  0  0  0  0  0  0  0  0
    2.4971   -0.9618   -0.2372 H   0  0  0  0  0  0  0  0  0  0  0  0
    6.8479   -3.1931    0.9118 H   0  0  0  0  0  0  0  0  0  0  0  0
    6.7789   -5.6086    1.5502 H   0  0  0  0  0  0  0  0  0  0  0  0
    4.6095   -6.8254    1.5360 H   0  0  0  0  0  0  0  0  0  0  0  0
    2.5813   -3.2695    0.2343 H   0  0  0  0  0  0  0  0  0  0  0  0
  1  2  2  0
  2  3  1  0
  2 14  1  0
  4  3  1  6
  3 25  1  0
  4 12  1  0
  4 13  1  0
  4  5  1  0
  5  6  1  0
  5 26  1  0
  5 27  1  0
  6 11  1  0
  6  7  1  0
  6 28  1  6
  7  8  1  0
  7 29  1  0
  7 30  1  0
  8  9  1  0
  8 13  1  0
  8 31  1  1
  9 10  1  0
  9 32  1  0
  9 33  1  0
 10 11  1  0
 10 12  1  0
 10 34  1  1
 11 35  1  0
 11 36  1  0
 12 37  1  0
 12 38  1  0
 13 39  1  0
 13 40  1  0
 14 15  1  0
 14 41  1  0
 15 16  2  0
 15 17  2  0
 15 18  1  0
 18 24  1  0
 18 19  2  0
 19 20  1  0
 19 42  1  0
 20 21  2  0
 20 43  1  0
 21 22  1  0
 21 44  1  0
 22 23  1  0
 22 24  2  0
 24 45  1  0
M  END
>  <i_m_ct_stereo_status>  (93) 
1

>  <s_m_source_file>  (93) 
/var/tmp/pbs.5076255.sched01/tmp25ygy55i/01wbi4d2b.sdf

>  <i_m_source_file_index>  (93) 
36

>  <i_lp_mmshare_version>  (93) 
48012

>  <i_f3d_flags>  (93) 
0

>  <s_epik_input>  (93) 
QnJjKFtjSF0xKVtjSF1bY0hdW2NIXWMxUyg9TykoPU8pW05IXUMoPU8pW05IXUMyM1tDSDJdW0NASF00W0NIMl1bQ0BASF0oW0NIMl0zKVtDSDJdW0NASF0oW0NIMl00KVtDSDJdMg==

>  <s_epik_cmdline>  (93) 
J2VwaWtfcHl0aG9uJywgJy1waHQnLCAnMi4wJywgJy1waCcsICc3LjAnLCAnLXRuJywgJzgnLCAnLW1hJywgJzIwMCcsICctaW1hZScsICc8aW5maWxlLm1hZT4nLCAnLW9tYWUnLCAnPG91dGZpbGUubWFlPic=

>  <r_epik_Ionization_Penalty>  (93) 
2.40107

>  <r_epik_Ionization_Penalty_Charging>  (93) 
0

>  <r_epik_Ionization_Penalty_Neutral>  (93) 
2.40107

>  <r_epik_State_Penalty>  (93) 
2.55896

>  <r_epik_Charging_Adjusted_Penalty>  (93) 
2.55896

>  <i_epik_Tot_Q>  (93) 
0

>  <i_epik_Tot_abs_Q>  (93) 
0

>  <s_lp_Force_Field>  (93) 
OPLS3e

>  <r_lp_Energy>  (93) 
-5.62987

>  <b_lp_Chiralities_Consistent>  (93) 
1

>  <s_lp_Variant>  (93) 
27:0-2

>  <s_i_glide_gridfile>  (93) 
pfpi4k_grid

>  <i_i_glide_lignum>  (93) 
36

>  <i_i_glide_rotatable_bonds>  (93) 
5

>  <r_i_docking_score>  (93) 
-3.53692

>  <r_i_glide_ligand_efficiency>  (93) 
-0.147372

>  <r_i_glide_ligand_efficiency_sa>  (93) 
-0.425093

>  <r_i_glide_ligand_efficiency_ln>  (93) 
-0.846547

>  <r_i_glide_gscore>  (93) 
-3.53692

>  <r_i_glide_lipo>  (93) 
-0.233808

>  <r_i_glide_hbond>  (93) 
-0.302025

>  <r_i_glide_metal>  (93) 
-0

>  <r_i_glide_rewards>  (93) 
-0.59093

>  <r_i_glide_evdw>  (93) 
-30.2586

>  <r_i_glide_ecoul>  (93) 
-6.70454

>  <r_i_glide_erotb>  (93) 
0.346412

>  <r_i_glide_esite>  (93) 
-0.237959

>  <r_i_glide_emodel>  (93) 
-46.0357

>  <r_i_glide_energy>  (93) 
-36.9631

>  <r_i_glide_einternal>  (93) 
0.736824

>  <r_i_glide_intrahb_reward>  (93) 
-0

>  <i_i_glide_confnum>  (93) 
3

>  <i_i_glide_posenum>  (93) 
1

>  <r_i_glide_eff_state_penalty>  (93) 
0

>  <ligand_id>  (93) 
27

>  <original_smiles>  (93) 
O=C(NC12CC3CC(CC(C3)C1)C2)NS(=O)(=O)c1cccc(Br)c1

>  <smiles>  (93) 
[H]c1c([H])c(Br)c([H])c(S(=O)(=O)N([H])C(=O)N([H])C23C([H])([H])C4([H])C([H])([H])C([H])(C([H])([H])C([H])(C4([H])[H])C2([H])[H])C3([H])[H])c1[H]

$$$$
29:0:0
     RDKit          3D

 39 41  0  0  1  0  0  0  0  0999 V2000
    4.5404    1.6226    8.8037 C   0  0  0  0  0  0  0  0  0  0  0  0
    3.6620    2.1408    7.8287 O   0  0  0  0  0  0  0  0  0  0  0  0
    2.7869    3.1243    8.1280 C   0  0  0  0  0  0  0  0  0  0  0  0
    2.7069    3.6603    9.2394 O   0  0  0  0  0  0  0  0  0  0  0  0
    1.9324    3.4909    6.9581 C   0  0  0  0  0  0  0  0  0  0  0  0
    2.1460    2.9457    5.7425 C   0  0  0  0  0  0  0  0  0  0  0  0
    1.4638    3.3164    4.5958 N   0  0  0  0  0  0  0  0  0  0  0  0
    1.3592    2.4257    3.5177 C   0  0  0  0  0  0  0  0  0  0  0  0
    0.1093    2.2214    2.8888 C   0  0  0  0  0  0  0  0  0  0  0  0
    0.0206    1.3229    1.8099 C   0  0  0  0  0  0  0  0  0  0  0  0
    1.1082    0.6225    1.3930 N   0  0  0  0  0  0  0  0  0  0  0  0
    2.3227    0.7807    1.9783 C   0  0  0  0  0  0  0  0  0  0  0  0
    2.4757    1.6823    3.0516 C   0  0  0  0  0  0  0  0  0  0  0  0
    0.9382    4.6252    4.5603 C   0  0  0  0  0  0  0  0  0  0  0  0
    0.7198    5.3299    3.3650 N   0  0  0  0  0  0  0  0  0  0  0  0
    0.6535    5.2256    5.7310 C   0  0  0  0  0  0  0  0  0  0  0  0
    0.2125    6.5858    5.7792 C   0  0  0  0  0  0  0  0  0  0  0  0
   -0.1815    7.6710    5.7582 N   0  0  0  0  0  0  0  0  0  0  0  0
    0.8822    4.5727    7.1044 C   0  0  1  0  0  0  0  0  0  0  0  0
   -0.4184    3.9784    7.5914 C   0  0  0  0  0  0  0  0  0  0  0  0
   -0.9308    4.1205    8.9200 C   0  0  0  0  0  0  0  0  0  0  0  0
   -2.1270    3.4708    9.1148 C   0  0  0  0  0  0  0  0  0  0  0  0
   -2.6539    2.6671    7.6572 S   0  0  0  0  0  0  0  0  0  0  0  0
   -1.2419    3.2142    6.7821 C   0  0  0  0  0  0  0  0  0  0  0  0
    5.1482    0.8226    8.3735 H   0  0  0  0  0  0  0  0  0  0  0  0
    3.9785    1.2025    9.6368 H   0  0  0  0  0  0  0  0  0  0  0  0
    5.2156    2.3938    9.1731 H   0  0  0  0  0  0  0  0  0  0  0  0
    2.9130    2.2057    5.5755 H   0  0  0  0  0  0  0  0  0  0  0  0
   -0.7534    2.7868    3.1818 H   0  0  0  0  0  0  0  0  0  0  0  0
   -0.9017    1.1432    1.2799 H   0  0  0  0  0  0  0  0  0  0  0  0
    3.1322    0.2035    1.5516 H   0  0  0  0  0  0  0  0  0  0  0  0
    3.4578    1.8467    3.4649 H   0  0  0  0  0  0  0  0  0  0  0  0
    0.2458    6.2144    3.2596 H   0  0  0  0  0  0  0  0  0  0  0  0
    0.8878    4.8865    2.4460 H   0  0  0  0  0  0  0  0  0  0  0  0
    1.2613    5.3482    7.7750 H   0  0  0  0  0  0  0  0  0  0  0  0
   -0.4076    4.6793    9.6834 H   0  0  0  0  0  0  0  0  0  0  0  0
   -2.7189    3.4057   10.0093 H   0  0  0  0  0  0  0  0  0  0  0  0
   -1.1096    2.9417    5.7648 H   0  0  0  0  0  0  0  0  0  0  0  0
    1.0099   -0.0142    0.5779 H   0  0  0  0  0  0  0  0  0  0  0  0
  1  2  1  0
  1 25  1  0
  1 26  1  0
  1 27  1  0
  2  3  1  0
  3  4  2  0
  3  5  1  0
  5 19  1  0
  5  6  2  0
  6  7  1  0
  6 28  1  0
  7  8  1  0
  7 14  1  0
  8 13  1  0
  8  9  2  0
  9 10  1  0
  9 29  1  0
 10 11  2  0
 10 30  1  0
 11 12  1  0
 11 39  1  0
 12 13  2  0
 12 31  1  0
 13 32  1  0
 14 16  2  0
 14 15  1  0
 15 33  1  0
 15 34  1  0
 16 17  1  0
 16 19  1  0
 17 18  3  0
 19 20  1  0
 19 35  1  1
 20 24  2  0
 20 21  1  0
 21 22  2  0
 21 36  1  0
 22 23  1  0
 22 37  1  0
 23 24  1  0
 24 38  1  0
M  CHG  1  11   1
M  END
>  <i_m_ct_stereo_status>  (94) 
1

>  <s_m_source_file>  (94) 
/var/tmp/pbs.5076255.sched01/tmp25ygy55i/01wbi4d2b.sdf

>  <i_m_source_file_index>  (94) 
38

>  <i_lp_mmshare_version>  (94) 
48012

>  <i_f3d_flags>  (94) 
0

>  <s_epik_input>  (94) 
W2NIXTFbY0hdbltjSF1bY0hdYzFOKFtDSF09QzJDKD1PKU9bQ0gzXSkvQyg9Ti9bSF0pW0NAQEhdKEMjTilbQ0BIXTJjM1tjSF1bY0hdc1tjSF0z

>  <s_epik_cmdline>  (94) 
J2VwaWtfcHl0aG9uJywgJy1waHQnLCAnMi4wJywgJy1waCcsICc3LjAnLCAnLXRuJywgJzgnLCAnLW1hJywgJzIwMCcsICctaW1hZScsICc8aW5maWxlLm1hZT4nLCAnLW9tYWUnLCAnPG91dGZpbGUubWFlPic=

>  <r_lp_tautomer_probability>  (94) 
1

>  <r_epik_Ionization_Penalty>  (94) 
0.00168064

>  <r_epik_Ionization_Penalty_Charging>  (94) 
0.00168063

>  <r_epik_Ionization_Penalty_Neutral>  (94) 
1.45014e-08

>  <r_epik_State_Penalty>  (94) 
0.00113461

>  <r_epik_Charging_Adjusted_Penalty>  (94) 
0.00281523

>  <i_epik_Tot_Q>  (94) 
1

>  <i_epik_Tot_abs_Q>  (94) 
1

>  <s_epik_Chemistry_Notes>  (94) 
This compound has an ester and may undergo hydrolysis at high or low pH.

>  <s_lp_Force_Field>  (94) 
OPLS3e

>  <r_lp_Energy>  (94) 
48.4621

>  <b_lp_Chiralities_Consistent>  (94) 
1

>  <s_lp_Variant>  (94) 
29:0-1

>  <s_i_glide_gridfile>  (94) 
pfpi4k_grid

>  <i_i_glide_lignum>  (94) 
38

>  <i_i_glide_rotatable_bonds>  (94) 
5

>  <r_i_docking_score>  (94) 
-4.22898

>  <r_i_glide_ligand_efficiency>  (94) 
-0.176207

>  <r_i_glide_ligand_efficiency_sa>  (94) 
-0.50827

>  <r_i_glide_ligand_efficiency_ln>  (94) 
-1.01219

>  <r_i_glide_gscore>  (94) 
-4.22898

>  <r_i_glide_lipo>  (94) 
-0.16052

>  <r_i_glide_hbond>  (94) 
-0.501438

>  <r_i_glide_metal>  (94) 
-0

>  <r_i_glide_rewards>  (94) 
-1.09505

>  <r_i_glide_evdw>  (94) 
-18.3021

>  <r_i_glide_ecoul>  (94) 
-12.0033

>  <r_i_glide_erotb>  (94) 
0.49287

>  <r_i_glide_esite>  (94) 
-0.249247

>  <r_i_glide_emodel>  (94) 
-40.0556

>  <r_i_glide_energy>  (94) 
-30.3054

>  <r_i_glide_einternal>  (94) 
0.713768

>  <r_i_glide_intrahb_reward>  (94) 
-0

>  <i_i_glide_confnum>  (94) 
2

>  <i_i_glide_posenum>  (94) 
1

>  <r_i_glide_eff_state_penalty>  (94) 
0

>  <ligand_id>  (94) 
29

>  <original_smiles>  (94) 
COC(=O)C1=CN(c2ccncc2)C(=N)C(C#N)C1c1ccsc1

>  <smiles>  (94) 
[H]C1=C(C(=O)OC([H])([H])[H])C([H])(c2c([H])sc([H])c2[H])C(C#N)=C(N([H])[H])N1c1c([H])c([H])[n+]([H])c([H])c1[H]

$$$$
29:0:1
     RDKit          3D

 39 41  0  0  1  0  0  0  0  0999 V2000
    1.5239   -6.9072    1.5174 C   0  0  0  0  0  0  0  0  0  0  0  0
    2.0467   -5.6306    1.1952 O   0  0  0  0  0  0  0  0  0  0  0  0
    2.5049   -4.7921    2.1560 C   0  0  0  0  0  0  0  0  0  0  0  0
    2.4792   -5.0574    3.3634 O   0  0  0  0  0  0  0  0  0  0  0  0
    3.0291   -3.5168    1.5819 C   0  0  0  0  0  0  0  0  0  0  0  0
    3.2248   -3.3801    0.2542 C   0  0  0  0  0  0  0  0  0  0  0  0
    3.8465   -2.2802   -0.3381 N   0  0  0  0  0  0  0  0  0  0  0  0
    3.5924   -1.9593   -1.6958 C   0  0  0  0  0  0  0  0  0  0  0  0
    3.8554   -0.6624   -2.2254 C   0  0  0  0  0  0  0  0  0  0  0  0
    3.5245   -0.3560   -3.5550 C   0  0  0  0  0  0  0  0  0  0  0  0
    3.0034   -1.3241   -4.3243 N   0  0  0  0  0  0  0  0  0  0  0  0
    2.7686   -2.5856   -3.9121 C   0  0  0  0  0  0  0  0  0  0  0  0
    3.0472   -2.9236   -2.5833 C   0  0  0  0  0  0  0  0  0  0  0  0
    4.6949   -1.5196    0.4970 C   0  0  0  0  0  0  0  0  0  0  0  0
    5.7726   -0.8294   -0.0263 N   0  0  0  0  0  0  0  0  0  0  0  0
    4.5203   -1.5470    1.8356 C   0  0  0  0  0  0  0  0  0  0  0  0
    5.3936   -0.8454    2.7097 C   0  0  0  0  0  0  0  0  0  0  0  0
    6.1222   -0.2425    3.3705 N   0  0  0  0  0  0  0  0  0  0  0  0
    3.4337   -2.3835    2.5286 C   0  0  1  0  0  0  0  0  0  0  0  0
    2.2400   -1.5198    2.8662 C   0  0  0  0  0  0  0  0  0  0  0  0
    1.7510   -0.4494    2.0474 C   0  0  0  0  0  0  0  0  0  0  0  0
    0.6448    0.1689    2.5615 C   0  0  0  0  0  0  0  0  0  0  0  0
    0.1654   -0.5285    4.0854 S   0  0  0  0  0  0  0  0  0  0  0  0
    1.4785   -1.6854    3.9936 C   0  0  0  0  0  0  0  0  0  0  0  0
    1.1866   -7.4187    0.6126 H   0  0  0  0  0  0  0  0  0  0  0  0
    0.6682   -6.8113    2.1840 H   0  0  0  0  0  0  0  0  0  0  0  0
    2.2819   -7.5298    1.9922 H   0  0  0  0  0  0  0  0  0  0  0  0
    3.0110   -4.1850   -0.4197 H   0  0  0  0  0  0  0  0  0  0  0  0
    4.2522    0.1283   -1.6187 H   0  0  0  0  0  0  0  0  0  0  0  0
    3.6452    0.6150   -4.0159 H   0  0  0  0  0  0  0  0  0  0  0  0
    2.3476   -3.2650   -4.6435 H   0  0  0  0  0  0  0  0  0  0  0  0
    2.8339   -3.9334   -2.2994 H   0  0  0  0  0  0  0  0  0  0  0  0
    6.1568   -0.0368    0.4518 H   0  0  0  0  0  0  0  0  0  0  0  0
    5.8497   -0.7718   -1.0414 H   0  0  0  0  0  0  0  0  0  0  0  0
    3.8797   -2.7962    3.4356 H   0  0  0  0  0  0  0  0  0  0  0  0
    2.2064   -0.1785    1.1035 H   0  0  0  0  0  0  0  0  0  0  0  0
    0.0884    0.9897    2.1268 H   0  0  0  0  0  0  0  0  0  0  0  0
    1.6118   -2.4162    4.7734 H   0  0  0  0  0  0  0  0  0  0  0  0
    2.7381   -1.1028   -5.2904 H   0  0  0  0  0  0  0  0  0  0  0  0
  1  2  1  0
  1 25  1  0
  1 26  1  0
  1 27  1  0
  2  3  1  0
  3  4  2  0
  3  5  1  0
  5 19  1  0
  5  6  2  0
  6  7  1  0
  6 28  1  0
  7  8  1  0
  7 14  1  0
  8 13  1  0
  8  9  2  0
  9 10  1  0
  9 29  1  0
 10 11  2  0
 10 30  1  0
 11 12  1  0
 11 39  1  0
 12 13  2  0
 12 31  1  0
 13 32  1  0
 14 16  2  0
 14 15  1  0
 15 33  1  0
 15 34  1  0
 16 17  1  0
 16 19  1  0
 17 18  3  0
 19 20  1  0
 19 35  1  1
 20 24  2  0
 20 21  1  0
 21 22  2  0
 21 36  1  0
 22 23  1  0
 22 37  1  0
 23 24  1  0
 24 38  1  0
M  CHG  1  11   1
M  END
>  <i_m_ct_stereo_status>  (95) 
1

>  <s_m_source_file>  (95) 
/var/tmp/pbs.5076255.sched01/tmp25ygy55i/01wbi4d2b.sdf

>  <i_m_source_file_index>  (95) 
38

>  <i_lp_mmshare_version>  (95) 
48012

>  <i_f3d_flags>  (95) 
0

>  <s_epik_input>  (95) 
W2NIXTFbY0hdbltjSF1bY0hdYzFOKFtDSF09QzJDKD1PKU9bQ0gzXSkvQyg9Ti9bSF0pW0NAQEhdKEMjTilbQ0BIXTJjM1tjSF1bY0hdc1tjSF0z

>  <s_epik_cmdline>  (95) 
J2VwaWtfcHl0aG9uJywgJy1waHQnLCAnMi4wJywgJy1waCcsICc3LjAnLCAnLXRuJywgJzgnLCAnLW1hJywgJzIwMCcsICctaW1hZScsICc8aW5maWxlLm1hZT4nLCAnLW9tYWUnLCAnPG91dGZpbGUubWFlPic=

>  <r_lp_tautomer_probability>  (95) 
1

>  <r_epik_Ionization_Penalty>  (95) 
0.00168064

>  <r_epik_Ionization_Penalty_Charging>  (95) 
0.00168063

>  <r_epik_Ionization_Penalty_Neutral>  (95) 
1.45014e-08

>  <r_epik_State_Penalty>  (95) 
0.00113461

>  <r_epik_Charging_Adjusted_Penalty>  (95) 
0.00281523

>  <i_epik_Tot_Q>  (95) 
1

>  <i_epik_Tot_abs_Q>  (95) 
1

>  <s_epik_Chemistry_Notes>  (95) 
This compound has an ester and may undergo hydrolysis at high or low pH.

>  <s_lp_Force_Field>  (95) 
OPLS3e

>  <r_lp_Energy>  (95) 
48.4621

>  <b_lp_Chiralities_Consistent>  (95) 
1

>  <s_lp_Variant>  (95) 
29:0-1

>  <s_i_glide_gridfile>  (95) 
pfpi4k_grid

>  <i_i_glide_lignum>  (95) 
38

>  <i_i_glide_rotatable_bonds>  (95) 
5

>  <r_i_docking_score>  (95) 
-3.486

>  <r_i_glide_ligand_efficiency>  (95) 
-0.14525

>  <r_i_glide_ligand_efficiency_sa>  (95) 
-0.418974

>  <r_i_glide_ligand_efficiency_ln>  (95) 
-0.83436

>  <r_i_glide_gscore>  (95) 
-3.486

>  <r_i_glide_lipo>  (95) 
-0.415736

>  <r_i_glide_hbond>  (95) 
-0.0150484

>  <r_i_glide_metal>  (95) 
-0

>  <r_i_glide_rewards>  (95) 
-1.24149

>  <r_i_glide_evdw>  (95) 
-24.9893

>  <r_i_glide_ecoul>  (95) 
-6.6028

>  <r_i_glide_erotb>  (95) 
0.49287

>  <r_i_glide_esite>  (95) 
-0.066715

>  <r_i_glide_emodel>  (95) 
-36.1397

>  <r_i_glide_energy>  (95) 
-31.5921

>  <r_i_glide_einternal>  (95) 
7.31171

>  <r_i_glide_intrahb_reward>  (95) 
-0

>  <i_i_glide_confnum>  (95) 
1

>  <i_i_glide_posenum>  (95) 
11

>  <r_i_glide_eff_state_penalty>  (95) 
0

>  <ligand_id>  (95) 
29

>  <original_smiles>  (95) 
COC(=O)C1=CN(c2ccncc2)C(=N)C(C#N)C1c1ccsc1

>  <smiles>  (95) 
[H]C1=C(C(=O)OC([H])([H])[H])C([H])(c2c([H])sc([H])c2[H])C(C#N)=C(N([H])[H])N1c1c([H])c([H])[n+]([H])c([H])c1[H]

$$$$
29:0:2
     RDKit          3D

 39 41  0  0  1  0  0  0  0  0999 V2000
    1.0159   -6.7219    2.6027 C   0  0  0  0  0  0  0  0  0  0  0  0
    1.5951   -5.5165    2.1320 O   0  0  0  0  0  0  0  0  0  0  0  0
    1.8104   -4.4652    2.9613 C   0  0  0  0  0  0  0  0  0  0  0  0
    1.4632   -4.4461    4.1443 O   0  0  0  0  0  0  0  0  0  0  0  0
    2.4919   -3.3245    2.2712 C   0  0  0  0  0  0  0  0  0  0  0  0
    2.7947   -3.3898    0.9582 C   0  0  0  0  0  0  0  0  0  0  0  0
    3.5399   -2.4382    0.2612 N   0  0  0  0  0  0  0  0  0  0  0  0
    3.4209   -2.3081   -1.1491 C   0  0  0  0  0  0  0  0  0  0  0  0
    2.9812   -3.3750   -1.9620 C   0  0  0  0  0  0  0  0  0  0  0  0
    2.8434   -3.2183   -3.3565 C   0  0  0  0  0  0  0  0  0  0  0  0
    3.1167   -2.0299   -3.9350 N   0  0  0  0  0  0  0  0  0  0  0  0
    3.5497   -0.9708   -3.2133 C   0  0  0  0  0  0  0  0  0  0  0  0
    3.7148   -1.1013   -1.8182 C   0  0  0  0  0  0  0  0  0  0  0  0
    4.3949   -1.6335    1.0468 C   0  0  0  0  0  0  0  0  0  0  0  0
    5.5620   -1.0959    0.5261 N   0  0  0  0  0  0  0  0  0  0  0  0
    4.1205   -1.4536    2.3660 C   0  0  0  0  0  0  0  0  0  0  0  0
    5.0166   -0.7246    3.2090 C   0  0  0  0  0  0  0  0  0  0  0  0
    5.7840   -0.1395    3.8431 N   0  0  0  0  0  0  0  0  0  0  0  0
    2.9221   -2.0995    3.0704 C   0  0  1  0  0  0  0  0  0  0  0  0
    1.7882   -1.1086    3.1721 C   0  0  0  0  0  0  0  0  0  0  0  0
    1.3894   -0.2162    2.1259 C   0  0  0  0  0  0  0  0  0  0  0  0
    0.3300    0.5814    2.4685 C   0  0  0  0  0  0  0  0  0  0  0  0
   -0.2246    0.2590    4.0832 S   0  0  0  0  0  0  0  0  0  0  0  0
    1.0054   -0.9653    4.2899 C   0  0  0  0  0  0  0  0  0  0  0  0
    0.9090   -7.4397    1.7866 H   0  0  0  0  0  0  0  0  0  0  0  0
    0.0262   -6.5414    3.0218 H   0  0  0  0  0  0  0  0  0  0  0  0
    1.6487   -7.1746    3.3651 H   0  0  0  0  0  0  0  0  0  0  0  0
    2.5223   -4.2625    0.3938 H   0  0  0  0  0  0  0  0  0  0  0  0
    2.7559   -4.3234   -1.5171 H   0  0  0  0  0  0  0  0  0  0  0  0
    2.5101   -4.0166   -4.0072 H   0  0  0  0  0  0  0  0  0  0  0  0
    3.7241   -0.0477   -3.7519 H   0  0  0  0  0  0  0  0  0  0  0  0
    4.0051   -0.2630   -1.2323 H   0  0  0  0  0  0  0  0  0  0  0  0
    6.0527   -0.3217    0.9464 H   0  0  0  0  0  0  0  0  0  0  0  0
    5.7733   -1.2407   -0.4544 H   0  0  0  0  0  0  0  0  0  0  0  0
    3.2582   -2.4257    4.0575 H   0  0  0  0  0  0  0  0  0  0  0  0
    1.8756   -0.1863    1.1612 H   0  0  0  0  0  0  0  0  0  0  0  0
   -0.1562    1.3375    1.8533 H   0  0  0  0  0  0  0  0  0  0  0  0
    1.0805   -1.5091    5.2230 H   0  0  0  0  0  0  0  0  0  0  0  0
    2.9519   -1.9178   -4.9402 H   0  0  0  0  0  0  0  0  0  0  0  0
  1  2  1  0
  1 25  1  0
  1 26  1  0
  1 27  1  0
  2  3  1  0
  3  4  2  0
  3  5  1  0
  5 19  1  0
  5  6  2  0
  6  7  1  0
  6 28  1  0
  7  8  1  0
  7 14  1  0
  8 13  1  0
  8  9  2  0
  9 10  1  0
  9 29  1  0
 10 11  2  0
 10 30  1  0
 11 12  1  0
 11 39  1  0
 12 13  2  0
 12 31  1  0
 13 32  1  0
 14 16  2  0
 14 15  1  0
 15 33  1  0
 15 34  1  0
 16 17  1  0
 16 19  1  0
 17 18  3  0
 19 20  1  0
 19 35  1  1
 20 24  2  0
 20 21  1  0
 21 22  2  0
 21 36  1  0
 22 23  1  0
 22 37  1  0
 23 24  1  0
 24 38  1  0
M  CHG  1  11   1
M  END
>  <i_m_ct_stereo_status>  (96) 
1

>  <s_m_source_file>  (96) 
/var/tmp/pbs.5076255.sched01/tmp25ygy55i/01wbi4d2b.sdf

>  <i_m_source_file_index>  (96) 
38

>  <i_lp_mmshare_version>  (96) 
48012

>  <i_f3d_flags>  (96) 
0

>  <s_epik_input>  (96) 
W2NIXTFbY0hdbltjSF1bY0hdYzFOKFtDSF09QzJDKD1PKU9bQ0gzXSkvQyg9Ti9bSF0pW0NAQEhdKEMjTilbQ0BIXTJjM1tjSF1bY0hdc1tjSF0z

>  <s_epik_cmdline>  (96) 
J2VwaWtfcHl0aG9uJywgJy1waHQnLCAnMi4wJywgJy1waCcsICc3LjAnLCAnLXRuJywgJzgnLCAnLW1hJywgJzIwMCcsICctaW1hZScsICc8aW5maWxlLm1hZT4nLCAnLW9tYWUnLCAnPG91dGZpbGUubWFlPic=

>  <r_lp_tautomer_probability>  (96) 
1

>  <r_epik_Ionization_Penalty>  (96) 
0.00168064

>  <r_epik_Ionization_Penalty_Charging>  (96) 
0.00168063

>  <r_epik_Ionization_Penalty_Neutral>  (96) 
1.45014e-08

>  <r_epik_State_Penalty>  (96) 
0.00113461

>  <r_epik_Charging_Adjusted_Penalty>  (96) 
0.00281523

>  <i_epik_Tot_Q>  (96) 
1

>  <i_epik_Tot_abs_Q>  (96) 
1

>  <s_epik_Chemistry_Notes>  (96) 
This compound has an ester and may undergo hydrolysis at high or low pH.

>  <s_lp_Force_Field>  (96) 
OPLS3e

>  <r_lp_Energy>  (96) 
48.4621

>  <b_lp_Chiralities_Consistent>  (96) 
1

>  <s_lp_Variant>  (96) 
29:0-1

>  <s_i_glide_gridfile>  (96) 
pfpi4k_grid

>  <i_i_glide_lignum>  (96) 
38

>  <i_i_glide_rotatable_bonds>  (96) 
5

>  <r_i_docking_score>  (96) 
-3.22726

>  <r_i_glide_ligand_efficiency>  (96) 
-0.134469

>  <r_i_glide_ligand_efficiency_sa>  (96) 
-0.387877

>  <r_i_glide_ligand_efficiency_ln>  (96) 
-0.772432

>  <r_i_glide_gscore>  (96) 
-3.22726

>  <r_i_glide_lipo>  (96) 
-0.321563

>  <r_i_glide_hbond>  (96) 
-0.0194241

>  <r_i_glide_metal>  (96) 
-0

>  <r_i_glide_rewards>  (96) 
-1.25728

>  <r_i_glide_evdw>  (96) 
-24.8155

>  <r_i_glide_ecoul>  (96) 
-5.60243

>  <r_i_glide_erotb>  (96) 
0.49287

>  <r_i_glide_esite>  (96) 
-0.0407293

>  <r_i_glide_emodel>  (96) 
-36.1744

>  <r_i_glide_energy>  (96) 
-30.4179

>  <r_i_glide_einternal>  (96) 
3.61955

>  <r_i_glide_intrahb_reward>  (96) 
-0

>  <i_i_glide_confnum>  (96) 
4

>  <i_i_glide_posenum>  (96) 
3

>  <r_i_glide_eff_state_penalty>  (96) 
0

>  <ligand_id>  (96) 
29

>  <original_smiles>  (96) 
COC(=O)C1=CN(c2ccncc2)C(=N)C(C#N)C1c1ccsc1

>  <smiles>  (96) 
[H]C1=C(C(=O)OC([H])([H])[H])C([H])(c2c([H])sc([H])c2[H])C(C#N)=C(N([H])[H])N1c1c([H])c([H])[n+]([H])c([H])c1[H]

$$$$
31:0:0
     RDKit          3D

 52 56  0  0  1  0  0  0  0  0999 V2000
    4.1276   -1.6952   -3.7733 C   0  0  0  0  0  0  0  0  0  0  0  0
    4.4516   -2.2565   -2.3809 C   0  0  2  0  0  0  0  0  0  0  0  0
    3.2296   -2.9657   -1.7875 C   0  0  0  0  0  0  0  0  0  0  0  0
    3.5061   -3.4082   -0.3472 C   0  0  0  0  0  0  0  0  0  0  0  0
    4.0160   -2.2053    0.5015 C   0  0  1  0  0  0  0  0  0  0  0  0
    5.1614   -1.6865   -0.1134 O   0  0  0  0  0  0  0  0  0  0  0  0
    4.9141   -1.1527   -1.4157 C   0  0  0  0  0  0  0  0  0  0  0  0
    3.0205   -1.2377    0.5807 O   0  0  0  0  0  0  0  0  0  0  0  0
    2.3401   -1.2257    1.8306 C   0  0  2  0  0  0  0  0  0  0  0  0
    2.4275    0.2133    2.3800 C   0  0  0  0  0  0  0  0  0  0  0  0
    3.6673    0.4318    3.2562 C   0  0  0  0  0  0  0  0  0  0  0  0
    3.6903   -0.4851    4.5118 C   0  0  2  0  0  0  0  0  0  0  0  0
    2.9578    0.2647    5.6665 C   0  0  0  0  0  0  0  0  0  0  0  0
    5.1546   -0.8233    4.9389 C   0  0  1  0  0  0  0  0  0  0  0  0
    5.7669    0.0698    5.8396 O   0  0  0  0  0  0  0  0  0  0  0  0
    5.1257   -2.2237    5.4985 C   0  0  1  0  0  0  0  0  0  0  0  0
    4.1010   -2.5338    6.4505 O   0  0  0  0  0  0  0  0  0  0  0  0
    3.8531   -2.8762    5.0772 C   0  0  1  0  0  0  0  0  0  0  0  0
    3.0488   -1.9039    4.2324 C   0  0  1  0  0  0  0  0  0  0  0  0
    1.7106   -1.9828    4.7107 O   0  0  0  0  0  0  0  0  0  0  0  0
    3.0117   -2.3066    2.7090 C   0  0  1  0  0  0  0  0  0  0  0  0
    2.2344   -3.4906    2.5835 O   0  0  0  0  0  0  0  0  0  0  0  0
    4.3568   -2.5262    1.9764 C   0  0  1  0  0  0  0  0  0  0  0  0
    5.0746   -3.8859    2.1512 C   0  0  0  0  0  0  0  0  0  0  0  0
    3.3300   -0.9539   -3.7276 H   0  0  0  0  0  0  0  0  0  0  0  0
    3.7967   -2.4867   -4.4450 H   0  0  0  0  0  0  0  0  0  0  0  0
    4.9929   -1.2156   -4.2251 H   0  0  0  0  0  0  0  0  0  0  0  0
    5.2633   -2.9791   -2.4754 H   0  0  0  0  0  0  0  0  0  0  0  0
    2.3598   -2.3069   -1.8136 H   0  0  0  0  0  0  0  0  0  0  0  0
    2.9781   -3.8369   -2.3921 H   0  0  0  0  0  0  0  0  0  0  0  0
    2.6027   -3.8320    0.0873 H   0  0  0  0  0  0  0  0  0  0  0  0
    4.2702   -4.1882   -0.3610 H   0  0  0  0  0  0  0  0  0  0  0  0
    5.8268   -0.6970   -1.7860 H   0  0  0  0  0  0  0  0  0  0  0  0
    4.1868   -0.3412   -1.3717 H   0  0  0  0  0  0  0  0  0  0  0  0
    1.2913   -1.4575    1.6455 H   0  0  0  0  0  0  0  0  0  0  0  0
    2.4328    0.9182    1.5488 H   0  0  0  0  0  0  0  0  0  0  0  0
    1.5330    0.4516    2.9542 H   0  0  0  0  0  0  0  0  0  0  0  0
    4.5532    0.2936    2.6384 H   0  0  0  0  0  0  0  0  0  0  0  0
    3.7090    1.4773    3.5595 H   0  0  0  0  0  0  0  0  0  0  0  0
    2.9330   -0.3224    6.5834 H   0  0  0  0  0  0  0  0  0  0  0  0
    1.9279    0.5042    5.4070 H   0  0  0  0  0  0  0  0  0  0  0  0
    3.4434    1.2118    5.9010 H   0  0  0  0  0  0  0  0  0  0  0  0
    5.8103   -0.8465    4.0718 H   0  0  0  0  0  0  0  0  0  0  0  0
    5.2839    0.0349    6.6508 H   0  0  0  0  0  0  0  0  0  0  0  0
    6.0502   -2.7970    5.5794 H   0  0  0  0  0  0  0  0  0  0  0  0
    3.7897   -3.9452    4.8714 H   0  0  0  0  0  0  0  0  0  0  0  0
    1.1812   -1.3777    4.2162 H   0  0  0  0  0  0  0  0  0  0  0  0
    2.6546   -4.1719    3.0842 H   0  0  0  0  0  0  0  0  0  0  0  0
    5.0632   -1.7602    2.2740 H   0  0  0  0  0  0  0  0  0  0  0  0
    4.4322   -4.7347    1.9201 H   0  0  0  0  0  0  0  0  0  0  0  0
    5.4400   -4.0163    3.1677 H   0  0  0  0  0  0  0  0  0  0  0  0
    5.9411   -3.9436    1.4955 H   0  0  0  0  0  0  0  0  0  0  0  0
  1  2  1  0
  1 25  1  0
  1 26  1  0
  1 27  1  0
  2  7  1  0
  2  3  1  0
  2 28  1  6
  3  4  1  0
  3 29  1  0
  3 30  1  0
  4  5  1  0
  4 31  1  0
  4 32  1  0
  5 23  1  0
  5  6  1  6
  5  8  1  0
  6  7  1  0
  7 33  1  0
  7 34  1  0
  8  9  1  0
  9 21  1  0
  9 10  1  0
  9 35  1  6
 10 11  1  0
 10 36  1  0
 10 37  1  0
 11 12  1  0
 11 38  1  0
 11 39  1  0
 12 19  1  0
 12 13  1  1
 12 14  1  0
 13 40  1  0
 13 41  1  0
 13 42  1  0
 14 15  1  0
 14 16  1  0
 14 43  1  6
 15 44  1  0
 16 18  1  0
 16 17  1  0
 16 45  1  1
 17 18  1  0
 18 19  1  0
 18 46  1  1
 19 20  1  1
 19 21  1  0
 20 47  1  0
 21 22  1  1
 21 23  1  0
 22 48  1  0
 23 24  1  0
 23 49  1  1
 24 50  1  0
 24 51  1  0
 24 52  1  0
M  END
>  <i_m_ct_stereo_status>  (97) 
1

>  <s_m_source_file>  (97) 
/var/tmp/pbs.5076255.sched01/tmp25ygy55i/01wbi4d2b.sdf

>  <i_m_source_file_index>  (97) 
40

>  <i_lp_mmshare_version>  (97) 
48012

>  <i_f3d_flags>  (97) 
0

>  <s_epik_input>  (97) 
TzFbQ0gyXVtDQEhdKFtDSDNdKVtDSDJdW0NIMl1bQ0BdMTJPW0NASF0zW0NAQF0oW09IXSkoW0NASF0yW0NIM10pW0NAXTQoW09IXSlbQ0BdKFtDSDNdKShbQ0gyXVtDSDJdMylbQ0BASF0oW09IXSlbQ0BASF01W0NASF00TzU=

>  <s_epik_cmdline>  (97) 
J2VwaWtfcHl0aG9uJywgJy1waHQnLCAnMi4wJywgJy1waCcsICc3LjAnLCAnLXRuJywgJzgnLCAnLW1hJywgJzIwMCcsICctaW1hZScsICc8aW5maWxlLm1hZT4nLCAnLW9tYWUnLCAnPG91dGZpbGUubWFlPic=

>  <r_lp_tautomer_probability>  (97) 
1

>  <r_epik_Ionization_Penalty>  (97) 
1.62852e-07

>  <r_epik_Ionization_Penalty_Charging>  (97) 
0

>  <r_epik_Ionization_Penalty_Neutral>  (97) 
1.62852e-07

>  <r_epik_State_Penalty>  (97) 
-0

>  <r_epik_Charging_Adjusted_Penalty>  (97) 
0

>  <i_epik_Tot_Q>  (97) 
0

>  <i_epik_Tot_abs_Q>  (97) 
0

>  <s_lp_Force_Field>  (97) 
OPLS3e

>  <r_lp_Energy>  (97) 
30.8102

>  <b_lp_Chiralities_Consistent>  (97) 
1

>  <s_lp_Variant>  (97) 
31:0-1

>  <s_i_glide_gridfile>  (97) 
pfpi4k_grid

>  <i_i_glide_lignum>  (97) 
40

>  <i_i_glide_rotatable_bonds>  (97) 
3

>  <r_i_docking_score>  (97) 
-2.47561

>  <r_i_glide_ligand_efficiency>  (97) 
-0.10315

>  <r_i_glide_ligand_efficiency_sa>  (97) 
-0.297537

>  <r_i_glide_ligand_efficiency_ln>  (97) 
-0.592527

>  <r_i_glide_gscore>  (97) 
-2.47561

>  <r_i_glide_lipo>  (97) 
-0.36963

>  <r_i_glide_hbond>  (97) 
0

>  <r_i_glide_metal>  (97) 
-0

>  <r_i_glide_rewards>  (97) 
-1.0881

>  <r_i_glide_evdw>  (97) 
-22.8221

>  <r_i_glide_ecoul>  (97) 
0.91808

>  <r_i_glide_erotb>  (97) 
0

>  <r_i_glide_esite>  (97) 
-0.014482

>  <r_i_glide_emodel>  (97) 
-25.1798

>  <r_i_glide_energy>  (97) 
-21.904

>  <r_i_glide_einternal>  (97) 
0.00152827

>  <r_i_glide_intrahb_reward>  (97) 
-0

>  <i_i_glide_confnum>  (97) 
2

>  <i_i_glide_posenum>  (97) 
29

>  <r_i_glide_eff_state_penalty>  (97) 
0

>  <ligand_id>  (97) 
31

>  <original_smiles>  (97) 
CC1CCC2(OC1)OC1CCC3(C)C(O)C4OC4C3(O)C1(O)C2C

>  <smiles>  (97) 
[H]OC1([H])C2([H])OC2([H])C2(O[H])C3(O[H])C([H])(OC4(OC([H])([H])C([H])(C([H])([H])[H])C([H])([H])C4([H])[H])C3([H])C([H])([H])[H])C([H])([H])C([H])([H])C12C([H])([H])[H]

$$$$
31:0:1
     RDKit          3D

 52 56  0  0  1  0  0  0  0  0999 V2000
    3.8341   -0.8728   -2.9359 C   0  0  0  0  0  0  0  0  0  0  0  0
    4.3852   -1.8373   -1.8716 C   0  0  2  0  0  0  0  0  0  0  0  0
    3.4224   -3.0112   -1.6530 C   0  0  0  0  0  0  0  0  0  0  0  0
    3.9153   -3.9095   -0.5137 C   0  0  0  0  0  0  0  0  0  0  0  0
    4.1544   -3.0627    0.7671 C   0  0  1  0  0  0  0  0  0  0  0  0
    5.0782   -2.0538    0.4638 O   0  0  0  0  0  0  0  0  0  0  0  0
    4.6256   -1.1256   -0.5253 C   0  0  0  0  0  0  0  0  0  0  0  0
    2.9339   -2.5242    1.1815 O   0  0  0  0  0  0  0  0  0  0  0  0
    2.4088   -3.1579    2.3398 C   0  0  2  0  0  0  0  0  0  0  0  0
    2.1990   -2.0748    3.4192 C   0  0  0  0  0  0  0  0  0  0  0  0
    3.4105   -1.9092    4.3478 C   0  0  0  0  0  0  0  0  0  0  0  0
    3.7485   -3.2147    5.1266 C   0  0  2  0  0  0  0  0  0  0  0  0
    2.9473   -3.2043    6.4611 C   0  0  0  0  0  0  0  0  0  0  0  0
    5.2774   -3.3127    5.4225 C   0  0  1  0  0  0  0  0  0  0  0  0
    5.7250   -2.7258    6.6229 O   0  0  0  0  0  0  0  0  0  0  0  0
    5.6406   -4.7735    5.3613 C   0  0  1  0  0  0  0  0  0  0  0  0
    4.8031   -5.6944    6.0736 O   0  0  0  0  0  0  0  0  0  0  0  0
    4.5391   -5.5059    4.6757 C   0  0  1  0  0  0  0  0  0  0  0  0
    3.4595   -4.5192    4.2807 C   0  0  1  0  0  0  0  0  0  0  0  0
    2.2235   -5.1232    4.6297 O   0  0  0  0  0  0  0  0  0  0  0  0
    3.3958   -4.2826    2.7257 C   0  0  1  0  0  0  0  0  0  0  0  0
    2.9302   -5.4897    2.1383 O   0  0  0  0  0  0  0  0  0  0  0  0
    4.6862   -3.8431    1.9940 C   0  0  1  0  0  0  0  0  0  0  0  0
    5.7299   -4.9198    1.6284 C   0  0  0  0  0  0  0  0  0  0  0  0
    2.8775   -0.4505   -2.6267 H   0  0  0  0  0  0  0  0  0  0  0  0
    3.6658   -1.3793   -3.8865 H   0  0  0  0  0  0  0  0  0  0  0  0
    4.5144   -0.0423   -3.1151 H   0  0  0  0  0  0  0  0  0  0  0  0
    5.3397   -2.2329   -2.2212 H   0  0  0  0  0  0  0  0  0  0  0  0
    2.4179   -2.6463   -1.4278 H   0  0  0  0  0  0  0  0  0  0  0  0
    3.3420   -3.6015   -2.5671 H   0  0  0  0  0  0  0  0  0  0  0  0
    3.1778   -4.6879   -0.3279 H   0  0  0  0  0  0  0  0  0  0  0  0
    4.8474   -4.3878   -0.8137 H   0  0  0  0  0  0  0  0  0  0  0  0
    5.3819   -0.3501   -0.6392 H   0  0  0  0  0  0  0  0  0  0  0  0
    3.7154   -0.6270   -0.1850 H   0  0  0  0  0  0  0  0  0  0  0  0
    1.4306   -3.5617    2.0818 H   0  0  0  0  0  0  0  0  0  0  0  0
    1.9584   -1.1227    2.9468 H   0  0  0  0  0  0  0  0  0  0  0  0
    1.3295   -2.3315    4.0256 H   0  0  0  0  0  0  0  0  0  0  0  0
    4.2516   -1.5561    3.7533 H   0  0  0  0  0  0  0  0  0  0  0  0
    3.2153   -1.0973    5.0508 H   0  0  0  0  0  0  0  0  0  0  0  0
    3.1398   -4.0932    7.0594 H   0  0  0  0  0  0  0  0  0  0  0  0
    1.8728   -3.1601    6.2859 H   0  0  0  0  0  0  0  0  0  0  0  0
    3.1997   -2.3394    7.0741 H   0  0  0  0  0  0  0  0  0  0  0  0
    5.8278   -2.8205    4.6293 H   0  0  0  0  0  0  0  0  0  0  0  0
    5.3490   -3.2140    7.3386 H   0  0  0  0  0  0  0  0  0  0  0  0
    6.6797   -5.0722    5.2274 H   0  0  0  0  0  0  0  0  0  0  0  0
    4.7259   -6.3761    4.0522 H   0  0  0  0  0  0  0  0  0  0  0  0
    2.1822   -5.9326    4.1444 H   0  0  0  0  0  0  0  0  0  0  0  0
    2.9991   -5.3968    1.1987 H   0  0  0  0  0  0  0  0  0  0  0  0
    5.2026   -3.1033    2.5926 H   0  0  0  0  0  0  0  0  0  0  0  0
    5.3021   -5.7438    1.0595 H   0  0  0  0  0  0  0  0  0  0  0  0
    6.1956   -5.3437    2.5149 H   0  0  0  0  0  0  0  0  0  0  0  0
    6.5310   -4.4877    1.0317 H   0  0  0  0  0  0  0  0  0  0  0  0
  1  2  1  0
  1 25  1  0
  1 26  1  0
  1 27  1  0
  2  7  1  0
  2  3  1  0
  2 28  1  6
  3  4  1  0
  3 29  1  0
  3 30  1  0
  4  5  1  0
  4 31  1  0
  4 32  1  0
  5 23  1  0
  5  6  1  6
  5  8  1  0
  6  7  1  0
  7 33  1  0
  7 34  1  0
  8  9  1  0
  9 21  1  0
  9 10  1  0
  9 35  1  6
 10 11  1  0
 10 36  1  0
 10 37  1  0
 11 12  1  0
 11 38  1  0
 11 39  1  0
 12 19  1  0
 12 13  1  1
 12 14  1  0
 13 40  1  0
 13 41  1  0
 13 42  1  0
 14 15  1  0
 14 16  1  0
 14 43  1  6
 15 44  1  0
 16 18  1  0
 16 17  1  0
 16 45  1  6
 17 18  1  0
 18 19  1  0
 18 46  1  6
 19 20  1  1
 19 21  1  0
 20 47  1  0
 21 22  1  6
 21 23  1  0
 22 48  1  0
 23 24  1  0
 23 49  1  1
 24 50  1  0
 24 51  1  0
 24 52  1  0
M  END
>  <i_m_ct_stereo_status>  (98) 
1

>  <s_m_source_file>  (98) 
/var/tmp/pbs.5076255.sched01/tmp25ygy55i/01wbi4d2b.sdf

>  <i_m_source_file_index>  (98) 
40

>  <i_lp_mmshare_version>  (98) 
48012

>  <i_f3d_flags>  (98) 
0

>  <s_epik_input>  (98) 
TzFbQ0gyXVtDQEhdKFtDSDNdKVtDSDJdW0NIMl1bQ0BdMTJPW0NASF0zW0NAQF0oW09IXSkoW0NASF0yW0NIM10pW0NAXTQoW09IXSlbQ0BdKFtDSDNdKShbQ0gyXVtDSDJdMylbQ0BASF0oW09IXSlbQ0BASF01W0NASF00TzU=

>  <s_epik_cmdline>  (98) 
J2VwaWtfcHl0aG9uJywgJy1waHQnLCAnMi4wJywgJy1waCcsICc3LjAnLCAnLXRuJywgJzgnLCAnLW1hJywgJzIwMCcsICctaW1hZScsICc8aW5maWxlLm1hZT4nLCAnLW9tYWUnLCAnPG91dGZpbGUubWFlPic=

>  <r_lp_tautomer_probability>  (98) 
1

>  <r_epik_Ionization_Penalty>  (98) 
1.62852e-07

>  <r_epik_Ionization_Penalty_Charging>  (98) 
0

>  <r_epik_Ionization_Penalty_Neutral>  (98) 
1.62852e-07

>  <r_epik_State_Penalty>  (98) 
-0

>  <r_epik_Charging_Adjusted_Penalty>  (98) 
0

>  <i_epik_Tot_Q>  (98) 
0

>  <i_epik_Tot_abs_Q>  (98) 
0

>  <s_lp_Force_Field>  (98) 
OPLS3e

>  <r_lp_Energy>  (98) 
30.8102

>  <b_lp_Chiralities_Consistent>  (98) 
1

>  <s_lp_Variant>  (98) 
31:0-1

>  <s_i_glide_gridfile>  (98) 
pfpi4k_grid

>  <i_i_glide_lignum>  (98) 
40

>  <i_i_glide_rotatable_bonds>  (98) 
3

>  <r_i_docking_score>  (98) 
-2.34391

>  <r_i_glide_ligand_efficiency>  (98) 
-0.0976629

>  <r_i_glide_ligand_efficiency_sa>  (98) 
-0.281708

>  <r_i_glide_ligand_efficiency_ln>  (98) 
-0.561005

>  <r_i_glide_gscore>  (98) 
-2.34391

>  <r_i_glide_lipo>  (98) 
-0.149627

>  <r_i_glide_hbond>  (98) 
0

>  <r_i_glide_metal>  (98) 
-0

>  <r_i_glide_rewards>  (98) 
-1.09761

>  <r_i_glide_evdw>  (98) 
-20.101

>  <r_i_glide_ecoul>  (98) 
-0.610814

>  <r_i_glide_erotb>  (98) 
0

>  <r_i_glide_esite>  (98) 
0

>  <r_i_glide_emodel>  (98) 
-23.7209

>  <r_i_glide_energy>  (98) 
-20.7118

>  <r_i_glide_einternal>  (98) 
0.153616

>  <r_i_glide_intrahb_reward>  (98) 
-0

>  <i_i_glide_confnum>  (98) 
1

>  <i_i_glide_posenum>  (98) 
6

>  <r_i_glide_eff_state_penalty>  (98) 
0

>  <ligand_id>  (98) 
31

>  <original_smiles>  (98) 
CC1CCC2(OC1)OC1CCC3(C)C(O)C4OC4C3(O)C1(O)C2C

>  <smiles>  (98) 
[H]OC1([H])C2([H])OC2([H])C2(O[H])C3(O[H])C([H])(OC4(OC([H])([H])C([H])(C([H])([H])[H])C([H])([H])C4([H])[H])C3([H])C([H])([H])[H])C([H])([H])C([H])([H])C12C([H])([H])[H]

$$$$
31:0:2
     RDKit          3D

 52 56  0  0  1  0  0  0  0  0999 V2000
    3.8170   -1.2189   -3.3287 C   0  0  0  0  0  0  0  0  0  0  0  0
    4.2636   -2.0801   -2.1367 C   0  0  2  0  0  0  0  0  0  0  0  0
    3.1511   -3.0491   -1.7170 C   0  0  0  0  0  0  0  0  0  0  0  0
    3.5462   -3.8160   -0.4512 C   0  0  0  0  0  0  0  0  0  0  0  0
    3.9637   -2.8203    0.6691 C   0  0  1  0  0  0  0  0  0  0  0  0
    5.0161   -2.0304    0.1899 O   0  0  0  0  0  0  0  0  0  0  0  0
    4.6618   -1.2138   -0.9290 C   0  0  0  0  0  0  0  0  0  0  0  0
    2.8620   -2.0359    1.0091 O   0  0  0  0  0  0  0  0  0  0  0  0
    2.2831   -2.3897    2.2576 C   0  0  2  0  0  0  0  0  0  0  0  0
    2.2739   -1.1345    3.1536 C   0  0  0  0  0  0  0  0  0  0  0  0
    3.5324   -1.0150    4.0251 C   0  0  0  0  0  0  0  0  0  0  0  0
    3.7019   -2.2158    4.9985 C   0  0  2  0  0  0  0  0  0  0  0  0
    2.9658   -1.8718    6.3277 C   0  0  0  0  0  0  0  0  0  0  0  0
    5.2091   -2.5029    5.2852 C   0  0  1  0  0  0  0  0  0  0  0  0
    5.7852   -1.8149    6.3744 O   0  0  0  0  0  0  0  0  0  0  0  0
    5.3406   -3.9929    5.4578 C   0  0  1  0  0  0  0  0  0  0  0  0
    4.3965   -4.6442    6.3184 O   0  0  0  0  0  0  0  0  0  0  0  0
    4.1156   -4.6450    4.9108 C   0  0  1  0  0  0  0  0  0  0  0  0
    3.1841   -3.5757    4.3785 C   0  0  1  0  0  0  0  0  0  0  0  0
    1.8841   -3.8917    4.8603 O   0  0  0  0  0  0  0  0  0  0  0  0
    3.0997   -3.5825    2.8046 C   0  0  1  0  0  0  0  0  0  0  0  0
    2.4523   -4.7858    2.4098 O   0  0  0  0  0  0  0  0  0  0  0  0
    4.4157   -3.4658    2.0008 C   0  0  1  0  0  0  0  0  0  0  0  0
    5.2736   -4.7355    1.7993 C   0  0  0  0  0  0  0  0  0  0  0  0
    2.9543   -0.6046   -3.0674 H   0  0  0  0  0  0  0  0  0  0  0  0
    3.5286   -1.8373   -4.1788 H   0  0  0  0  0  0  0  0  0  0  0  0
    4.6099   -0.5497   -3.6575 H   0  0  0  0  0  0  0  0  0  0  0  0
    5.1370   -2.6628   -2.4345 H   0  0  0  0  0  0  0  0  0  0  0  0
    2.2185   -2.5121   -1.5422 H   0  0  0  0  0  0  0  0  0  0  0  0
    2.9516   -3.7582   -2.5215 H   0  0  0  0  0  0  0  0  0  0  0  0
    2.7070   -4.4279   -0.1284 H   0  0  0  0  0  0  0  0  0  0  0  0
    4.3830   -4.4760   -0.6805 H   0  0  0  0  0  0  0  0  0  0  0  0
    5.5125   -0.5847   -1.1849 H   0  0  0  0  0  0  0  0  0  0  0  0
    3.8504   -0.5389   -0.6549 H   0  0  0  0  0  0  0  0  0  0  0  0
    1.2454   -2.6609    2.0837 H   0  0  0  0  0  0  0  0  0  0  0  0
    2.1628   -0.2422    2.5355 H   0  0  0  0  0  0  0  0  0  0  0  0
    1.3945   -1.1521    3.7997 H   0  0  0  0  0  0  0  0  0  0  0  0
    4.3921   -0.8949    3.3675 H   0  0  0  0  0  0  0  0  0  0  0  0
    3.4882   -0.0836    4.5902 H   0  0  0  0  0  0  0  0  0  0  0  0
    3.0473   -2.6687    7.0674 H   0  0  0  0  0  0  0  0  0  0  0  0
    1.9031   -1.6835    6.1673 H   0  0  0  0  0  0  0  0  0  0  0  0
    3.3689   -0.9685    6.7866 H   0  0  0  0  0  0  0  0  0  0  0  0
    5.8091   -2.2350    4.4199 H   0  0  0  0  0  0  0  0  0  0  0  0
    5.3793   -2.1305    7.1668 H   0  0  0  0  0  0  0  0  0  0  0  0
    6.3170   -4.4661    5.3676 H   0  0  0  0  0  0  0  0  0  0  0  0
    4.1448   -5.6237    4.4384 H   0  0  0  0  0  0  0  0  0  0  0  0
    1.9655   -4.0643    5.7873 H   0  0  0  0  0  0  0  0  0  0  0  0
    2.6177   -4.9177    1.4885 H   0  0  0  0  0  0  0  0  0  0  0  0
    5.0587   -2.7290    2.4673 H   0  0  0  0  0  0  0  0  0  0  0  0
    4.7088   -5.5669    1.3784 H   0  0  0  0  0  0  0  0  0  0  0  0
    5.7053   -5.0801    2.7366 H   0  0  0  0  0  0  0  0  0  0  0  0
    6.1078   -4.5330    1.1282 H   0  0  0  0  0  0  0  0  0  0  0  0
  1  2  1  0
  1 25  1  0
  1 26  1  0
  1 27  1  0
  2  7  1  0
  2  3  1  0
  2 28  1  6
  3  4  1  0
  3 29  1  0
  3 30  1  0
  4  5  1  0
  4 31  1  0
  4 32  1  0
  5 23  1  0
  5  6  1  6
  5  8  1  0
  6  7  1  0
  7 33  1  0
  7 34  1  0
  8  9  1  0
  9 21  1  0
  9 10  1  0
  9 35  1  6
 10 11  1  0
 10 36  1  0
 10 37  1  0
 11 12  1  0
 11 38  1  0
 11 39  1  0
 12 19  1  0
 12 13  1  1
 12 14  1  0
 13 40  1  0
 13 41  1  0
 13 42  1  0
 14 15  1  0
 14 16  1  0
 14 43  1  6
 15 44  1  0
 16 18  1  0
 16 17  1  0
 16 45  1  6
 17 18  1  0
 18 19  1  0
 18 46  1  6
 19 20  1  1
 19 21  1  0
 20 47  1  0
 21 22  1  6
 21 23  1  0
 22 48  1  0
 23 24  1  0
 23 49  1  1
 24 50  1  0
 24 51  1  0
 24 52  1  0
M  END
>  <i_m_ct_stereo_status>  (99) 
1

>  <s_m_source_file>  (99) 
/var/tmp/pbs.5076255.sched01/tmp25ygy55i/01wbi4d2b.sdf

>  <i_m_source_file_index>  (99) 
40

>  <i_lp_mmshare_version>  (99) 
48012

>  <i_f3d_flags>  (99) 
0

>  <s_epik_input>  (99) 
TzFbQ0gyXVtDQEhdKFtDSDNdKVtDSDJdW0NIMl1bQ0BdMTJPW0NASF0zW0NAQF0oW09IXSkoW0NASF0yW0NIM10pW0NAXTQoW09IXSlbQ0BdKFtDSDNdKShbQ0gyXVtDSDJdMylbQ0BASF0oW09IXSlbQ0BASF01W0NASF00TzU=

>  <s_epik_cmdline>  (99) 
J2VwaWtfcHl0aG9uJywgJy1waHQnLCAnMi4wJywgJy1waCcsICc3LjAnLCAnLXRuJywgJzgnLCAnLW1hJywgJzIwMCcsICctaW1hZScsICc8aW5maWxlLm1hZT4nLCAnLW9tYWUnLCAnPG91dGZpbGUubWFlPic=

>  <r_lp_tautomer_probability>  (99) 
1

>  <r_epik_Ionization_Penalty>  (99) 
1.62852e-07

>  <r_epik_Ionization_Penalty_Charging>  (99) 
0

>  <r_epik_Ionization_Penalty_Neutral>  (99) 
1.62852e-07

>  <r_epik_State_Penalty>  (99) 
-0

>  <r_epik_Charging_Adjusted_Penalty>  (99) 
0

>  <i_epik_Tot_Q>  (99) 
0

>  <i_epik_Tot_abs_Q>  (99) 
0

>  <s_lp_Force_Field>  (99) 
OPLS3e

>  <r_lp_Energy>  (99) 
30.8102

>  <b_lp_Chiralities_Consistent>  (99) 
1

>  <s_lp_Variant>  (99) 
31:0-1

>  <s_i_glide_gridfile>  (99) 
pfpi4k_grid

>  <i_i_glide_lignum>  (99) 
40

>  <i_i_glide_rotatable_bonds>  (99) 
3

>  <r_i_docking_score>  (99) 
-2.31474

>  <r_i_glide_ligand_efficiency>  (99) 
-0.0964475

>  <r_i_glide_ligand_efficiency_sa>  (99) 
-0.278203

>  <r_i_glide_ligand_efficiency_ln>  (99) 
-0.554023

>  <r_i_glide_gscore>  (99) 
-2.31474

>  <r_i_glide_lipo>  (99) 
-0.220883

>  <r_i_glide_hbond>  (99) 
0

>  <r_i_glide_metal>  (99) 
-0

>  <r_i_glide_rewards>  (99) 
-1.0881

>  <r_i_glide_evdw>  (99) 
-20.3983

>  <r_i_glide_ecoul>  (99) 
0.125427

>  <r_i_glide_erotb>  (99) 
0

>  <r_i_glide_esite>  (99) 
-0.00465124

>  <r_i_glide_emodel>  (99) 
-23.0819

>  <r_i_glide_energy>  (99) 
-20.2729

>  <r_i_glide_einternal>  (99) 
0.384042

>  <r_i_glide_intrahb_reward>  (99) 
-0

>  <i_i_glide_confnum>  (99) 
2

>  <i_i_glide_posenum>  (99) 
1

>  <r_i_glide_eff_state_penalty>  (99) 
0

>  <ligand_id>  (99) 
31

>  <original_smiles>  (99) 
CC1CCC2(OC1)OC1CCC3(C)C(O)C4OC4C3(O)C1(O)C2C

>  <smiles>  (99) 
[H]OC1([H])C2([H])OC2([H])C2(O[H])C3(O[H])C([H])(OC4(OC([H])([H])C([H])(C([H])([H])[H])C([H])([H])C4([H])[H])C3([H])C([H])([H])[H])C([H])([H])C([H])([H])C12C([H])([H])[H]

$$$$
32:0:0
     RDKit          3D

 28 30  0  0  1  0  0  0  0  0999 V2000
   -3.0556    3.0994    3.2360 C   0  0  0  0  0  0  0  0  0  0  0  0
   -1.7799    2.3299    2.8447 C   0  0  0  0  0  0  0  0  0  0  0  0
   -0.8015    2.0320    4.0126 C   0  0  2  0  0  0  0  0  0  0  0  0
    0.3349    1.0910    3.5897 C   0  0  0  0  0  0  0  0  0  0  0  0
   -0.2355   -0.2050    3.9399 N   0  0  0  0  0  0  0  0  0  0  0  0
   -1.2342   -0.1095    4.8274 C   0  0  0  0  0  0  0  0  0  0  0  0
   -1.8023   -1.0496    5.3828 O   0  0  0  0  0  0  0  0  0  0  0  0
   -1.4478    1.2009    5.0194 N   0  0  0  0  0  0  0  0  0  0  0  0
   -1.6705    1.8237    6.1954 C   0  0  0  0  0  0  0  0  0  0  0  0
   -2.1730    1.3617    7.2256 O   0  0  0  0  0  0  0  0  0  0  0  0
   -1.0121    3.1517    6.0639 C   0  0  0  0  0  0  0  0  0  0  0  0
   -0.8895    4.1835    7.0112 C   0  0  0  0  0  0  0  0  0  0  0  0
   -0.1850    5.3507    6.6235 C   0  0  0  0  0  0  0  0  0  0  0  0
    0.3891    5.4598    5.3334 C   0  0  0  0  0  0  0  0  0  0  0  0
    0.2643    4.4067    4.3985 C   0  0  0  0  0  0  0  0  0  0  0  0
   -0.4445    3.2633    4.8006 C   0  0  0  0  0  0  0  0  0  0  0  0
   -3.6794    3.2587    2.3582 H   0  0  0  0  0  0  0  0  0  0  0  0
   -2.8163    4.0738    3.6596 H   0  0  0  0  0  0  0  0  0  0  0  0
   -3.6561    2.5499    3.9621 H   0  0  0  0  0  0  0  0  0  0  0  0
   -2.0722    1.3897    2.3740 H   0  0  0  0  0  0  0  0  0  0  0  0
   -1.2505    2.8963    2.0777 H   0  0  0  0  0  0  0  0  0  0  0  0
    0.6146    1.2005    2.5397 H   0  0  0  0  0  0  0  0  0  0  0  0
    1.2292    1.2346    4.1982 H   0  0  0  0  0  0  0  0  0  0  0  0
    0.1427   -1.0783    3.5988 H   0  0  0  0  0  0  0  0  0  0  0  0
   -1.3310    4.1007    7.9951 H   0  0  0  0  0  0  0  0  0  0  0  0
   -0.0829    6.1738    7.3194 H   0  0  0  0  0  0  0  0  0  0  0  0
    0.9184    6.3612    5.0519 H   0  0  0  0  0  0  0  0  0  0  0  0
    0.6785    4.4858    3.4020 H   0  0  0  0  0  0  0  0  0  0  0  0
  1  2  1  0
  1 17  1  0
  1 18  1  0
  1 19  1  0
  3  2  1  6
  2 20  1  0
  2 21  1  0
  3  8  1  0
  3 16  1  0
  3  4  1  0
  4  5  1  0
  4 22  1  0
  4 23  1  0
  5  6  1  0
  5 24  1  0
  6  7  2  0
  6  8  1  0
  8  9  1  0
  9 10  2  0
  9 11  1  0
 11 16  2  0
 11 12  1  0
 12 13  2  0
 12 25  1  0
 13 14  1  0
 13 26  1  0
 14 15  2  0
 14 27  1  0
 15 16  1  0
 15 28  1  0
M  END
>  <i_m_ct_stereo_status>  (100) 
1

>  <s_m_source_file>  (100) 
/var/tmp/pbs.5076255.sched01/tmp25ygy55i/01wbi4d2b.sdf

>  <i_m_source_file_index>  (100) 
41

>  <i_lp_mmshare_version>  (100) 
48012

>  <i_f3d_flags>  (100) 
0

>  <s_epik_input>  (100) 
W0NIM11bQ0gyXVtDQEBdMTJOKEMoPU8pW05IXVtDSDJdMSlDKD1PKWMzYzJbY0hdW2NIXVtjSF1bY0hdMw==

>  <s_epik_cmdline>  (100) 
J2VwaWtfcHl0aG9uJywgJy1waHQnLCAnMi4wJywgJy1waCcsICc3LjAnLCAnLXRuJywgJzgnLCAnLW1hJywgJzIwMCcsICctaW1hZScsICc8aW5maWxlLm1hZT4nLCAnLW9tYWUnLCAnPG91dGZpbGUubWFlPic=

>  <r_lp_tautomer_probability>  (100) 
1

>  <r_epik_Ionization_Penalty>  (100) 
1.57577e-05

>  <r_epik_Ionization_Penalty_Charging>  (100) 
0

>  <r_epik_Ionization_Penalty_Neutral>  (100) 
1.57577e-05

>  <r_epik_State_Penalty>  (100) 
-0

>  <r_epik_Charging_Adjusted_Penalty>  (100) 
0

>  <i_epik_Tot_Q>  (100) 
0

>  <i_epik_Tot_abs_Q>  (100) 
0

>  <s_lp_Force_Field>  (100) 
OPLS3e

>  <r_lp_Energy>  (100) 
15.3922

>  <b_lp_Chiralities_Consistent>  (100) 
1

>  <s_lp_Variant>  (100) 
32:0-1

>  <s_i_glide_gridfile>  (100) 
pfpi4k_grid

>  <i_i_glide_lignum>  (100) 
41

>  <i_i_glide_rotatable_bonds>  (100) 
1

>  <r_i_docking_score>  (100) 
-3.91762

>  <r_i_glide_ligand_efficiency>  (100) 
-0.244851

>  <r_i_glide_ligand_efficiency_sa>  (100) 
-0.616987

>  <r_i_glide_ligand_efficiency_ln>  (100) 
-1.03844

>  <r_i_glide_gscore>  (100) 
-3.91762

>  <r_i_glide_lipo>  (100) 
0

>  <r_i_glide_hbond>  (100) 
-0.133921

>  <r_i_glide_metal>  (100) 
-0

>  <r_i_glide_rewards>  (100) 
-1.93476

>  <r_i_glide_evdw>  (100) 
-18.3796

>  <r_i_glide_ecoul>  (100) 
-5.5519

>  <r_i_glide_erotb>  (100) 
0

>  <r_i_glide_esite>  (100) 
-0.0971777

>  <r_i_glide_emodel>  (100) 
-30.1949

>  <r_i_glide_energy>  (100) 
-23.9315

>  <r_i_glide_einternal>  (100) 
0.428947

>  <r_i_glide_intrahb_reward>  (100) 
-0

>  <i_i_glide_confnum>  (100) 
1

>  <i_i_glide_posenum>  (100) 
2

>  <r_i_glide_eff_state_penalty>  (100) 
0

>  <ligand_id>  (100) 
32

>  <original_smiles>  (100) 
CCC12CNC(=O)N1C(=O)c1ccccc12

>  <smiles>  (100) 
[H]c1c([H])c([H])c2c(c1[H])C(=O)N1C(=O)N([H])C([H])([H])C21C([H])([H])C([H])([H])[H]

$$$$
32:0:1
     RDKit          3D

 28 30  0  0  1  0  0  0  0  0999 V2000
    6.5581   -2.9194   -0.2363 C   0  0  0  0  0  0  0  0  0  0  0  0
    5.9456   -1.6571    0.4050 C   0  0  0  0  0  0  0  0  0  0  0  0
    4.4313   -1.4437    0.1257 C   0  0  2  0  0  0  0  0  0  0  0  0
    3.8622   -0.2649    0.9250 C   0  0  0  0  0  0  0  0  0  0  0  0
    3.4082   -0.9387    2.1306 N   0  0  0  0  0  0  0  0  0  0  0  0
    3.2085   -2.2509    1.9364 C   0  0  0  0  0  0  0  0  0  0  0  0
    2.6890   -3.0165    2.7427 O   0  0  0  0  0  0  0  0  0  0  0  0
    3.6487   -2.5302    0.6999 N   0  0  0  0  0  0  0  0  0  0  0  0
    3.0581   -3.3300   -0.2168 C   0  0  0  0  0  0  0  0  0  0  0  0
    2.3297   -4.3059   -0.0357 O   0  0  0  0  0  0  0  0  0  0  0  0
    3.3287   -2.6832   -1.5272 C   0  0  0  0  0  0  0  0  0  0  0  0
    2.8897   -3.0532   -2.8070 C   0  0  0  0  0  0  0  0  0  0  0  0
    3.2948   -2.2648   -3.9054 C   0  0  0  0  0  0  0  0  0  0  0  0
    4.0649   -1.0936   -3.7075 C   0  0  0  0  0  0  0  0  0  0  0  0
    4.4774   -0.7273   -2.4077 C   0  0  0  0  0  0  0  0  0  0  0  0
    4.0919   -1.5413   -1.3379 C   0  0  0  0  0  0  0  0  0  0  0  0
    7.6159   -2.9894    0.0110 H   0  0  0  0  0  0  0  0  0  0  0  0
    6.4701   -2.9063   -1.3230 H   0  0  0  0  0  0  0  0  0  0  0  0
    6.0774   -3.8301    0.1263 H   0  0  0  0  0  0  0  0  0  0  0  0
    6.1032   -1.7083    1.4855 H   0  0  0  0  0  0  0  0  0  0  0  0
    6.4955   -0.7804    0.0625 H   0  0  0  0  0  0  0  0  0  0  0  0
    4.5818    0.5389    1.0846 H   0  0  0  0  0  0  0  0  0  0  0  0
    2.9611    0.1575    0.4819 H   0  0  0  0  0  0  0  0  0  0  0  0
    3.1449   -0.4453    2.9651 H   0  0  0  0  0  0  0  0  0  0  0  0
    2.2843   -3.9341   -2.9624 H   0  0  0  0  0  0  0  0  0  0  0  0
    3.0108   -2.5623   -4.9026 H   0  0  0  0  0  0  0  0  0  0  0  0
    4.3527   -0.4922   -4.5556 H   0  0  0  0  0  0  0  0  0  0  0  0
    5.0915    0.1408   -2.2487 H   0  0  0  0  0  0  0  0  0  0  0  0
  1  2  1  0
  1 17  1  0
  1 18  1  0
  1 19  1  0
  3  2  1  6
  2 20  1  0
  2 21  1  0
  3  8  1  0
  3 16  1  0
  3  4  1  0
  4  5  1  0
  4 22  1  0
  4 23  1  0
  5  6  1  0
  5 24  1  0
  6  7  2  0
  6  8  1  0
  8  9  1  0
  9 10  2  0
  9 11  1  0
 11 16  2  0
 11 12  1  0
 12 13  2  0
 12 25  1  0
 13 14  1  0
 13 26  1  0
 14 15  2  0
 14 27  1  0
 15 16  1  0
 15 28  1  0
M  END
>  <i_m_ct_stereo_status>  (101) 
1

>  <s_m_source_file>  (101) 
/var/tmp/pbs.5076255.sched01/tmp25ygy55i/01wbi4d2b.sdf

>  <i_m_source_file_index>  (101) 
41

>  <i_lp_mmshare_version>  (101) 
48012

>  <i_f3d_flags>  (101) 
0

>  <s_epik_input>  (101) 
W0NIM11bQ0gyXVtDQEBdMTJOKEMoPU8pW05IXVtDSDJdMSlDKD1PKWMzYzJbY0hdW2NIXVtjSF1bY0hdMw==

>  <s_epik_cmdline>  (101) 
J2VwaWtfcHl0aG9uJywgJy1waHQnLCAnMi4wJywgJy1waCcsICc3LjAnLCAnLXRuJywgJzgnLCAnLW1hJywgJzIwMCcsICctaW1hZScsICc8aW5maWxlLm1hZT4nLCAnLW9tYWUnLCAnPG91dGZpbGUubWFlPic=

>  <r_lp_tautomer_probability>  (101) 
1

>  <r_epik_Ionization_Penalty>  (101) 
1.57577e-05

>  <r_epik_Ionization_Penalty_Charging>  (101) 
0

>  <r_epik_Ionization_Penalty_Neutral>  (101) 
1.57577e-05

>  <r_epik_State_Penalty>  (101) 
-0

>  <r_epik_Charging_Adjusted_Penalty>  (101) 
0

>  <i_epik_Tot_Q>  (101) 
0

>  <i_epik_Tot_abs_Q>  (101) 
0

>  <s_lp_Force_Field>  (101) 
OPLS3e

>  <r_lp_Energy>  (101) 
15.3922

>  <b_lp_Chiralities_Consistent>  (101) 
1

>  <s_lp_Variant>  (101) 
32:0-1

>  <s_i_glide_gridfile>  (101) 
pfpi4k_grid

>  <i_i_glide_lignum>  (101) 
41

>  <i_i_glide_rotatable_bonds>  (101) 
1

>  <r_i_docking_score>  (101) 
-3.67313

>  <r_i_glide_ligand_efficiency>  (101) 
-0.229571

>  <r_i_glide_ligand_efficiency_sa>  (101) 
-0.578482

>  <r_i_glide_ligand_efficiency_ln>  (101) 
-0.973638

>  <r_i_glide_gscore>  (101) 
-3.67313

>  <r_i_glide_lipo>  (101) 
-0.486443

>  <r_i_glide_hbond>  (101) 
0

>  <r_i_glide_metal>  (101) 
-0

>  <r_i_glide_rewards>  (101) 
-1.95417

>  <r_i_glide_evdw>  (101) 
-21.3947

>  <r_i_glide_ecoul>  (101) 
-0.874407

>  <r_i_glide_erotb>  (101) 
0

>  <r_i_glide_esite>  (101) 
-0.0316285

>  <r_i_glide_emodel>  (101) 
-28.0463

>  <r_i_glide_energy>  (101) 
-22.2691

>  <r_i_glide_einternal>  (101) 
0.455451

>  <r_i_glide_intrahb_reward>  (101) 
-0

>  <i_i_glide_confnum>  (101) 
1

>  <i_i_glide_posenum>  (101) 
22

>  <r_i_glide_eff_state_penalty>  (101) 
0

>  <ligand_id>  (101) 
32

>  <original_smiles>  (101) 
CCC12CNC(=O)N1C(=O)c1ccccc12

>  <smiles>  (101) 
[H]c1c([H])c([H])c2c(c1[H])C(=O)N1C(=O)N([H])C([H])([H])C21C([H])([H])C([H])([H])[H]

$$$$
32:0:2
     RDKit          3D

 28 30  0  0  1  0  0  0  0  0999 V2000
    6.7514   -1.6618    0.4366 C   0  0  0  0  0  0  0  0  0  0  0  0
    5.6474   -2.6619    0.8015 C   0  0  0  0  0  0  0  0  0  0  0  0
    4.1976   -2.1950    0.4998 C   0  0  2  0  0  0  0  0  0  0  0  0
    3.6828   -1.1308    1.4787 C   0  0  0  0  0  0  0  0  0  0  0  0
    3.0817   -1.9715    2.5068 N   0  0  0  0  0  0  0  0  0  0  0  0
    2.7821   -3.1957    2.0593 C   0  0  0  0  0  0  0  0  0  0  0  0
    2.1444   -4.0462    2.6718 O   0  0  0  0  0  0  0  0  0  0  0  0
    3.2787   -3.2851    0.8118 N   0  0  0  0  0  0  0  0  0  0  0  0
    2.6879   -3.8423   -0.2708 C   0  0  0  0  0  0  0  0  0  0  0  0
    1.8487   -4.7478   -0.3269 O   0  0  0  0  0  0  0  0  0  0  0  0
    3.0985   -2.9950   -1.4171 C   0  0  0  0  0  0  0  0  0  0  0  0
    2.7034   -3.0705   -2.7649 C   0  0  0  0  0  0  0  0  0  0  0  0
    3.2427   -2.1263   -3.6686 C   0  0  0  0  0  0  0  0  0  0  0  0
    4.1089   -1.1078   -3.2139 C   0  0  0  0  0  0  0  0  0  0  0  0
    4.4585   -1.0279   -1.8482 C   0  0  0  0  0  0  0  0  0  0  0  0
    3.9451   -1.9948   -0.9710 C   0  0  0  0  0  0  0  0  0  0  0  0
    7.7273   -2.0581    0.7175 H   0  0  0  0  0  0  0  0  0  0  0  0
    6.6120   -0.7067    0.9480 H   0  0  0  0  0  0  0  0  0  0  0  0
    6.7782   -1.4838   -0.6372 H   0  0  0  0  0  0  0  0  0  0  0  0
    5.8315   -3.6042    0.2766 H   0  0  0  0  0  0  0  0  0  0  0  0
    5.7365   -2.8939    1.8632 H   0  0  0  0  0  0  0  0  0  0  0  0
    4.4615   -0.4638    1.8526 H   0  0  0  0  0  0  0  0  0  0  0  0
    2.8895   -0.5222    1.0407 H   0  0  0  0  0  0  0  0  0  0  0  0
    2.8229   -1.6323    3.4218 H   0  0  0  0  0  0  0  0  0  0  0  0
    2.0327   -3.8490   -3.1091 H   0  0  0  0  0  0  0  0  0  0  0  0
    2.9878   -2.1747   -4.7179 H   0  0  0  0  0  0  0  0  0  0  0  0
    4.5136   -0.3885   -3.9115 H   0  0  0  0  0  0  0  0  0  0  0  0
    5.1142   -0.2546   -1.4868 H   0  0  0  0  0  0  0  0  0  0  0  0
  1  2  1  0
  1 17  1  0
  1 18  1  0
  1 19  1  0
  3  2  1  6
  2 20  1  0
  2 21  1  0
  3  8  1  0
  3 16  1  0
  3  4  1  0
  4  5  1  0
  4 22  1  0
  4 23  1  0
  5  6  1  0
  5 24  1  0
  6  7  2  0
  6  8  1  0
  8  9  1  0
  9 10  2  0
  9 11  1  0
 11 16  2  0
 11 12  1  0
 12 13  2  0
 12 25  1  0
 13 14  1  0
 13 26  1  0
 14 15  2  0
 14 27  1  0
 15 16  1  0
 15 28  1  0
M  END
>  <i_m_ct_stereo_status>  (102) 
1

>  <s_m_source_file>  (102) 
/var/tmp/pbs.5076255.sched01/tmp25ygy55i/01wbi4d2b.sdf

>  <i_m_source_file_index>  (102) 
41

>  <i_lp_mmshare_version>  (102) 
48012

>  <i_f3d_flags>  (102) 
0

>  <s_epik_input>  (102) 
W0NIM11bQ0gyXVtDQEBdMTJOKEMoPU8pW05IXVtDSDJdMSlDKD1PKWMzYzJbY0hdW2NIXVtjSF1bY0hdMw==

>  <s_epik_cmdline>  (102) 
J2VwaWtfcHl0aG9uJywgJy1waHQnLCAnMi4wJywgJy1waCcsICc3LjAnLCAnLXRuJywgJzgnLCAnLW1hJywgJzIwMCcsICctaW1hZScsICc8aW5maWxlLm1hZT4nLCAnLW9tYWUnLCAnPG91dGZpbGUubWFlPic=

>  <r_lp_tautomer_probability>  (102) 
1

>  <r_epik_Ionization_Penalty>  (102) 
1.57577e-05

>  <r_epik_Ionization_Penalty_Charging>  (102) 
0

>  <r_epik_Ionization_Penalty_Neutral>  (102) 
1.57577e-05

>  <r_epik_State_Penalty>  (102) 
-0

>  <r_epik_Charging_Adjusted_Penalty>  (102) 
0

>  <i_epik_Tot_Q>  (102) 
0

>  <i_epik_Tot_abs_Q>  (102) 
0

>  <s_lp_Force_Field>  (102) 
OPLS3e

>  <r_lp_Energy>  (102) 
15.3922

>  <b_lp_Chiralities_Consistent>  (102) 
1

>  <s_lp_Variant>  (102) 
32:0-1

>  <s_i_glide_gridfile>  (102) 
pfpi4k_grid

>  <i_i_glide_lignum>  (102) 
41

>  <i_i_glide_rotatable_bonds>  (102) 
1

>  <r_i_docking_score>  (102) 
-3.64868

>  <r_i_glide_ligand_efficiency>  (102) 
-0.228042

>  <r_i_glide_ligand_efficiency_sa>  (102) 
-0.574631

>  <r_i_glide_ligand_efficiency_ln>  (102) 
-0.967155

>  <r_i_glide_gscore>  (102) 
-3.64868

>  <r_i_glide_lipo>  (102) 
-0.425868

>  <r_i_glide_hbond>  (102) 
-0.0260685

>  <r_i_glide_metal>  (102) 
-0

>  <r_i_glide_rewards>  (102) 
-1.93476

>  <r_i_glide_evdw>  (102) 
-19.8916

>  <r_i_glide_ecoul>  (102) 
-1.46761

>  <r_i_glide_erotb>  (102) 
0

>  <r_i_glide_esite>  (102) 
-0.0472632

>  <r_i_glide_emodel>  (102) 
-27.2678

>  <r_i_glide_energy>  (102) 
-21.3592

>  <r_i_glide_einternal>  (102) 
0.0398116

>  <r_i_glide_intrahb_reward>  (102) 
-0

>  <i_i_glide_confnum>  (102) 
1

>  <i_i_glide_posenum>  (102) 
7

>  <r_i_glide_eff_state_penalty>  (102) 
0

>  <ligand_id>  (102) 
32

>  <original_smiles>  (102) 
CCC12CNC(=O)N1C(=O)c1ccccc12

>  <smiles>  (102) 
[H]c1c([H])c([H])c2c(c1[H])C(=O)N1C(=O)N([H])C([H])([H])C21C([H])([H])C([H])([H])[H]

$$$$
33:0:0
     RDKit          3D

 78 84  0  0  1  0  0  0  0  0999 V2000
    2.9056   -1.4107    7.3916 C   0  0  0  0  0  0  0  0  0  0  0  0
    1.8442   -0.3298    7.0425 C   0  0  0  0  0  0  0  0  0  0  0  0
    0.8875   -0.1651    8.2384 C   0  0  0  0  0  0  0  0  0  0  0  0
    2.5658    0.8707    6.8551 O   0  0  0  0  0  0  0  0  0  0  0  0
    2.2165    1.6041    5.6825 C   0  0  1  0  0  0  0  0  0  0  0  0
    2.8389    2.9873    5.4253 C   0  0  1  0  0  0  0  0  0  0  0  0
    2.0270    4.2177    5.7852 C   0  0  2  0  0  0  0  0  0  0  0  0
    1.3863    4.8589    4.5696 C   0  0  0  0  0  0  0  0  0  0  0  0
   -0.1640    4.6699    4.4447 C   0  0  1  0  0  0  0  0  0  0  0  0
   -0.6293    5.3396    3.2861 O   0  0  0  0  0  0  0  0  0  0  0  0
   -0.8877    3.2566    4.5206 C   0  0  1  0  0  0  0  0  0  0  0  0
   -0.8305    2.3507    3.1939 C   0  0  0  0  0  0  0  0  0  0  0  0
    0.4710    1.5217    2.7923 C   0  0  2  0  0  0  0  0  0  0  0  0
    1.2698    2.5438    2.1298 O   0  0  0  0  0  0  0  0  0  0  0  0
    0.1597    0.3179    2.0095 O   0  0  0  0  0  0  0  0  0  0  0  0
    1.4972   -0.0969    2.3067 C   0  0  2  0  0  0  0  0  0  0  0  0
    2.3017   -1.3622    2.4345 C   0  0  1  0  0  0  0  0  0  0  0  0
    2.2463   -2.1197    1.2420 O   0  0  0  0  0  0  0  0  0  0  0  0
    3.7916   -0.8520    2.7518 C   0  0  0  0  0  0  0  0  0  0  0  0
    4.5390   -1.9529    3.5370 C   0  0  0  0  0  0  0  0  0  0  0  0
    4.6064   -0.6267    1.4362 C   0  0  0  0  0  0  0  0  0  0  0  0
    3.8338    0.5374    3.5505 C   0  0  0  0  0  0  0  0  0  0  0  0
    2.5757    0.7155    4.4322 C   0  0  2  0  0  0  0  0  0  0  0  0
    1.2997    0.5271    3.6884 C   0  0  1  0  0  0  0  0  0  0  0  0
    0.5010    0.0919    4.9493 C   0  0  1  0  0  0  0  0  0  0  0  0
   -0.7816   -0.7189    4.6363 C   0  0  0  0  0  0  0  0  0  0  0  0
    1.1245   -0.8217    5.9188 O   0  0  0  0  0  0  0  0  0  0  0  0
    0.6071    1.4688    5.6552 C   0  0  1  0  0  0  0  0  0  0  0  0
   -0.6623    2.4011    5.8580 C   0  0  0  0  0  0  0  0  0  0  0  0
   -0.5972    3.1768    7.2033 C   0  0  0  0  0  0  0  0  0  0  0  0
   -1.9776    1.5972    6.0792 C   0  0  0  0  0  0  0  0  0  0  0  0
    3.4637    4.0695    6.2810 C   0  0  0  0  0  0  0  0  0  0  0  0
    3.7558    3.7541    7.7288 C   0  0  0  0  0  0  0  0  0  0  0  0
    4.4996    5.0195    5.7194 C   0  0  0  0  0  0  0  0  0  0  0  0
    3.6408   -1.4796    6.5937 H   0  0  0  0  0  0  0  0  0  0  0  0
    2.4264   -2.3771    7.5216 H   0  0  0  0  0  0  0  0  0  0  0  0
    3.4238   -1.1327    8.3078 H   0  0  0  0  0  0  0  0  0  0  0  0
    0.1122    0.5697    8.0151 H   0  0  0  0  0  0  0  0  0  0  0  0
    1.4365    0.1812    9.1092 H   0  0  0  0  0  0  0  0  0  0  0  0
    0.4077   -1.1103    8.4655 H   0  0  0  0  0  0  0  0  0  0  0  0
    3.2869    3.0190    4.4289 H   0  0  0  0  0  0  0  0  0  0  0  0
    1.4483    4.3380    6.6947 H   0  0  0  0  0  0  0  0  0  0  0  0
    1.5989    5.9305    4.6229 H   0  0  0  0  0  0  0  0  0  0  0  0
    1.8718    4.5152    3.6576 H   0  0  0  0  0  0  0  0  0  0  0  0
   -0.5854    5.2709    5.2493 H   0  0  0  0  0  0  0  0  0  0  0  0
   -0.1968    4.9717    2.5197 H   0  0  0  0  0  0  0  0  0  0  0  0
   -1.9370    3.5619    4.5650 H   0  0  0  0  0  0  0  0  0  0  0  0
   -1.6772    1.6735    3.2367 H   0  0  0  0  0  0  0  0  0  0  0  0
   -1.1340    2.9700    2.3560 H   0  0  0  0  0  0  0  0  0  0  0  0
    0.7031    3.0842    1.5612 H   0  0  0  0  0  0  0  0  0  0  0  0
    2.1146    0.4760    1.6122 H   0  0  0  0  0  0  0  0  0  0  0  0
    1.9271   -1.9634    3.2621 H   0  0  0  0  0  0  0  0  0  0  0  0
    1.8467   -1.5863    0.5712 H   0  0  0  0  0  0  0  0  0  0  0  0
    5.5546   -1.6376    3.8034 H   0  0  0  0  0  0  0  0  0  0  0  0
    4.6204   -2.8759    2.9581 H   0  0  0  0  0  0  0  0  0  0  0  0
    4.0199   -2.1989    4.4673 H   0  0  0  0  0  0  0  0  0  0  0  0
    5.6175   -0.2724    1.6495 H   0  0  0  0  0  0  0  0  0  0  0  0
    4.1366    0.1249    0.7953 H   0  0  0  0  0  0  0  0  0  0  0  0
    4.7036   -1.5374    0.8436 H   0  0  0  0  0  0  0  0  0  0  0  0
    4.7408    0.6212    4.1590 H   0  0  0  0  0  0  0  0  0  0  0  0
    3.8383    1.3494    2.8308 H   0  0  0  0  0  0  0  0  0  0  0  0
    2.8877   -0.2160    4.8685 H   0  0  0  0  0  0  0  0  0  0  0  0
   -1.4383   -0.2942    3.8815 H   0  0  0  0  0  0  0  0  0  0  0  0
   -1.3541   -0.9388    5.5292 H   0  0  0  0  0  0  0  0  0  0  0  0
   -0.4837   -1.6933    4.2270 H   0  0  0  0  0  0  0  0  0  0  0  0
    0.8610    2.2150    4.9501 H   0  0  0  0  0  0  0  0  0  0  0  0
    0.3053    2.9347    7.7565 H   0  0  0  0  0  0  0  0  0  0  0  0
   -1.3992    2.9277    7.9060 H   0  0  0  0  0  0  0  0  0  0  0  0
   -0.6676    4.2615    7.1012 H   0  0  0  0  0  0  0  0  0  0  0  0
   -1.8701    0.8338    6.8369 H   0  0  0  0  0  0  0  0  0  0  0  0
   -2.3643    1.1443    5.1760 H   0  0  0  0  0  0  0  0  0  0  0  0
   -2.7956    2.2508    6.3979 H   0  0  0  0  0  0  0  0  0  0  0  0
    3.7849    4.6716    8.3273 H   0  0  0  0  0  0  0  0  0  0  0  0
    4.7106    3.2359    7.8261 H   0  0  0  0  0  0  0  0  0  0  0  0
    2.9756    3.1091    8.1457 H   0  0  0  0  0  0  0  0  0  0  0  0
    4.4905    5.9555    6.2731 H   0  0  0  0  0  0  0  0  0  0  0  0
    4.2743    5.2453    4.6705 H   0  0  0  0  0  0  0  0  0  0  0  0
    5.4936    4.5815    5.7708 H   0  0  0  0  0  0  0  0  0  0  0  0
  1  2  1  0
  1 35  1  0
  1 36  1  0
  1 37  1  0
  2 27  1  0
  2  3  1  0
  2  4  1  0
  3 38  1  0
  3 39  1  0
  3 40  1  0
  5  4  1  1
  5 23  1  0
  5 28  1  0
  5  6  1  0
  6 32  1  0
  6  7  1  0
  6 41  1  6
  7  8  1  0
  7 32  1  0
  7 42  1  1
  8  9  1  0
  8 43  1  0
  8 44  1  0
  9 10  1  0
  9 11  1  0
  9 45  1  1
 10 46  1  0
 11 29  1  0
 11 12  1  0
 11 47  1  1
 12 13  1  0
 12 48  1  0
 12 49  1  0
 24 13  1  6
 13 14  1  6
 13 15  1  0
 14 50  1  0
 15 16  1  0
 16 24  1  0
 16 17  1  0
 16 51  1  6
 17 18  1  0
 17 19  1  0
 17 52  1  1
 18 53  1  0
 19 20  1  0
 19 21  1  0
 19 22  1  0
 20 54  1  0
 20 55  1  0
 20 56  1  0
 21 57  1  0
 21 58  1  0
 21 59  1  0
 22 23  1  0
 22 60  1  0
 22 61  1  0
 23 24  1  0
 23 62  1  1
 24 25  1  0
 25 26  1  6
 25 27  1  0
 25 28  1  0
 26 63  1  0
 26 64  1  0
 26 65  1  0
 28 29  1  0
 28 66  1  1
 29 30  1  0
 29 31  1  0
 30 67  1  0
 30 68  1  0
 30 69  1  0
 31 70  1  0
 31 71  1  0
 31 72  1  0
 32 33  1  0
 32 34  1  0
 33 73  1  0
 33 74  1  0
 33 75  1  0
 34 76  1  0
 34 77  1  0
 34 78  1  0
M  END
>  <i_m_ct_stereo_status>  (103) 
1

>  <s_m_source_file>  (103) 
/var/tmp/pbs.5076255.sched01/tmp2pvlagj1/41_74nrqse.sdf

>  <i_m_source_file_index>  (103) 
1

>  <i_lp_mmshare_version>  (103) 
48012

>  <i_f3d_flags>  (103) 
0

>  <s_epik_input>  (103) 
W0NASF0xMltDSDJdQyhbQ0gzXSkoW0NIM10pW0NASF0oW09IXSlbQ0BASF0oTzMpW0NAXTIoW0NAQF0oW0NIM10pKE9DKE80KShbQ0gzXSlbQ0gzXSlbQ0BIXTVDNihbQ0gzXSlbQ0gzXSlbQ0BdMyhbT0hdKVtDSDJdW0NAQEhdNltDQEhdKFtPSF0pW0NIMl1bQ0BASF0oW0NAQEhdN1tDQEBdMTQ1KUM3KFtDSDNdKVtDSDNd

>  <s_epik_cmdline>  (103) 
J2VwaWtfcHl0aG9uJywgJy1waHQnLCAnMi4wJywgJy1waCcsICc3LjAnLCAnLXRuJywgJzgnLCAnLW1hJywgJzIwMCcsICctaW1hZScsICc8aW5maWxlLm1hZT4nLCAnLW9tYWUnLCAnPG91dGZpbGUubWFlPic=

>  <r_lp_tautomer_probability>  (103) 
1

>  <r_epik_Ionization_Penalty>  (103) 
1.70316e-06

>  <r_epik_Ionization_Penalty_Charging>  (103) 
0

>  <r_epik_Ionization_Penalty_Neutral>  (103) 
1.70316e-06

>  <r_epik_State_Penalty>  (103) 
-0

>  <r_epik_Charging_Adjusted_Penalty>  (103) 
0

>  <i_epik_Tot_Q>  (103) 
0

>  <i_epik_Tot_abs_Q>  (103) 
0

>  <s_lp_Force_Field>  (103) 
OPLS3e

>  <r_lp_Energy>  (103) 
271.344

>  <b_lp_Chiralities_Consistent>  (103) 
1

>  <s_lp_Variant>  (103) 
33:0-1

>  <s_i_glide_gridfile>  (103) 
pfpi4k_grid

>  <i_i_glide_lignum>  (103) 
1

>  <i_i_glide_rotatable_bonds>  (103) 
3

>  <r_i_docking_score>  (103) 
-3.43022

>  <r_i_glide_ligand_efficiency>  (103) 
-0.100889

>  <r_i_glide_ligand_efficiency_sa>  (103) 
-0.32684

>  <r_i_glide_ligand_efficiency_ln>  (103) 
-0.757831

>  <r_i_glide_gscore>  (103) 
-3.43022

>  <r_i_glide_lipo>  (103) 
-0.160572

>  <r_i_glide_hbond>  (103) 
-0.231426

>  <r_i_glide_metal>  (103) 
-0

>  <r_i_glide_rewards>  (103) 
-0.159236

>  <r_i_glide_evdw>  (103) 
-23.9986

>  <r_i_glide_ecoul>  (103) 
-10.8817

>  <r_i_glide_erotb>  (103) 
0

>  <r_i_glide_esite>  (103) 
-0.0467979

>  <r_i_glide_emodel>  (103) 
-42.0265

>  <r_i_glide_energy>  (103) 
-34.8803

>  <r_i_glide_einternal>  (103) 
2.05982

>  <r_i_glide_intrahb_reward>  (103) 
-0

>  <i_i_glide_confnum>  (103) 
2

>  <i_i_glide_posenum>  (103) 
26

>  <r_i_glide_eff_state_penalty>  (103) 
0

>  <ligand_id>  (103) 
33

>  <original_smiles>  (103) 
CC1(C)OC23C4C(CC(O)C5CC6(O)OC7C(O)C(C)(C)CC2C76C(C)(O1)C3C5(C)C)C4(C)C

>  <smiles>  (103) 
[H]OC1([H])C([H])([H])C2([H])C([H])(C34OC(C([H])([H])[H])(C([H])([H])[H])OC5(C([H])([H])[H])C3([H])C(C([H])([H])[H])(C([H])([H])[H])C1([H])C([H])([H])C1(O[H])OC3([H])C([H])(O[H])C(C([H])([H])[H])(C([H])([H])[H])C([H])([H])C4([H])C315)C2(C([H])([H])[H])C([H])([H])[H]

$$$$
33:0:1
     RDKit          3D

 78 84  0  0  1  0  0  0  0  0999 V2000
    3.8501    0.5162    8.0537 C   0  0  0  0  0  0  0  0  0  0  0  0
    2.5451    1.2119    7.6412 C   0  0  0  0  0  0  0  0  0  0  0  0
    1.7928    1.6954    8.8979 C   0  0  0  0  0  0  0  0  0  0  0  0
    2.9261    2.3443    6.8670 O   0  0  0  0  0  0  0  0  0  0  0  0
    2.2098    2.5105    5.6540 C   0  0  1  0  0  0  0  0  0  0  0  0
    2.4595    3.7726    4.7832 C   0  0  1  0  0  0  0  0  0  0  0  0
    1.4747    4.9115    4.9097 C   0  0  2  0  0  0  0  0  0  0  0  0
    0.5049    4.9540    3.7356 C   0  0  0  0  0  0  0  0  0  0  0  0
   -0.9534    4.5051    4.0765 C   0  0  1  0  0  0  0  0  0  0  0  0
   -1.7224    4.6806    2.8962 O   0  0  0  0  0  0  0  0  0  0  0  0
   -1.3363    3.1427    4.7967 C   0  0  1  0  0  0  0  0  0  0  0  0
   -1.3150    1.8215    3.8903 C   0  0  0  0  0  0  0  0  0  0  0  0
    0.0385    1.1014    3.4800 C   0  0  2  0  0  0  0  0  0  0  0  0
    0.4118    1.8166    2.3148 O   0  0  0  0  0  0  0  0  0  0  0  0
   -0.1463   -0.3614    3.2836 O   0  0  0  0  0  0  0  0  0  0  0  0
    1.2958   -0.4340    3.3546 C   0  0  2  0  0  0  0  0  0  0  0  0
    2.3598   -1.4266    3.7012 C   0  0  1  0  0  0  0  0  0  0  0  0
    2.2759   -2.5985    2.9169 O   0  0  0  0  0  0  0  0  0  0  0  0
    3.7351   -0.6363    3.4349 C   0  0  0  0  0  0  0  0  0  0  0  0
    4.8386   -1.2276    4.3395 C   0  0  0  0  0  0  0  0  0  0  0  0
    4.2265   -0.8159    1.9703 C   0  0  0  0  0  0  0  0  0  0  0  0
    3.6204    0.9505    3.6751 C   0  0  0  0  0  0  0  0  0  0  0  0
    2.5391    1.2799    4.7174 C   0  0  2  0  0  0  0  0  0  0  0  0
    1.2154    0.6404    4.4388 C   0  0  1  0  0  0  0  0  0  0  0  0
    0.7775    0.6175    5.9290 C   0  0  1  0  0  0  0  0  0  0  0  0
   -0.3226   -0.4242    6.2387 C   0  0  0  0  0  0  0  0  0  0  0  0
    1.7488    0.2389    6.9514 O   0  0  0  0  0  0  0  0  0  0  0  0
    0.7044    2.1611    6.0728 C   0  0  1  0  0  0  0  0  0  0  0  0
   -0.6956    2.8995    6.2498 C   0  0  0  0  0  0  0  0  0  0  0  0
   -0.5594    4.1386    7.1891 C   0  0  0  0  0  0  0  0  0  0  0  0
   -1.7491    2.0727    7.0486 C   0  0  0  0  0  0  0  0  0  0  0  0
    2.9609    5.1662    5.0394 C   0  0  0  0  0  0  0  0  0  0  0  0
    3.5824    5.4786    6.3875 C   0  0  0  0  0  0  0  0  0  0  0  0
    3.6288    5.9782    3.9488 C   0  0  0  0  0  0  0  0  0  0  0  0
    4.4295    0.2443    7.1739 H   0  0  0  0  0  0  0  0  0  0  0  0
    3.6310   -0.3880    8.6254 H   0  0  0  0  0  0  0  0  0  0  0  0
    4.4545    1.1891    8.6630 H   0  0  0  0  0  0  0  0  0  0  0  0
    0.8524    2.1683    8.6458 H   0  0  0  0  0  0  0  0  0  0  0  0
    2.4053    2.4191    9.4370 H   0  0  0  0  0  0  0  0  0  0  0  0
    1.5846    0.8479    9.5524 H   0  0  0  0  0  0  0  0  0  0  0  0
    2.7076    3.4822    3.7702 H   0  0  0  0  0  0  0  0  0  0  0  0
    1.0624    5.2964    5.8208 H   0  0  0  0  0  0  0  0  0  0  0  0
    0.4842    5.9823    3.3737 H   0  0  0  0  0  0  0  0  0  0  0  0
    0.8991    4.3695    2.9111 H   0  0  0  0  0  0  0  0  0  0  0  0
   -1.3447    5.2716    4.7306 H   0  0  0  0  0  0  0  0  0  0  0  0
   -1.1629    4.5163    2.1399 H   0  0  0  0  0  0  0  0  0  0  0  0
   -2.3979    3.2997    4.9887 H   0  0  0  0  0  0  0  0  0  0  0  0
   -1.9713    1.1081    4.3696 H   0  0  0  0  0  0  0  0  0  0  0  0
   -1.8928    2.0358    2.9843 H   0  0  0  0  0  0  0  0  0  0  0  0
    0.2154    2.7441    2.4340 H   0  0  0  0  0  0  0  0  0  0  0  0
    1.6377   -0.1006    2.3751 H   0  0  0  0  0  0  0  0  0  0  0  0
    2.2887   -1.7085    4.7541 H   0  0  0  0  0  0  0  0  0  0  0  0
    2.2523   -2.3437    2.0002 H   0  0  0  0  0  0  0  0  0  0  0  0
    5.7928   -0.7003    4.2203 H   0  0  0  0  0  0  0  0  0  0  0  0
    5.0202   -2.2840    4.1128 H   0  0  0  0  0  0  0  0  0  0  0  0
    4.5662   -1.1732    5.3936 H   0  0  0  0  0  0  0  0  0  0  0  0
    5.1567   -0.2692    1.7891 H   0  0  0  0  0  0  0  0  0  0  0  0
    3.4994   -0.4423    1.2445 H   0  0  0  0  0  0  0  0  0  0  0  0
    4.4255   -1.8627    1.7162 H   0  0  0  0  0  0  0  0  0  0  0  0
    4.5819    1.3586    3.9968 H   0  0  0  0  0  0  0  0  0  0  0  0
    3.3835    1.4527    2.7317 H   0  0  0  0  0  0  0  0  0  0  0  0
    3.1153    0.6376    5.3616 H   0  0  0  0  0  0  0  0  0  0  0  0
   -1.1867   -0.4149    5.5812 H   0  0  0  0  0  0  0  0  0  0  0  0
   -0.6523   -0.3545    7.2729 H   0  0  0  0  0  0  0  0  0  0  0  0
    0.1000   -1.4258    6.1302 H   0  0  0  0  0  0  0  0  0  0  0  0
    0.6455    2.6056    5.1235 H   0  0  0  0  0  0  0  0  0  0  0  0
    0.4619    4.2510    7.5478 H   0  0  0  0  0  0  0  0  0  0  0  0
   -1.1398    4.0659    8.1123 H   0  0  0  0  0  0  0  0  0  0  0  0
   -0.8789    5.0792    6.7531 H   0  0  0  0  0  0  0  0  0  0  0  0
   -1.3348    1.6797    7.9786 H   0  0  0  0  0  0  0  0  0  0  0  0
   -2.1975    1.2533    6.4966 H   0  0  0  0  0  0  0  0  0  0  0  0
   -2.6127    2.6809    7.3286 H   0  0  0  0  0  0  0  0  0  0  0  0
    3.5181    6.5469    6.6048 H   0  0  0  0  0  0  0  0  0  0  0  0
    4.6308    5.1723    6.4053 H   0  0  0  0  0  0  0  0  0  0  0  0
    3.0569    4.9391    7.1772 H   0  0  0  0  0  0  0  0  0  0  0  0
    3.5117    7.0470    4.1311 H   0  0  0  0  0  0  0  0  0  0  0  0
    3.1974    5.7420    2.9738 H   0  0  0  0  0  0  0  0  0  0  0  0
    4.6880    5.7485    3.9224 H   0  0  0  0  0  0  0  0  0  0  0  0
  1  2  1  0
  1 35  1  0
  1 36  1  0
  1 37  1  0
  2 27  1  0
  2  3  1  0
  2  4  1  0
  3 38  1  0
  3 39  1  0
  3 40  1  0
  5  4  1  1
  5 23  1  0
  5 28  1  0
  5  6  1  0
  6 32  1  0
  6  7  1  0
  6 41  1  6
  7  8  1  0
  7 32  1  0
  7 42  1  1
  8  9  1  0
  8 43  1  0
  8 44  1  0
  9 10  1  0
  9 11  1  0
  9 45  1  1
 10 46  1  0
 11 29  1  0
 11 12  1  0
 11 47  1  1
 12 13  1  0
 12 48  1  0
 12 49  1  0
 24 13  1  6
 13 14  1  6
 13 15  1  0
 14 50  1  0
 15 16  1  0
 16 24  1  0
 16 17  1  0
 16 51  1  6
 17 18  1  0
 17 19  1  0
 17 52  1  1
 18 53  1  0
 19 20  1  0
 19 21  1  0
 19 22  1  0
 20 54  1  0
 20 55  1  0
 20 56  1  0
 21 57  1  0
 21 58  1  0
 21 59  1  0
 22 23  1  0
 22 60  1  0
 22 61  1  0
 23 24  1  0
 23 62  1  1
 24 25  1  0
 25 26  1  6
 25 27  1  0
 25 28  1  0
 26 63  1  0
 26 64  1  0
 26 65  1  0
 28 29  1  0
 28 66  1  1
 29 30  1  0
 29 31  1  0
 30 67  1  0
 30 68  1  0
 30 69  1  0
 31 70  1  0
 31 71  1  0
 31 72  1  0
 32 33  1  0
 32 34  1  0
 33 73  1  0
 33 74  1  0
 33 75  1  0
 34 76  1  0
 34 77  1  0
 34 78  1  0
M  END
>  <i_m_ct_stereo_status>  (104) 
1

>  <s_m_source_file>  (104) 
/var/tmp/pbs.5076255.sched01/tmp2pvlagj1/41_74nrqse.sdf

>  <i_m_source_file_index>  (104) 
1

>  <i_lp_mmshare_version>  (104) 
48012

>  <i_f3d_flags>  (104) 
0

>  <s_epik_input>  (104) 
W0NASF0xMltDSDJdQyhbQ0gzXSkoW0NIM10pW0NASF0oW09IXSlbQ0BASF0oTzMpW0NAXTIoW0NAQF0oW0NIM10pKE9DKE80KShbQ0gzXSlbQ0gzXSlbQ0BIXTVDNihbQ0gzXSlbQ0gzXSlbQ0BdMyhbT0hdKVtDSDJdW0NAQEhdNltDQEhdKFtPSF0pW0NIMl1bQ0BASF0oW0NAQEhdN1tDQEBdMTQ1KUM3KFtDSDNdKVtDSDNd

>  <s_epik_cmdline>  (104) 
J2VwaWtfcHl0aG9uJywgJy1waHQnLCAnMi4wJywgJy1waCcsICc3LjAnLCAnLXRuJywgJzgnLCAnLW1hJywgJzIwMCcsICctaW1hZScsICc8aW5maWxlLm1hZT4nLCAnLW9tYWUnLCAnPG91dGZpbGUubWFlPic=

>  <r_lp_tautomer_probability>  (104) 
1

>  <r_epik_Ionization_Penalty>  (104) 
1.70316e-06

>  <r_epik_Ionization_Penalty_Charging>  (104) 
0

>  <r_epik_Ionization_Penalty_Neutral>  (104) 
1.70316e-06

>  <r_epik_State_Penalty>  (104) 
-0

>  <r_epik_Charging_Adjusted_Penalty>  (104) 
0

>  <i_epik_Tot_Q>  (104) 
0

>  <i_epik_Tot_abs_Q>  (104) 
0

>  <s_lp_Force_Field>  (104) 
OPLS3e

>  <r_lp_Energy>  (104) 
271.344

>  <b_lp_Chiralities_Consistent>  (104) 
1

>  <s_lp_Variant>  (104) 
33:0-1

>  <s_i_glide_gridfile>  (104) 
pfpi4k_grid

>  <i_i_glide_lignum>  (104) 
1

>  <i_i_glide_rotatable_bonds>  (104) 
3

>  <r_i_docking_score>  (104) 
-2.58535

>  <r_i_glide_ligand_efficiency>  (104) 
-0.0760397

>  <r_i_glide_ligand_efficiency_sa>  (104) 
-0.246339

>  <r_i_glide_ligand_efficiency_ln>  (104) 
-0.571177

>  <r_i_glide_gscore>  (104) 
-2.58535

>  <r_i_glide_lipo>  (104) 
-0.134124

>  <r_i_glide_hbond>  (104) 
-0.312297

>  <r_i_glide_metal>  (104) 
-0

>  <r_i_glide_rewards>  (104) 
-0.159236

>  <r_i_glide_evdw>  (104) 
-25.5672

>  <r_i_glide_ecoul>  (104) 
-4.49596

>  <r_i_glide_erotb>  (104) 
0

>  <r_i_glide_esite>  (104) 
-0.026939

>  <r_i_glide_emodel>  (104) 
-35.2573

>  <r_i_glide_energy>  (104) 
-30.0632

>  <r_i_glide_einternal>  (104) 
1.98694

>  <r_i_glide_intrahb_reward>  (104) 
-0

>  <i_i_glide_confnum>  (104) 
2

>  <i_i_glide_posenum>  (104) 
23

>  <r_i_glide_eff_state_penalty>  (104) 
0

>  <ligand_id>  (104) 
33

>  <original_smiles>  (104) 
CC1(C)OC23C4C(CC(O)C5CC6(O)OC7C(O)C(C)(C)CC2C76C(C)(O1)C3C5(C)C)C4(C)C

>  <smiles>  (104) 
[H]OC1([H])C([H])([H])C2([H])C([H])(C34OC(C([H])([H])[H])(C([H])([H])[H])OC5(C([H])([H])[H])C3([H])C(C([H])([H])[H])(C([H])([H])[H])C1([H])C([H])([H])C1(O[H])OC3([H])C([H])(O[H])C(C([H])([H])[H])(C([H])([H])[H])C([H])([H])C4([H])C315)C2(C([H])([H])[H])C([H])([H])[H]

$$$$
33:0:2
     RDKit          3D

 78 84  0  0  1  0  0  0  0  0999 V2000
   -0.6076    2.0376    9.1634 C   0  0  0  0  0  0  0  0  0  0  0  0
    0.7491    1.5184    8.6737 C   0  0  0  0  0  0  0  0  0  0  0  0
    1.6884    1.2863    9.8758 C   0  0  0  0  0  0  0  0  0  0  0  0
    0.4892    0.2658    8.0391 O   0  0  0  0  0  0  0  0  0  0  0  0
    1.1251    0.0914    6.7741 C   0  0  1  0  0  0  0  0  0  0  0  0
    1.0014   -1.2734    6.0486 C   0  0  1  0  0  0  0  0  0  0  0  0
    2.1779   -2.2274    6.1721 C   0  0  2  0  0  0  0  0  0  0  0  0
    3.0355   -2.2289    4.9119 C   0  0  0  0  0  0  0  0  0  0  0  0
    4.4319   -1.5408    5.0656 C   0  0  1  0  0  0  0  0  0  0  0  0
    5.0664   -1.6439    3.8086 O   0  0  0  0  0  0  0  0  0  0  0  0
    4.6361   -0.0651    5.6180 C   0  0  1  0  0  0  0  0  0  0  0  0
    4.3030    1.1394    4.6117 C   0  0  0  0  0  0  0  0  0  0  0  0
    2.8230    1.6063    4.2737 C   0  0  2  0  0  0  0  0  0  0  0  0
    2.4760    0.6786    3.2513 O   0  0  0  0  0  0  0  0  0  0  0  0
    2.7321    3.0411    3.8960 O   0  0  0  0  0  0  0  0  0  0  0  0
    1.3121    2.9054    4.1477 C   0  0  2  0  0  0  0  0  0  0  0  0
    0.1228    3.7423    4.5258 C   0  0  1  0  0  0  0  0  0  0  0  0
   -0.0764    4.8357    3.6534 O   0  0  0  0  0  0  0  0  0  0  0  0
   -1.1090    2.7089    4.4701 C   0  0  0  0  0  0  0  0  0  0  0  0
   -2.1886    3.2128    5.4460 C   0  0  0  0  0  0  0  0  0  0  0  0
   -1.7493    2.6726    3.0570 C   0  0  0  0  0  0  0  0  0  0  0  0
   -0.7115    1.1836    4.8181 C   0  0  0  0  0  0  0  0  0  0  0  0
    0.5048    1.1521    5.7734 C   0  0  2  0  0  0  0  0  0  0  0  0
    1.6725    1.9713    5.3043 C   0  0  1  0  0  0  0  0  0  0  0  0
    2.2333    2.2179    6.7399 C   0  0  1  0  0  0  0  0  0  0  0  0
    3.1734    3.4424    6.8409 C   0  0  0  0  0  0  0  0  0  0  0  0
    1.3035    2.5374    7.8275 O   0  0  0  0  0  0  0  0  0  0  0  0
    2.5817    0.7240    6.9993 C   0  0  1  0  0  0  0  0  0  0  0  0
    4.0932    0.2274    7.0977 C   0  0  0  0  0  0  0  0  0  0  0  0
    4.2521   -0.9160    8.1488 C   0  0  0  0  0  0  0  0  0  0  0  0
    5.0607    1.2898    7.7033 C   0  0  0  0  0  0  0  0  0  0  0  0
    0.7734   -2.6946    6.4792 C   0  0  0  0  0  0  0  0  0  0  0  0
    0.3466   -2.9644    7.9086 C   0  0  0  0  0  0  0  0  0  0  0  0
    0.1393   -3.6949    5.5360 C   0  0  0  0  0  0  0  0  0  0  0  0
   -1.3007    2.1262    8.3296 H   0  0  0  0  0  0  0  0  0  0  0  0
   -0.4861    3.0166    9.6269 H   0  0  0  0  0  0  0  0  0  0  0  0
   -1.0279    1.3470    9.8913 H   0  0  0  0  0  0  0  0  0  0  0  0
    2.6700    0.9470    9.5627 H   0  0  0  0  0  0  0  0  0  0  0  0
    1.2616    0.5356   10.5389 H   0  0  0  0  0  0  0  0  0  0  0  0
    1.8127    2.2175   10.4271 H   0  0  0  0  0  0  0  0  0  0  0  0
    0.6301   -1.1262    5.0364 H   0  0  0  0  0  0  0  0  0  0  0  0
    2.7382   -2.4390    7.0652 H   0  0  0  0  0  0  0  0  0  0  0  0
    3.1837   -3.2716    4.6277 H   0  0  0  0  0  0  0  0  0  0  0  0
    2.4943   -1.7775    4.0809 H   0  0  0  0  0  0  0  0  0  0  0  0
    5.0212   -2.2038    5.6987 H   0  0  0  0  0  0  0  0  0  0  0  0
    5.0223   -2.5429    3.5192 H   0  0  0  0  0  0  0  0  0  0  0  0
    5.7231   -0.0239    5.7039 H   0  0  0  0  0  0  0  0  0  0  0  0
    4.8626    1.9982    4.9570 H   0  0  0  0  0  0  0  0  0  0  0  0
    4.8197    0.9312    3.6744 H   0  0  0  0  0  0  0  0  0  0  0  0
    1.8385    1.0979    2.6949 H   0  0  0  0  0  0  0  0  0  0  0  0
    0.9417    2.4220    3.2423 H   0  0  0  0  0  0  0  0  0  0  0  0
    0.2522    4.1322    5.5360 H   0  0  0  0  0  0  0  0  0  0  0  0
    0.0695    4.5540    2.7500 H   0  0  0  0  0  0  0  0  0  0  0  0
   -3.0458    2.5468    5.4775 H   0  0  0  0  0  0  0  0  0  0  0  0
   -2.5697    4.1830    5.1356 H   0  0  0  0  0  0  0  0  0  0  0  0
   -1.8156    3.3161    6.4637 H   0  0  0  0  0  0  0  0  0  0  0  0
   -2.5858    1.9802    3.0241 H   0  0  0  0  0  0  0  0  0  0  0  0
   -1.0384    2.3507    2.2922 H   0  0  0  0  0  0  0  0  0  0  0  0
   -2.1334    3.6447    2.7408 H   0  0  0  0  0  0  0  0  0  0  0  0
   -1.5569    0.6592    5.2692 H   0  0  0  0  0  0  0  0  0  0  0  0
   -0.4672    0.6343    3.9061 H   0  0  0  0  0  0  0  0  0  0  0  0
   -0.1105    1.7576    6.4189 H   0  0  0  0  0  0  0  0  0  0  0  0
    3.9597    3.4999    6.0939 H   0  0  0  0  0  0  0  0  0  0  0  0
    3.6162    3.5352    7.8320 H   0  0  0  0  0  0  0  0  0  0  0  0
    2.5826    4.3476    6.6955 H   0  0  0  0  0  0  0  0  0  0  0  0
    2.6219    0.1946    6.0920 H   0  0  0  0  0  0  0  0  0  0  0  0
    3.2996   -1.1516    8.6218 H   0  0  0  0  0  0  0  0  0  0  0  0
    4.8953   -0.6596    8.9922 H   0  0  0  0  0  0  0  0  0  0  0  0
    4.6872   -1.8289    7.7538 H   0  0  0  0  0  0  0  0  0  0  0  0
    4.6740    1.7096    8.6337 H   0  0  0  0  0  0  0  0  0  0  0  0
    5.3124    2.1112    7.0405 H   0  0  0  0  0  0  0  0  0  0  0  0
    6.0364    0.8597    7.9395 H   0  0  0  0  0  0  0  0  0  0  0  0
    0.6113   -3.9807    8.2054 H   0  0  0  0  0  0  0  0  0  0  0  0
   -0.7317   -2.8440    8.0079 H   0  0  0  0  0  0  0  0  0  0  0  0
    0.8384   -2.2697    8.5918 H   0  0  0  0  0  0  0  0  0  0  0  0
    0.4419   -4.7116    5.7960 H   0  0  0  0  0  0  0  0  0  0  0  0
    0.4413   -3.5018    4.5051 H   0  0  0  0  0  0  0  0  0  0  0  0
   -0.9465   -3.6217    5.6040 H   0  0  0  0  0  0  0  0  0  0  0  0
  1  2  1  0
  1 35  1  0
  1 36  1  0
  1 37  1  0
  2 27  1  0
  2  3  1  0
  2  4  1  0
  3 38  1  0
  3 39  1  0
  3 40  1  0
  5  4  1  1
  5 23  1  0
  5 28  1  0
  5  6  1  0
  6 32  1  0
  6  7  1  0
  6 41  1  6
  7  8  1  0
  7 32  1  0
  7 42  1  1
  8  9  1  0
  8 43  1  0
  8 44  1  0
  9 10  1  0
  9 11  1  0
  9 45  1  1
 10 46  1  0
 11 29  1  0
 11 12  1  0
 11 47  1  1
 12 13  1  0
 12 48  1  0
 12 49  1  0
 24 13  1  6
 13 14  1  6
 13 15  1  0
 14 50  1  0
 15 16  1  0
 16 24  1  0
 16 17  1  0
 16 51  1  6
 17 18  1  0
 17 19  1  0
 17 52  1  1
 18 53  1  0
 19 20  1  0
 19 21  1  0
 19 22  1  0
 20 54  1  0
 20 55  1  0
 20 56  1  0
 21 57  1  0
 21 58  1  0
 21 59  1  0
 22 23  1  0
 22 60  1  0
 22 61  1  0
 23 24  1  0
 23 62  1  1
 24 25  1  0
 25 26  1  6
 25 27  1  0
 25 28  1  0
 26 63  1  0
 26 64  1  0
 26 65  1  0
 28 29  1  0
 28 66  1  1
 29 30  1  0
 29 31  1  0
 30 67  1  0
 30 68  1  0
 30 69  1  0
 31 70  1  0
 31 71  1  0
 31 72  1  0
 32 33  1  0
 32 34  1  0
 33 73  1  0
 33 74  1  0
 33 75  1  0
 34 76  1  0
 34 77  1  0
 34 78  1  0
M  END
>  <i_m_ct_stereo_status>  (105) 
1

>  <s_m_source_file>  (105) 
/var/tmp/pbs.5076255.sched01/tmp2pvlagj1/41_74nrqse.sdf

>  <i_m_source_file_index>  (105) 
1

>  <i_lp_mmshare_version>  (105) 
48012

>  <i_f3d_flags>  (105) 
0

>  <s_epik_input>  (105) 
W0NASF0xMltDSDJdQyhbQ0gzXSkoW0NIM10pW0NASF0oW09IXSlbQ0BASF0oTzMpW0NAXTIoW0NAQF0oW0NIM10pKE9DKE80KShbQ0gzXSlbQ0gzXSlbQ0BIXTVDNihbQ0gzXSlbQ0gzXSlbQ0BdMyhbT0hdKVtDSDJdW0NAQEhdNltDQEhdKFtPSF0pW0NIMl1bQ0BASF0oW0NAQEhdN1tDQEBdMTQ1KUM3KFtDSDNdKVtDSDNd

>  <s_epik_cmdline>  (105) 
J2VwaWtfcHl0aG9uJywgJy1waHQnLCAnMi4wJywgJy1waCcsICc3LjAnLCAnLXRuJywgJzgnLCAnLW1hJywgJzIwMCcsICctaW1hZScsICc8aW5maWxlLm1hZT4nLCAnLW9tYWUnLCAnPG91dGZpbGUubWFlPic=

>  <r_lp_tautomer_probability>  (105) 
1

>  <r_epik_Ionization_Penalty>  (105) 
1.70316e-06

>  <r_epik_Ionization_Penalty_Charging>  (105) 
0

>  <r_epik_Ionization_Penalty_Neutral>  (105) 
1.70316e-06

>  <r_epik_State_Penalty>  (105) 
-0

>  <r_epik_Charging_Adjusted_Penalty>  (105) 
0

>  <i_epik_Tot_Q>  (105) 
0

>  <i_epik_Tot_abs_Q>  (105) 
0

>  <s_lp_Force_Field>  (105) 
OPLS3e

>  <r_lp_Energy>  (105) 
271.344

>  <b_lp_Chiralities_Consistent>  (105) 
1

>  <s_lp_Variant>  (105) 
33:0-1

>  <s_i_glide_gridfile>  (105) 
pfpi4k_grid

>  <i_i_glide_lignum>  (105) 
1

>  <i_i_glide_rotatable_bonds>  (105) 
3

>  <r_i_docking_score>  (105) 
-1.77107

>  <r_i_glide_ligand_efficiency>  (105) 
-0.0520904

>  <r_i_glide_ligand_efficiency_sa>  (105) 
-0.168753

>  <r_i_glide_ligand_efficiency_ln>  (105) 
-0.39128

>  <r_i_glide_gscore>  (105) 
-1.77107

>  <r_i_glide_lipo>  (105) 
-0.0277054

>  <r_i_glide_hbond>  (105) 
0

>  <r_i_glide_metal>  (105) 
-0

>  <r_i_glide_rewards>  (105) 
-0.159236

>  <r_i_glide_evdw>  (105) 
-21.425

>  <r_i_glide_ecoul>  (105) 
-3.38021

>  <r_i_glide_erotb>  (105) 
0

>  <r_i_glide_esite>  (105) 
-0.00585189

>  <r_i_glide_emodel>  (105) 
-28.8612

>  <r_i_glide_energy>  (105) 
-24.8052

>  <r_i_glide_einternal>  (105) 
0.537032

>  <r_i_glide_intrahb_reward>  (105) 
-0

>  <i_i_glide_confnum>  (105) 
2

>  <i_i_glide_posenum>  (105) 
1

>  <r_i_glide_eff_state_penalty>  (105) 
0

>  <ligand_id>  (105) 
33

>  <original_smiles>  (105) 
CC1(C)OC23C4C(CC(O)C5CC6(O)OC7C(O)C(C)(C)CC2C76C(C)(O1)C3C5(C)C)C4(C)C

>  <smiles>  (105) 
[H]OC1([H])C([H])([H])C2([H])C([H])(C34OC(C([H])([H])[H])(C([H])([H])[H])OC5(C([H])([H])[H])C3([H])C(C([H])([H])[H])(C([H])([H])[H])C1([H])C([H])([H])C1(O[H])OC3([H])C([H])(O[H])C(C([H])([H])[H])(C([H])([H])[H])C([H])([H])C4([H])C315)C2(C([H])([H])[H])C([H])([H])[H]

$$$$
34:0:0
     RDKit          3D

 30 32  0  0  1  0  0  0  0  0999 V2000
    6.9283   -6.0698    1.3973 C   0  0  0  0  0  0  0  0  0  0  0  0
    7.6669   -4.9320    1.1919 C   0  0  0  0  0  0  0  0  0  0  0  0
    6.8327   -4.0386    0.5702 N   0  0  0  0  0  0  0  0  0  0  0  0
    5.6260   -4.5933    0.3786 C   0  0  0  0  0  0  0  0  0  0  0  0
    5.6745   -5.8305    0.8836 N   0  0  0  0  0  0  0  0  0  0  0  0
    4.4793   -3.8923   -0.2810 C   0  0  0  0  0  0  0  0  0  0  0  0
    4.9424   -2.7371   -1.0647 N   0  0  0  0  0  0  0  0  0  0  0  0
    3.8457   -1.9745   -1.6659 C   0  0  2  0  0  0  0  0  0  0  0  0
    2.9322   -2.8272   -2.5579 C   0  0  0  0  0  0  0  0  0  0  0  0
    3.0120   -2.1874   -3.9257 C   0  0  0  0  0  0  0  0  0  0  0  0
    4.2336   -1.4878   -3.9254 O   0  0  0  0  0  0  0  0  0  0  0  0
    4.3196   -0.8814   -2.6505 C   0  0  0  0  0  0  0  0  0  0  0  0
    5.8177   -1.9218   -0.2083 C   0  0  0  0  0  0  0  0  0  0  0  0
    7.1221   -2.6787    0.0931 C   0  0  0  0  0  0  0  0  0  0  0  0
    7.1954   -7.0085    1.8643 H   0  0  0  0  0  0  0  0  0  0  0  0
    8.6937   -4.6912    1.4413 H   0  0  0  0  0  0  0  0  0  0  0  0
    3.9932   -4.6499   -0.8969 H   0  0  0  0  0  0  0  0  0  0  0  0
    3.7901   -3.5826    0.5078 H   0  0  0  0  0  0  0  0  0  0  0  0
    3.2615   -1.5138   -0.8674 H   0  0  0  0  0  0  0  0  0  0  0  0
    3.2880   -3.8537   -2.6753 H   0  0  0  0  0  0  0  0  0  0  0  0
    1.9052   -2.8684   -2.1850 H   0  0  0  0  0  0  0  0  0  0  0  0
    3.0019   -2.9352   -4.7222 H   0  0  0  0  0  0  0  0  0  0  0  0
    2.2116   -1.4761   -4.0953 H   0  0  0  0  0  0  0  0  0  0  0  0
    3.6573   -0.0154   -2.6262 H   0  0  0  0  0  0  0  0  0  0  0  0
    5.3340   -0.5175   -2.4925 H   0  0  0  0  0  0  0  0  0  0  0  0
    6.0814   -0.9679   -0.6571 H   0  0  0  0  0  0  0  0  0  0  0  0
    5.2953   -1.6814    0.7243 H   0  0  0  0  0  0  0  0  0  0  0  0
    7.7143   -2.1633    0.8494 H   0  0  0  0  0  0  0  0  0  0  0  0
    7.7214   -2.7794   -0.8176 H   0  0  0  0  0  0  0  0  0  0  0  0
    4.9007   -6.4811    0.8823 H   0  0  0  0  0  0  0  0  0  0  0  0
  1  5  1  0
  1  2  2  0
  1 15  1  0
  2  3  1  0
  2 16  1  0
  3 14  1  0
  3  4  1  0
  4  5  2  0
  4  6  1  0
  5 30  1  0
  6  7  1  0
  6 17  1  0
  6 18  1  0
  7  8  1  0
  7 13  1  0
  8 12  1  0
  8  9  1  0
  8 19  1  1
  9 10  1  0
  9 20  1  0
  9 21  1  0
 10 11  1  0
 10 22  1  0
 10 23  1  0
 11 12  1  0
 12 24  1  0
 12 25  1  0
 13 14  1  0
 13 26  1  0
 13 27  1  0
 14 28  1  0
 14 29  1  0
M  CHG  1   5   1
M  END
>  <i_m_ct_stereo_status>  (106) 
1

>  <s_m_source_file>  (106) 
/var/tmp/pbs.5076255.sched01/tmp2pvlagj1/41_74nrqse.sdf

>  <i_m_source_file_index>  (106) 
2

>  <i_lp_mmshare_version>  (106) 
48012

>  <i_f3d_flags>  (106) 
0

>  <s_epik_input>  (106) 
W2NIXTFbY0hdbmMobjEyKVtDSDJdTihbQ0gyXVtDSDJdMilbQ0BASF0zW0NIMl1bQ0gyXU9bQ0gyXTM=

>  <s_epik_cmdline>  (106) 
J2VwaWtfcHl0aG9uJywgJy1waHQnLCAnMi4wJywgJy1waCcsICc3LjAnLCAnLXRuJywgJzgnLCAnLW1hJywgJzIwMCcsICctaW1hZScsICc8aW5maWxlLm1hZT4nLCAnLW9tYWUnLCAnPG91dGZpbGUubWFlPic=

>  <r_lp_tautomer_probability>  (106) 
1

>  <r_epik_Ionization_Penalty>  (106) 
0.0108479

>  <r_epik_Ionization_Penalty_Charging>  (106) 
0

>  <r_epik_Ionization_Penalty_Neutral>  (106) 
0.0108479

>  <r_epik_State_Penalty>  (106) 
0.00710112

>  <r_epik_Charging_Adjusted_Penalty>  (106) 
0.00710112

>  <i_epik_Tot_Q>  (106) 
1

>  <i_epik_Tot_abs_Q>  (106) 
1

>  <s_lp_Force_Field>  (106) 
OPLS3e

>  <r_lp_Energy>  (106) 
28.2206

>  <b_lp_Chiralities_Consistent>  (106) 
1

>  <s_lp_Variant>  (106) 
34:0-1

>  <s_i_glide_gridfile>  (106) 
pfpi4k_grid

>  <i_i_glide_lignum>  (106) 
2

>  <i_i_glide_rotatable_bonds>  (106) 
1

>  <r_i_docking_score>  (106) 
-4.10917

>  <r_i_glide_ligand_efficiency>  (106) 
-0.293512

>  <r_i_glide_ligand_efficiency_sa>  (106) 
-0.707406

>  <r_i_glide_ligand_efficiency_ln>  (106) 
-1.12918

>  <r_i_glide_gscore>  (106) 
-4.10917

>  <r_i_glide_lipo>  (106) 
-0.418643

>  <r_i_glide_hbond>  (106) 
-0.0251686

>  <r_i_glide_metal>  (106) 
-0

>  <r_i_glide_rewards>  (106) 
-2.36729

>  <r_i_glide_evdw>  (106) 
-22.1377

>  <r_i_glide_ecoul>  (106) 
-4.13205

>  <r_i_glide_erotb>  (106) 
0.428623

>  <r_i_glide_esite>  (106) 
0

>  <r_i_glide_emodel>  (106) 
-32.7359

>  <r_i_glide_energy>  (106) 
-26.2697

>  <r_i_glide_einternal>  (106) 
0.0388389

>  <r_i_glide_intrahb_reward>  (106) 
-0

>  <i_i_glide_confnum>  (106) 
4

>  <i_i_glide_posenum>  (106) 
1

>  <r_i_glide_eff_state_penalty>  (106) 
0

>  <ligand_id>  (106) 
34

>  <original_smiles>  (106) 
c1cn2c(n1)CN(C1CCOC1)CC2

>  <smiles>  (106) 
[H]c1c([H])[n+]([H])c2n1C([H])([H])C([H])([H])N(C1([H])C([H])([H])OC([H])([H])C1([H])[H])C2([H])[H]

$$$$
34:0:1
     RDKit          3D

 30 32  0  0  1  0  0  0  0  0999 V2000
    4.0086   -0.6797    3.4909 C   0  0  0  0  0  0  0  0  0  0  0  0
    4.8862   -1.7260    3.3298 C   0  0  0  0  0  0  0  0  0  0  0  0
    5.0208   -1.9104    1.9784 N   0  0  0  0  0  0  0  0  0  0  0  0
    4.2424   -1.0421    1.3186 C   0  0  0  0  0  0  0  0  0  0  0  0
    3.6315   -0.2808    2.2310 N   0  0  0  0  0  0  0  0  0  0  0  0
    4.1478   -0.9779   -0.1723 C   0  0  0  0  0  0  0  0  0  0  0  0
    4.6432   -2.2102   -0.7967 N   0  0  0  0  0  0  0  0  0  0  0  0
    4.6557   -2.1416   -2.2578 C   0  0  2  0  0  0  0  0  0  0  0  0
    3.2829   -1.8940   -2.8843 C   0  0  0  0  0  0  0  0  0  0  0  0
    3.0671   -3.0652   -3.8299 C   0  0  0  0  0  0  0  0  0  0  0  0
    4.3774   -3.4952   -4.1458 O   0  0  0  0  0  0  0  0  0  0  0  0
    5.0974   -3.4523   -2.9305 C   0  0  0  0  0  0  0  0  0  0  0  0
    5.9529   -2.5350   -0.2275 C   0  0  0  0  0  0  0  0  0  0  0  0
    5.8125   -2.9114    1.2571 C   0  0  0  0  0  0  0  0  0  0  0  0
    3.6340   -0.2094    4.3874 H   0  0  0  0  0  0  0  0  0  0  0  0
    5.4107   -2.3330    4.0541 H   0  0  0  0  0  0  0  0  0  0  0  0
    3.0982   -0.7962   -0.3962 H   0  0  0  0  0  0  0  0  0  0  0  0
    4.7320   -0.1138   -0.4889 H   0  0  0  0  0  0  0  0  0  0  0  0
    5.3298   -1.3465   -2.5798 H   0  0  0  0  0  0  0  0  0  0  0  0
    2.4567   -1.8702   -2.1754 H   0  0  0  0  0  0  0  0  0  0  0  0
    3.2870   -0.9463   -3.4231 H   0  0  0  0  0  0  0  0  0  0  0  0
    2.5188   -3.8579   -3.3194 H   0  0  0  0  0  0  0  0  0  0  0  0
    2.5114   -2.7883   -4.7126 H   0  0  0  0  0  0  0  0  0  0  0  0
    6.1717   -3.4903   -3.1101 H   0  0  0  0  0  0  0  0  0  0  0  0
    4.8228   -4.3168   -2.3227 H   0  0  0  0  0  0  0  0  0  0  0  0
    6.4216   -3.3703   -0.7441 H   0  0  0  0  0  0  0  0  0  0  0  0
    6.6281   -1.6810   -0.3294 H   0  0  0  0  0  0  0  0  0  0  0  0
    6.7870   -2.9904    1.7324 H   0  0  0  0  0  0  0  0  0  0  0  0
    5.2897   -3.8651    1.3579 H   0  0  0  0  0  0  0  0  0  0  0  0
    2.9836    0.4695    2.0157 H   0  0  0  0  0  0  0  0  0  0  0  0
  1  5  1  0
  1  2  2  0
  1 15  1  0
  2  3  1  0
  2 16  1  0
  3 14  1  0
  3  4  1  0
  4  5  2  0
  4  6  1  0
  5 30  1  0
  6  7  1  0
  6 17  1  0
  6 18  1  0
  7  8  1  0
  7 13  1  0
  8 12  1  0
  8  9  1  0
  8 19  1  1
  9 10  1  0
  9 20  1  0
  9 21  1  0
 10 11  1  0
 10 22  1  0
 10 23  1  0
 11 12  1  0
 12 24  1  0
 12 25  1  0
 13 14  1  0
 13 26  1  0
 13 27  1  0
 14 28  1  0
 14 29  1  0
M  CHG  1   5   1
M  END
>  <i_m_ct_stereo_status>  (107) 
1

>  <s_m_source_file>  (107) 
/var/tmp/pbs.5076255.sched01/tmp2pvlagj1/41_74nrqse.sdf

>  <i_m_source_file_index>  (107) 
2

>  <i_lp_mmshare_version>  (107) 
48012

>  <i_f3d_flags>  (107) 
0

>  <s_epik_input>  (107) 
W2NIXTFbY0hdbmMobjEyKVtDSDJdTihbQ0gyXVtDSDJdMilbQ0BASF0zW0NIMl1bQ0gyXU9bQ0gyXTM=

>  <s_epik_cmdline>  (107) 
J2VwaWtfcHl0aG9uJywgJy1waHQnLCAnMi4wJywgJy1waCcsICc3LjAnLCAnLXRuJywgJzgnLCAnLW1hJywgJzIwMCcsICctaW1hZScsICc8aW5maWxlLm1hZT4nLCAnLW9tYWUnLCAnPG91dGZpbGUubWFlPic=

>  <r_lp_tautomer_probability>  (107) 
1

>  <r_epik_Ionization_Penalty>  (107) 
0.0108479

>  <r_epik_Ionization_Penalty_Charging>  (107) 
0

>  <r_epik_Ionization_Penalty_Neutral>  (107) 
0.0108479

>  <r_epik_State_Penalty>  (107) 
0.00710112

>  <r_epik_Charging_Adjusted_Penalty>  (107) 
0.00710112

>  <i_epik_Tot_Q>  (107) 
1

>  <i_epik_Tot_abs_Q>  (107) 
1

>  <s_lp_Force_Field>  (107) 
OPLS3e

>  <r_lp_Energy>  (107) 
28.2206

>  <b_lp_Chiralities_Consistent>  (107) 
1

>  <s_lp_Variant>  (107) 
34:0-1

>  <s_i_glide_gridfile>  (107) 
pfpi4k_grid

>  <i_i_glide_lignum>  (107) 
2

>  <i_i_glide_rotatable_bonds>  (107) 
1

>  <r_i_docking_score>  (107) 
-3.94262

>  <r_i_glide_ligand_efficiency>  (107) 
-0.281616

>  <r_i_glide_ligand_efficiency_sa>  (107) 
-0.678734

>  <r_i_glide_ligand_efficiency_ln>  (107) 
-1.08342

>  <r_i_glide_gscore>  (107) 
-3.94262

>  <r_i_glide_lipo>  (107) 
-0.527448

>  <r_i_glide_hbond>  (107) 
-0.0724119

>  <r_i_glide_metal>  (107) 
-0

>  <r_i_glide_rewards>  (107) 
-2.21592

>  <r_i_glide_evdw>  (107) 
-20.5975

>  <r_i_glide_ecoul>  (107) 
-3.50393

>  <r_i_glide_erotb>  (107) 
0.428623

>  <r_i_glide_esite>  (107) 
0

>  <r_i_glide_emodel>  (107) 
-30.4258

>  <r_i_glide_energy>  (107) 
-24.1015

>  <r_i_glide_einternal>  (107) 
0.0667112

>  <r_i_glide_intrahb_reward>  (107) 
-0

>  <i_i_glide_confnum>  (107) 
1

>  <i_i_glide_posenum>  (107) 
39

>  <r_i_glide_eff_state_penalty>  (107) 
0

>  <ligand_id>  (107) 
34

>  <original_smiles>  (107) 
c1cn2c(n1)CN(C1CCOC1)CC2

>  <smiles>  (107) 
[H]c1c([H])[n+]([H])c2n1C([H])([H])C([H])([H])N(C1([H])C([H])([H])OC([H])([H])C1([H])[H])C2([H])[H]

$$$$
34:0:2
     RDKit          3D

 30 32  0  0  1  0  0  0  0  0999 V2000
    1.8079   -2.5550    3.2498 C   0  0  0  0  0  0  0  0  0  0  0  0
    2.2979   -3.7713    2.8476 C   0  0  0  0  0  0  0  0  0  0  0  0
    3.0269   -3.5337    1.7114 N   0  0  0  0  0  0  0  0  0  0  0  0
    2.9869   -2.2299    1.4025 C   0  0  0  0  0  0  0  0  0  0  0  0
    2.2456   -1.6255    2.3329 N   0  0  0  0  0  0  0  0  0  0  0  0
    3.6802   -1.6297    0.2164 C   0  0  0  0  0  0  0  0  0  0  0  0
    4.0159   -2.6592   -0.7767 N   0  0  0  0  0  0  0  0  0  0  0  0
    4.7485   -2.1366   -1.9278 C   0  0  2  0  0  0  0  0  0  0  0  0
    4.0107   -1.0042   -2.6584 C   0  0  0  0  0  0  0  0  0  0  0  0
    3.8238   -1.4917   -4.0848 C   0  0  0  0  0  0  0  0  0  0  0  0
    3.9305   -2.8962   -3.9921 O   0  0  0  0  0  0  0  0  0  0  0  0
    4.9584   -3.1706   -3.0573 C   0  0  0  0  0  0  0  0  0  0  0  0
    4.7074   -3.7611   -0.0874 C   0  0  0  0  0  0  0  0  0  0  0  0
    3.7409   -4.4934    0.8538 C   0  0  0  0  0  0  0  0  0  0  0  0
    1.1936   -2.2856    4.0998 H   0  0  0  0  0  0  0  0  0  0  0  0
    2.1953   -4.7664    3.2696 H   0  0  0  0  0  0  0  0  0  0  0  0
    2.9969   -0.8779   -0.1771 H   0  0  0  0  0  0  0  0  0  0  0  0
    4.5752   -1.1256    0.5873 H   0  0  0  0  0  0  0  0  0  0  0  0
    5.7199   -1.7842   -1.5782 H   0  0  0  0  0  0  0  0  0  0  0  0
    3.0105   -0.8235   -2.2575 H   0  0  0  0  0  0  0  0  0  0  0  0
    4.5562   -0.0585   -2.6177 H   0  0  0  0  0  0  0  0  0  0  0  0
    2.8599   -1.1924   -4.4953 H   0  0  0  0  0  0  0  0  0  0  0  0
    4.6154   -1.1231   -4.7342 H   0  0  0  0  0  0  0  0  0  0  0  0
    5.9341   -3.0115   -3.5179 H   0  0  0  0  0  0  0  0  0  0  0  0
    4.9068   -4.2190   -2.7661 H   0  0  0  0  0  0  0  0  0  0  0  0
    5.1198   -4.4987   -0.7727 H   0  0  0  0  0  0  0  0  0  0  0  0
    5.5563   -3.3580    0.4809 H   0  0  0  0  0  0  0  0  0  0  0  0
    4.2669   -5.2030    1.4906 H   0  0  0  0  0  0  0  0  0  0  0  0
    2.9863   -5.0295    0.2703 H   0  0  0  0  0  0  0  0  0  0  0  0
    2.0390   -0.6334    2.3424 H   0  0  0  0  0  0  0  0  0  0  0  0
  1  5  1  0
  1  2  2  0
  1 15  1  0
  2  3  1  0
  2 16  1  0
  3 14  1  0
  3  4  1  0
  4  5  2  0
  4  6  1  0
  5 30  1  0
  6  7  1  0
  6 17  1  0
  6 18  1  0
  7  8  1  0
  7 13  1  0
  8 12  1  0
  8  9  1  0
  8 19  1  1
  9 10  1  0
  9 20  1  0
  9 21  1  0
 10 11  1  0
 10 22  1  0
 10 23  1  0
 11 12  1  0
 12 24  1  0
 12 25  1  0
 13 14  1  0
 13 26  1  0
 13 27  1  0
 14 28  1  0
 14 29  1  0
M  CHG  1   5   1
M  END
>  <i_m_ct_stereo_status>  (108) 
1

>  <s_m_source_file>  (108) 
/var/tmp/pbs.5076255.sched01/tmp2pvlagj1/41_74nrqse.sdf

>  <i_m_source_file_index>  (108) 
2

>  <i_lp_mmshare_version>  (108) 
48012

>  <i_f3d_flags>  (108) 
0

>  <s_epik_input>  (108) 
W2NIXTFbY0hdbmMobjEyKVtDSDJdTihbQ0gyXVtDSDJdMilbQ0BASF0zW0NIMl1bQ0gyXU9bQ0gyXTM=

>  <s_epik_cmdline>  (108) 
J2VwaWtfcHl0aG9uJywgJy1waHQnLCAnMi4wJywgJy1waCcsICc3LjAnLCAnLXRuJywgJzgnLCAnLW1hJywgJzIwMCcsICctaW1hZScsICc8aW5maWxlLm1hZT4nLCAnLW9tYWUnLCAnPG91dGZpbGUubWFlPic=

>  <r_lp_tautomer_probability>  (108) 
1

>  <r_epik_Ionization_Penalty>  (108) 
0.0108479

>  <r_epik_Ionization_Penalty_Charging>  (108) 
0

>  <r_epik_Ionization_Penalty_Neutral>  (108) 
0.0108479

>  <r_epik_State_Penalty>  (108) 
0.00710112

>  <r_epik_Charging_Adjusted_Penalty>  (108) 
0.00710112

>  <i_epik_Tot_Q>  (108) 
1

>  <i_epik_Tot_abs_Q>  (108) 
1

>  <s_lp_Force_Field>  (108) 
OPLS3e

>  <r_lp_Energy>  (108) 
28.2206

>  <b_lp_Chiralities_Consistent>  (108) 
1

>  <s_lp_Variant>  (108) 
34:0-1

>  <s_i_glide_gridfile>  (108) 
pfpi4k_grid

>  <i_i_glide_lignum>  (108) 
2

>  <i_i_glide_rotatable_bonds>  (108) 
1

>  <r_i_docking_score>  (108) 
-3.44149

>  <r_i_glide_ligand_efficiency>  (108) 
-0.245821

>  <r_i_glide_ligand_efficiency_sa>  (108) 
-0.592464

>  <r_i_glide_ligand_efficiency_ln>  (108) 
-0.94571

>  <r_i_glide_gscore>  (108) 
-3.44149

>  <r_i_glide_lipo>  (108) 
-0.247209

>  <r_i_glide_hbond>  (108) 
-0.155621

>  <r_i_glide_metal>  (108) 
-0

>  <r_i_glide_rewards>  (108) 
-2.08463

>  <r_i_glide_evdw>  (108) 
-20.8773

>  <r_i_glide_ecoul>  (108) 
-1.96233

>  <r_i_glide_erotb>  (108) 
0.428623

>  <r_i_glide_esite>  (108) 
-0.0444367

>  <r_i_glide_emodel>  (108) 
-28.2305

>  <r_i_glide_energy>  (108) 
-22.8397

>  <r_i_glide_einternal>  (108) 
0.000210402

>  <r_i_glide_intrahb_reward>  (108) 
-0

>  <i_i_glide_confnum>  (108) 
4

>  <i_i_glide_posenum>  (108) 
10

>  <r_i_glide_eff_state_penalty>  (108) 
0

>  <ligand_id>  (108) 
34

>  <original_smiles>  (108) 
c1cn2c(n1)CN(C1CCOC1)CC2

>  <smiles>  (108) 
[H]c1c([H])[n+]([H])c2n1C([H])([H])C([H])([H])N(C1([H])C([H])([H])OC([H])([H])C1([H])[H])C2([H])[H]

$$$$
34:1:0
     RDKit          3D

 29 31  0  0  1  0  0  0  0  0999 V2000
    4.0829   -0.9895    3.4126 C   0  0  0  0  0  0  0  0  0  0  0  0
    5.0064   -1.9897    3.2068 C   0  0  0  0  0  0  0  0  0  0  0  0
    5.1422   -2.1118    1.8341 N   0  0  0  0  0  0  0  0  0  0  0  0
    4.3186   -1.2038    1.2896 C   0  0  0  0  0  0  0  0  0  0  0  0
    3.6575   -0.4817    2.1870 N   0  0  0  0  0  0  0  0  0  0  0  0
    4.2321   -1.0667   -0.1979 C   0  0  0  0  0  0  0  0  0  0  0  0
    4.6674   -2.2891   -0.8902 N   0  0  0  0  0  0  0  0  0  0  0  0
    4.5948   -2.1710   -2.3474 C   0  0  2  0  0  0  0  0  0  0  0  0
    3.1865   -1.9134   -2.8910 C   0  0  0  0  0  0  0  0  0  0  0  0
    2.9295   -3.0484   -3.8697 C   0  0  0  0  0  0  0  0  0  0  0  0
    4.2230   -3.4539   -4.2722 O   0  0  0  0  0  0  0  0  0  0  0  0
    5.0055   -3.4531   -3.0922 C   0  0  0  0  0  0  0  0  0  0  0  0
    6.0026   -2.6543   -0.4029 C   0  0  0  0  0  0  0  0  0  0  0  0
    5.9526   -3.0585    1.0811 C   0  0  0  0  0  0  0  0  0  0  0  0
    3.6925   -0.5968    4.3360 H   0  0  0  0  0  0  0  0  0  0  0  0
    5.5528   -2.6137    3.9008 H   0  0  0  0  0  0  0  0  0  0  0  0
    3.2055   -0.8087   -0.4475 H   0  0  0  0  0  0  0  0  0  0  0  0
    4.8660   -0.2347   -0.5008 H   0  0  0  0  0  0  0  0  0  0  0  0
    5.2438   -1.3596   -2.6794 H   0  0  0  0  0  0  0  0  0  0  0  0
    2.4038   -1.9203   -2.1332 H   0  0  0  0  0  0  0  0  0  0  0  0
    3.1603   -0.9445   -3.3883 H   0  0  0  0  0  0  0  0  0  0  0  0
    2.4102   -3.8598   -3.3597 H   0  0  0  0  0  0  0  0  0  0  0  0
    2.3286   -2.7440   -4.7191 H   0  0  0  0  0  0  0  0  0  0  0  0
    6.0724   -3.4785   -3.3228 H   0  0  0  0  0  0  0  0  0  0  0  0
    4.7590   -4.3411   -2.5043 H   0  0  0  0  0  0  0  0  0  0  0  0
    6.4304   -3.4830   -0.9695 H   0  0  0  0  0  0  0  0  0  0  0  0
    6.6833   -1.8095   -0.5304 H   0  0  0  0  0  0  0  0  0  0  0  0
    6.9546   -3.1023    1.5066 H   0  0  0  0  0  0  0  0  0  0  0  0
    5.4941   -4.0469    1.1750 H   0  0  0  0  0  0  0  0  0  0  0  0
  1  5  1  0
  1  2  2  0
  1 15  1  0
  2  3  1  0
  2 16  1  0
  3 14  1  0
  3  4  1  0
  4  5  2  0
  4  6  1  0
  6  7  1  0
  6 17  1  0
  6 18  1  0
  7  8  1  0
  7 13  1  0
  8 12  1  0
  8  9  1  0
  8 19  1  6
  9 10  1  0
  9 20  1  0
  9 21  1  0
 10 11  1  0
 10 22  1  0
 10 23  1  0
 11 12  1  0
 12 24  1  0
 12 25  1  0
 13 14  1  0
 13 26  1  0
 13 27  1  0
 14 28  1  0
 14 29  1  0
M  END
>  <i_m_ct_stereo_status>  (109) 
1

>  <s_m_source_file>  (109) 
/var/tmp/pbs.5076255.sched01/tmp2pvlagj1/41_74nrqse.sdf

>  <i_m_source_file_index>  (109) 
3

>  <i_lp_mmshare_version>  (109) 
48012

>  <i_f3d_flags>  (109) 
0

>  <s_epik_input>  (109) 
W2NIXTFbY0hdbmMobjEyKVtDSDJdTihbQ0gyXVtDSDJdMilbQ0BASF0zW0NIMl1bQ0gyXU9bQ0gyXTM=

>  <s_epik_cmdline>  (109) 
J2VwaWtfcHl0aG9uJywgJy1waHQnLCAnMi4wJywgJy1waCcsICc3LjAnLCAnLXRuJywgJzgnLCAnLW1hJywgJzIwMCcsICctaW1hZScsICc8aW5maWxlLm1hZT4nLCAnLW9tYWUnLCAnPG91dGZpbGUubWFlPic=

>  <r_lp_tautomer_probability>  (109) 
1

>  <r_epik_Ionization_Penalty>  (109) 
2.47425

>  <r_epik_Ionization_Penalty_Charging>  (109) 
2.46245

>  <r_epik_Ionization_Penalty_Neutral>  (109) 
0.0118031

>  <r_epik_State_Penalty>  (109) 
2.62475

>  <r_epik_Charging_Adjusted_Penalty>  (109) 
5.0872

>  <i_epik_Tot_Q>  (109) 
0

>  <i_epik_Tot_abs_Q>  (109) 
0

>  <s_lp_Force_Field>  (109) 
OPLS3e

>  <r_lp_Energy>  (109) 
20.2517

>  <b_lp_Chiralities_Consistent>  (109) 
1

>  <s_lp_Variant>  (109) 
34:0-2

>  <s_i_glide_gridfile>  (109) 
pfpi4k_grid

>  <i_i_glide_lignum>  (109) 
3

>  <i_i_glide_rotatable_bonds>  (109) 
1

>  <r_i_docking_score>  (109) 
-3.75443

>  <r_i_glide_ligand_efficiency>  (109) 
-0.268173

>  <r_i_glide_ligand_efficiency_sa>  (109) 
-0.646336

>  <r_i_glide_ligand_efficiency_ln>  (109) 
-1.0317

>  <r_i_glide_gscore>  (109) 
-3.75443

>  <r_i_glide_lipo>  (109) 
-0.531926

>  <r_i_glide_hbond>  (109) 
-0.131488

>  <r_i_glide_metal>  (109) 
-0

>  <r_i_glide_rewards>  (109) 
-2.1986

>  <r_i_glide_evdw>  (109) 
-21.3187

>  <r_i_glide_ecoul>  (109) 
-1.72546

>  <r_i_glide_erotb>  (109) 
0.43234

>  <r_i_glide_esite>  (109) 
0

>  <r_i_glide_emodel>  (109) 
-28.7939

>  <r_i_glide_energy>  (109) 
-23.0442

>  <r_i_glide_einternal>  (109) 
0.00089762

>  <r_i_glide_intrahb_reward>  (109) 
-0

>  <i_i_glide_confnum>  (109) 
1

>  <i_i_glide_posenum>  (109) 
2

>  <r_i_glide_eff_state_penalty>  (109) 
0

>  <ligand_id>  (109) 
34

>  <original_smiles>  (109) 
c1cn2c(n1)CN(C1CCOC1)CC2

>  <smiles>  (109) 
[H]c1nc2n(c1[H])C([H])([H])C([H])([H])N(C1([H])C([H])([H])OC([H])([H])C1([H])[H])C2([H])[H]

$$$$
34:1:1
     RDKit          3D

 29 31  0  0  1  0  0  0  0  0999 V2000
    1.8109   -7.0967    1.5890 C   0  0  0  0  0  0  0  0  0  0  0  0
    3.1892   -7.1007    1.6836 C   0  0  0  0  0  0  0  0  0  0  0  0
    3.6230   -5.9473    1.0544 N   0  0  0  0  0  0  0  0  0  0  0  0
    2.5179   -5.3085    0.6318 C   0  0  0  0  0  0  0  0  0  0  0  0
    1.3902   -5.9457    0.9200 N   0  0  0  0  0  0  0  0  0  0  0  0
    2.6358   -4.0003   -0.0800 C   0  0  0  0  0  0  0  0  0  0  0  0
    3.9559   -3.8354   -0.7040 N   0  0  0  0  0  0  0  0  0  0  0  0
    4.0864   -2.5731   -1.4322 C   0  0  2  0  0  0  0  0  0  0  0  0
    3.0237   -2.3757   -2.5305 C   0  0  0  0  0  0  0  0  0  0  0  0
    3.7994   -2.2088   -3.8226 C   0  0  0  0  0  0  0  0  0  0  0  0
    5.0182   -2.8552   -3.5363 O   0  0  0  0  0  0  0  0  0  0  0  0
    5.3992   -2.4673   -2.2345 C   0  0  0  0  0  0  0  0  0  0  0  0
    4.9784   -4.0324    0.3352 C   0  0  0  0  0  0  0  0  0  0  0  0
    4.9836   -5.4931    0.8177 C   0  0  0  0  0  0  0  0  0  0  0  0
    1.0979   -7.8177    1.9434 H   0  0  0  0  0  0  0  0  0  0  0  0
    3.8728   -7.8161    2.1213 H   0  0  0  0  0  0  0  0  0  0  0  0
    1.8302   -3.9642   -0.8125 H   0  0  0  0  0  0  0  0  0  0  0  0
    2.4621   -3.1939    0.6364 H   0  0  0  0  0  0  0  0  0  0  0  0
    4.0358   -1.7523   -0.7149 H   0  0  0  0  0  0  0  0  0  0  0  0
    2.3802   -3.2476   -2.6639 H   0  0  0  0  0  0  0  0  0  0  0  0
    2.3866   -1.5147   -2.3274 H   0  0  0  0  0  0  0  0  0  0  0  0
    3.2953   -2.6890   -4.6597 H   0  0  0  0  0  0  0  0  0  0  0  0
    3.9791   -1.1591   -4.0565 H   0  0  0  0  0  0  0  0  0  0  0  0
    5.7554   -1.4326   -2.2432 H   0  0  0  0  0  0  0  0  0  0  0  0
    6.2242   -3.1079   -1.9118 H   0  0  0  0  0  0  0  0  0  0  0  0
    5.9834   -3.7868   -0.0042 H   0  0  0  0  0  0  0  0  0  0  0  0
    4.7691   -3.3639    1.1744 H   0  0  0  0  0  0  0  0  0  0  0  0
    5.5718   -5.6018    1.7292 H   0  0  0  0  0  0  0  0  0  0  0  0
    5.4219   -6.1319    0.0446 H   0  0  0  0  0  0  0  0  0  0  0  0
  1  5  1  0
  1  2  2  0
  1 15  1  0
  2  3  1  0
  2 16  1  0
  3 14  1  0
  3  4  1  0
  4  5  2  0
  4  6  1  0
  6  7  1  0
  6 17  1  0
  6 18  1  0
  7  8  1  0
  7 13  1  0
  8 12  1  0
  8  9  1  0
  8 19  1  1
  9 10  1  0
  9 20  1  0
  9 21  1  0
 10 11  1  0
 10 22  1  0
 10 23  1  0
 11 12  1  0
 12 24  1  0
 12 25  1  0
 13 14  1  0
 13 26  1  0
 13 27  1  0
 14 28  1  0
 14 29  1  0
M  END
>  <i_m_ct_stereo_status>  (110) 
1

>  <s_m_source_file>  (110) 
/var/tmp/pbs.5076255.sched01/tmp2pvlagj1/41_74nrqse.sdf

>  <i_m_source_file_index>  (110) 
3

>  <i_lp_mmshare_version>  (110) 
48012

>  <i_f3d_flags>  (110) 
0

>  <s_epik_input>  (110) 
W2NIXTFbY0hdbmMobjEyKVtDSDJdTihbQ0gyXVtDSDJdMilbQ0BASF0zW0NIMl1bQ0gyXU9bQ0gyXTM=

>  <s_epik_cmdline>  (110) 
J2VwaWtfcHl0aG9uJywgJy1waHQnLCAnMi4wJywgJy1waCcsICc3LjAnLCAnLXRuJywgJzgnLCAnLW1hJywgJzIwMCcsICctaW1hZScsICc8aW5maWxlLm1hZT4nLCAnLW9tYWUnLCAnPG91dGZpbGUubWFlPic=

>  <r_lp_tautomer_probability>  (110) 
1

>  <r_epik_Ionization_Penalty>  (110) 
2.47425

>  <r_epik_Ionization_Penalty_Charging>  (110) 
2.46245

>  <r_epik_Ionization_Penalty_Neutral>  (110) 
0.0118031

>  <r_epik_State_Penalty>  (110) 
2.62475

>  <r_epik_Charging_Adjusted_Penalty>  (110) 
5.0872

>  <i_epik_Tot_Q>  (110) 
0

>  <i_epik_Tot_abs_Q>  (110) 
0

>  <s_lp_Force_Field>  (110) 
OPLS3e

>  <r_lp_Energy>  (110) 
20.2517

>  <b_lp_Chiralities_Consistent>  (110) 
1

>  <s_lp_Variant>  (110) 
34:0-2

>  <s_i_glide_gridfile>  (110) 
pfpi4k_grid

>  <i_i_glide_lignum>  (110) 
3

>  <i_i_glide_rotatable_bonds>  (110) 
1

>  <r_i_docking_score>  (110) 
-3.73705

>  <r_i_glide_ligand_efficiency>  (110) 
-0.266932

>  <r_i_glide_ligand_efficiency_sa>  (110) 
-0.643344

>  <r_i_glide_ligand_efficiency_ln>  (110) 
-1.02693

>  <r_i_glide_gscore>  (110) 
-3.73705

>  <r_i_glide_lipo>  (110) 
-0.330136

>  <r_i_glide_hbond>  (110) 
-0.16

>  <r_i_glide_metal>  (110) 
-0

>  <r_i_glide_rewards>  (110) 
-2.13785

>  <r_i_glide_evdw>  (110) 
-20.4633

>  <r_i_glide_ecoul>  (110) 
-3.15812

>  <r_i_glide_erotb>  (110) 
0.43234

>  <r_i_glide_esite>  (110) 
-0.0445189

>  <r_i_glide_emodel>  (110) 
-29.1508

>  <r_i_glide_energy>  (110) 
-23.6214

>  <r_i_glide_einternal>  (110) 
0.00380432

>  <r_i_glide_intrahb_reward>  (110) 
-0

>  <i_i_glide_confnum>  (110) 
4

>  <i_i_glide_posenum>  (110) 
10

>  <r_i_glide_eff_state_penalty>  (110) 
0

>  <ligand_id>  (110) 
34

>  <original_smiles>  (110) 
c1cn2c(n1)CN(C1CCOC1)CC2

>  <smiles>  (110) 
[H]c1nc2n(c1[H])C([H])([H])C([H])([H])N(C1([H])C([H])([H])OC([H])([H])C1([H])[H])C2([H])[H]

$$$$
34:1:2
     RDKit          3D

 29 31  0  0  1  0  0  0  0  0999 V2000
    4.2361   -3.5819    3.5238 C   0  0  0  0  0  0  0  0  0  0  0  0
    5.1707   -2.6411    3.1692 C   0  0  0  0  0  0  0  0  0  0  0  0
    4.8178   -2.1939    1.9106 N   0  0  0  0  0  0  0  0  0  0  0  0
    3.6994   -2.8402    1.5889 C   0  0  0  0  0  0  0  0  0  0  0  0
    3.2809   -3.7007    2.5137 N   0  0  0  0  0  0  0  0  0  0  0  0
    3.0307   -2.5668    0.2863 C   0  0  0  0  0  0  0  0  0  0  0  0
    3.9784   -2.0205   -0.7054 N   0  0  0  0  0  0  0  0  0  0  0  0
    3.3553   -1.7628   -2.0063 C   0  0  2  0  0  0  0  0  0  0  0  0
    2.6684   -2.9888   -2.6173 C   0  0  0  0  0  0  0  0  0  0  0  0
    3.3551   -3.2044   -3.9437 C   0  0  0  0  0  0  0  0  0  0  0  0
    4.6016   -2.5644   -3.8203 O   0  0  0  0  0  0  0  0  0  0  0  0
    4.3503   -1.3657   -3.1135 C   0  0  0  0  0  0  0  0  0  0  0  0
    4.6136   -0.8393   -0.1157 C   0  0  0  0  0  0  0  0  0  0  0  0
    5.5190   -1.2399    1.0573 C   0  0  0  0  0  0  0  0  0  0  0  0
    4.1649   -4.1779    4.4267 H   0  0  0  0  0  0  0  0  0  0  0  0
    6.0455   -2.2699    3.6812 H   0  0  0  0  0  0  0  0  0  0  0  0
    2.5812   -3.5014   -0.0276 H   0  0  0  0  0  0  0  0  0  0  0  0
    2.2311   -1.8572    0.4783 H   0  0  0  0  0  0  0  0  0  0  0  0
    2.6210   -0.9638   -1.8934 H   0  0  0  0  0  0  0  0  0  0  0  0
    2.8260   -3.8937   -2.0407 H   0  0  0  0  0  0  0  0  0  0  0  0
    1.5913   -2.8514   -2.7293 H   0  0  0  0  0  0  0  0  0  0  0  0
    3.4798   -4.2560   -4.1811 H   0  0  0  0  0  0  0  0  0  0  0  0
    2.7884   -2.7235   -4.7237 H   0  0  0  0  0  0  0  0  0  0  0  0
    3.8919   -0.6368   -3.7877 H   0  0  0  0  0  0  0  0  0  0  0  0
    5.2968   -0.9546   -2.7629 H   0  0  0  0  0  0  0  0  0  0  0  0
    5.2111   -0.2716   -0.8262 H   0  0  0  0  0  0  0  0  0  0  0  0
    3.8396   -0.1545    0.2298 H   0  0  0  0  0  0  0  0  0  0  0  0
    5.8185   -0.3658    1.6345 H   0  0  0  0  0  0  0  0  0  0  0  0
    6.4182   -1.7244    0.6720 H   0  0  0  0  0  0  0  0  0  0  0  0
  1  5  1  0
  1  2  2  0
  1 15  1  0
  2  3  1  0
  2 16  1  0
  3 14  1  0
  3  4  1  0
  4  5  2  0
  4  6  1  0
  6  7  1  0
  6 17  1  0
  6 18  1  0
  7  8  1  0
  7 13  1  0
  8 12  1  0
  8  9  1  0
  8 19  1  1
  9 10  1  0
  9 20  1  0
  9 21  1  0
 10 11  1  0
 10 22  1  0
 10 23  1  0
 11 12  1  0
 12 24  1  0
 12 25  1  0
 13 14  1  0
 13 26  1  0
 13 27  1  0
 14 28  1  0
 14 29  1  0
M  END
>  <i_m_ct_stereo_status>  (111) 
1

>  <s_m_source_file>  (111) 
/var/tmp/pbs.5076255.sched01/tmp2pvlagj1/41_74nrqse.sdf

>  <i_m_source_file_index>  (111) 
3

>  <i_lp_mmshare_version>  (111) 
48012

>  <i_f3d_flags>  (111) 
0

>  <s_epik_input>  (111) 
W2NIXTFbY0hdbmMobjEyKVtDSDJdTihbQ0gyXVtDSDJdMilbQ0BASF0zW0NIMl1bQ0gyXU9bQ0gyXTM=

>  <s_epik_cmdline>  (111) 
J2VwaWtfcHl0aG9uJywgJy1waHQnLCAnMi4wJywgJy1waCcsICc3LjAnLCAnLXRuJywgJzgnLCAnLW1hJywgJzIwMCcsICctaW1hZScsICc8aW5maWxlLm1hZT4nLCAnLW9tYWUnLCAnPG91dGZpbGUubWFlPic=

>  <r_lp_tautomer_probability>  (111) 
1

>  <r_epik_Ionization_Penalty>  (111) 
2.47425

>  <r_epik_Ionization_Penalty_Charging>  (111) 
2.46245

>  <r_epik_Ionization_Penalty_Neutral>  (111) 
0.0118031

>  <r_epik_State_Penalty>  (111) 
2.62475

>  <r_epik_Charging_Adjusted_Penalty>  (111) 
5.0872

>  <i_epik_Tot_Q>  (111) 
0

>  <i_epik_Tot_abs_Q>  (111) 
0

>  <s_lp_Force_Field>  (111) 
OPLS3e

>  <r_lp_Energy>  (111) 
20.2517

>  <b_lp_Chiralities_Consistent>  (111) 
1

>  <s_lp_Variant>  (111) 
34:0-2

>  <s_i_glide_gridfile>  (111) 
pfpi4k_grid

>  <i_i_glide_lignum>  (111) 
3

>  <i_i_glide_rotatable_bonds>  (111) 
1

>  <r_i_docking_score>  (111) 
-3.30554

>  <r_i_glide_ligand_efficiency>  (111) 
-0.23611

>  <r_i_glide_ligand_efficiency_sa>  (111) 
-0.569059

>  <r_i_glide_ligand_efficiency_ln>  (111) 
-0.90835

>  <r_i_glide_gscore>  (111) 
-3.30554

>  <r_i_glide_lipo>  (111) 
-0.282997

>  <r_i_glide_hbond>  (111) 
-0.0563023

>  <r_i_glide_metal>  (111) 
-0

>  <r_i_glide_rewards>  (111) 
-2.14884

>  <r_i_glide_evdw>  (111) 
-17.2248

>  <r_i_glide_ecoul>  (111) 
-2.57779

>  <r_i_glide_erotb>  (111) 
0.43234

>  <r_i_glide_esite>  (111) 
-0.00183443

>  <r_i_glide_emodel>  (111) 
-24.6221

>  <r_i_glide_energy>  (111) 
-19.8026

>  <r_i_glide_einternal>  (111) 
0.0512408

>  <r_i_glide_intrahb_reward>  (111) 
-0

>  <i_i_glide_confnum>  (111) 
4

>  <i_i_glide_posenum>  (111) 
32

>  <r_i_glide_eff_state_penalty>  (111) 
0

>  <ligand_id>  (111) 
34

>  <original_smiles>  (111) 
c1cn2c(n1)CN(C1CCOC1)CC2

>  <smiles>  (111) 
[H]c1nc2n(c1[H])C([H])([H])C([H])([H])N(C1([H])C([H])([H])OC([H])([H])C1([H])[H])C2([H])[H]

$$$$
35:0:0
     RDKit          3D

 16 18  0  0  1  0  0  0  0  0999 V2000
    0.6484   -2.4025    4.3969 C   0  0  0  0  0  0  0  0  0  0  0  0
    0.6230   -1.1981    3.6688 C   0  0  0  0  0  0  0  0  0  0  0  0
   -0.1270   -0.1286    4.1856 C   0  0  0  0  0  0  0  0  0  0  0  0
   -0.7910   -0.3678    5.4149 C   0  0  0  0  0  0  0  0  0  0  0  0
   -0.7399   -1.5498    6.0670 N   0  0  0  0  0  0  0  0  0  0  0  0
   -0.0276   -2.5639    5.5589 N   0  0  0  0  0  0  0  0  0  0  0  0
   -1.7725    0.8403    6.2292 S   0  0  0  0  0  0  0  0  0  0  0  0
   -1.6145    2.1702    5.1100 C   0  0  0  0  0  0  0  0  0  0  0  0
   -2.1836    3.3704    5.2782 N   0  0  0  0  0  0  0  0  0  0  0  0
   -1.7966    4.1217    4.1770 N   0  0  0  0  0  0  0  0  0  0  0  0
   -1.0490    3.2902    3.4479 C   0  0  0  0  0  0  0  0  0  0  0  0
   -0.8950    2.0754    3.9809 N   0  0  0  0  0  0  0  0  0  0  0  0
   -0.1619    1.0333    3.4483 O   0  0  0  0  0  0  0  0  0  0  0  0
    1.2051   -3.2536    4.0251 H   0  0  0  0  0  0  0  0  0  0  0  0
    1.1494   -1.0972    2.7311 H   0  0  0  0  0  0  0  0  0  0  0  0
   -0.5972    3.5512    2.5053 H   0  0  0  0  0  0  0  0  0  0  0  0
  1  6  2  0
  1  2  1  0
  1 14  1  0
  2  3  2  0
  2 15  1  0
  3 13  1  0
  3  4  1  0
  4  5  2  0
  4  7  1  0
  5  6  1  0
  7  8  1  0
  8 12  1  0
  8  9  2  0
  9 10  1  0
 10 11  2  0
 11 12  1  0
 11 16  1  0
 12 13  1  0
M  END
>  <i_m_ct_stereo_status>  (112) 
1

>  <s_m_source_file>  (112) 
/var/tmp/pbs.5076255.sched01/tmp2pvlagj1/41_74nrqse.sdf

>  <i_m_source_file_index>  (112) 
4

>  <i_lp_mmshare_version>  (112) 
48012

>  <i_f3d_flags>  (112) 
0

>  <s_epik_input>  (112) 
W2NIXTFbY0hdbm5jKGMxMilTYzNuKE8yKVtjSF1ubjM=

>  <s_epik_cmdline>  (112) 
J2VwaWtfcHl0aG9uJywgJy1waHQnLCAnMi4wJywgJy1waCcsICc3LjAnLCAnLXRuJywgJzgnLCAnLW1hJywgJzIwMCcsICctaW1hZScsICc8aW5maWxlLm1hZT4nLCAnLW9tYWUnLCAnPG91dGZpbGUubWFlPic=

>  <r_lp_tautomer_probability>  (112) 
1

>  <r_epik_Ionization_Penalty>  (112) 
5.28369e-06

>  <r_epik_Ionization_Penalty_Charging>  (112) 
0

>  <r_epik_Ionization_Penalty_Neutral>  (112) 
5.28369e-06

>  <r_epik_State_Penalty>  (112) 
-0

>  <r_epik_Charging_Adjusted_Penalty>  (112) 
0

>  <i_epik_Tot_Q>  (112) 
0

>  <i_epik_Tot_abs_Q>  (112) 
0

>  <s_lp_Force_Field>  (112) 
OPLS3e

>  <r_lp_Energy>  (112) 
20.4886

>  <b_lp_Chiralities_Consistent>  (112) 
1

>  <s_lp_Variant>  (112) 
35:0-1

>  <s_i_glide_gridfile>  (112) 
pfpi4k_grid

>  <i_i_glide_lignum>  (112) 
4

>  <i_i_glide_rotatable_bonds>  (112) 
0

>  <r_i_docking_score>  (112) 
-4.15611

>  <r_i_glide_ligand_efficiency>  (112) 
-0.319701

>  <r_i_glide_ligand_efficiency_sa>  (112) 
-0.751723

>  <r_i_glide_ligand_efficiency_ln>  (112) 
-1.16583

>  <r_i_glide_gscore>  (112) 
-4.15611

>  <r_i_glide_lipo>  (112) 
-0.0401114

>  <r_i_glide_hbond>  (112) 
0

>  <r_i_glide_metal>  (112) 
-0

>  <r_i_glide_rewards>  (112) 
-2.09191

>  <r_i_glide_evdw>  (112) 
-14.4837

>  <r_i_glide_ecoul>  (112) 
-6.79028

>  <r_i_glide_erotb>  (112) 
0

>  <r_i_glide_esite>  (112) 
-0.281363

>  <r_i_glide_emodel>  (112) 
-27.6461

>  <r_i_glide_energy>  (112) 
-21.274

>  <r_i_glide_einternal>  (112) 
0

>  <r_i_glide_intrahb_reward>  (112) 
-0

>  <i_i_glide_confnum>  (112) 
2

>  <i_i_glide_posenum>  (112) 
27

>  <r_i_glide_eff_state_penalty>  (112) 
0

>  <ligand_id>  (112) 
35

>  <original_smiles>  (112) 
c1cc2c(nn1)Sc1nncn1O2

>  <smiles>  (112) 
[H]c1nnc2c(c1[H])On1c([H])nnc1S2

$$$$
35:0:1
     RDKit          3D

 16 18  0  0  1  0  0  0  0  0999 V2000
    0.3258   -2.0218    4.2481 C   0  0  0  0  0  0  0  0  0  0  0  0
    0.7121   -0.7942    3.6813 C   0  0  0  0  0  0  0  0  0  0  0  0
    0.0921    0.3728    4.1569 C   0  0  0  0  0  0  0  0  0  0  0  0
   -0.8824    0.1959    5.1710 C   0  0  0  0  0  0  0  0  0  0  0  0
   -1.2224   -1.0130    5.6715 N   0  0  0  0  0  0  0  0  0  0  0  0
   -0.6168   -2.1159    5.2164 N   0  0  0  0  0  0  0  0  0  0  0  0
   -1.7461    1.5269    5.9190 S   0  0  0  0  0  0  0  0  0  0  0  0
   -1.0556    2.8645    5.0357 C   0  0  0  0  0  0  0  0  0  0  0  0
   -1.3893    4.1435    5.2355 N   0  0  0  0  0  0  0  0  0  0  0  0
   -0.6160    4.8760    4.3492 N   0  0  0  0  0  0  0  0  0  0  0  0
    0.1062    3.9639    3.6934 C   0  0  0  0  0  0  0  0  0  0  0  0
   -0.1225    2.7031    4.0822 N   0  0  0  0  0  0  0  0  0  0  0  0
    0.4919    1.5661    3.5975 O   0  0  0  0  0  0  0  0  0  0  0  0
    0.7703   -2.9440    3.9004 H   0  0  0  0  0  0  0  0  0  0  0  0
    1.4570   -0.7380    2.9027 H   0  0  0  0  0  0  0  0  0  0  0  0
    0.8234    4.2086    2.9213 H   0  0  0  0  0  0  0  0  0  0  0  0
  1  6  2  0
  1  2  1  0
  1 14  1  0
  2  3  2  0
  2 15  1  0
  3 13  1  0
  3  4  1  0
  4  5  2  0
  4  7  1  0
  5  6  1  0
  7  8  1  0
  8 12  1  0
  8  9  2  0
  9 10  1  0
 10 11  2  0
 11 12  1  0
 11 16  1  0
 12 13  1  0
M  END
>  <i_m_ct_stereo_status>  (113) 
1

>  <s_m_source_file>  (113) 
/var/tmp/pbs.5076255.sched01/tmp2pvlagj1/41_74nrqse.sdf

>  <i_m_source_file_index>  (113) 
4

>  <i_lp_mmshare_version>  (113) 
48012

>  <i_f3d_flags>  (113) 
0

>  <s_epik_input>  (113) 
W2NIXTFbY0hdbm5jKGMxMilTYzNuKE8yKVtjSF1ubjM=

>  <s_epik_cmdline>  (113) 
J2VwaWtfcHl0aG9uJywgJy1waHQnLCAnMi4wJywgJy1waCcsICc3LjAnLCAnLXRuJywgJzgnLCAnLW1hJywgJzIwMCcsICctaW1hZScsICc8aW5maWxlLm1hZT4nLCAnLW9tYWUnLCAnPG91dGZpbGUubWFlPic=

>  <r_lp_tautomer_probability>  (113) 
1

>  <r_epik_Ionization_Penalty>  (113) 
5.28369e-06

>  <r_epik_Ionization_Penalty_Charging>  (113) 
0

>  <r_epik_Ionization_Penalty_Neutral>  (113) 
5.28369e-06

>  <r_epik_State_Penalty>  (113) 
-0

>  <r_epik_Charging_Adjusted_Penalty>  (113) 
0

>  <i_epik_Tot_Q>  (113) 
0

>  <i_epik_Tot_abs_Q>  (113) 
0

>  <s_lp_Force_Field>  (113) 
OPLS3e

>  <r_lp_Energy>  (113) 
20.4886

>  <b_lp_Chiralities_Consistent>  (113) 
1

>  <s_lp_Variant>  (113) 
35:0-1

>  <s_i_glide_gridfile>  (113) 
pfpi4k_grid

>  <i_i_glide_lignum>  (113) 
4

>  <i_i_glide_rotatable_bonds>  (113) 
0

>  <r_i_docking_score>  (113) 
-4.136

>  <r_i_glide_ligand_efficiency>  (113) 
-0.318154

>  <r_i_glide_ligand_efficiency_sa>  (113) 
-0.748086

>  <r_i_glide_ligand_efficiency_ln>  (113) 
-1.16018

>  <r_i_glide_gscore>  (113) 
-4.136

>  <r_i_glide_lipo>  (113) 
-0.0326001

>  <r_i_glide_hbond>  (113) 
0

>  <r_i_glide_metal>  (113) 
-0

>  <r_i_glide_rewards>  (113) 
-2.09191

>  <r_i_glide_evdw>  (113) 
-13.914

>  <r_i_glide_ecoul>  (113) 
-6.5124

>  <r_i_glide_erotb>  (113) 
0

>  <r_i_glide_esite>  (113) 
-0.338929

>  <r_i_glide_emodel>  (113) 
-26.7696

>  <r_i_glide_energy>  (113) 
-20.4264

>  <r_i_glide_einternal>  (113) 
0

>  <r_i_glide_intrahb_reward>  (113) 
-0

>  <i_i_glide_confnum>  (113) 
2

>  <i_i_glide_posenum>  (113) 
37

>  <r_i_glide_eff_state_penalty>  (113) 
0

>  <ligand_id>  (113) 
35

>  <original_smiles>  (113) 
c1cc2c(nn1)Sc1nncn1O2

>  <smiles>  (113) 
[H]c1nnc2c(c1[H])On1c([H])nnc1S2

$$$$
35:0:2
     RDKit          3D

 16 18  0  0  1  0  0  0  0  0999 V2000
    3.9405   -1.2466   -3.9513 C   0  0  0  0  0  0  0  0  0  0  0  0
    4.2119   -0.6090   -2.7296 C   0  0  0  0  0  0  0  0  0  0  0  0
    3.8959   -1.2858   -1.5397 C   0  0  0  0  0  0  0  0  0  0  0  0
    3.3004   -2.5619   -1.6918 C   0  0  0  0  0  0  0  0  0  0  0  0
    3.0644   -3.1216   -2.8980 N   0  0  0  0  0  0  0  0  0  0  0  0
    3.4086   -2.4836   -4.0220 N   0  0  0  0  0  0  0  0  0  0  0  0
    2.8292   -3.5723   -0.3301 S   0  0  0  0  0  0  0  0  0  0  0  0
    3.2393   -2.5104    0.9910 C   0  0  0  0  0  0  0  0  0  0  0  0
    3.0580   -2.8075    2.2855 N   0  0  0  0  0  0  0  0  0  0  0  0
    3.5360   -1.7162    2.9928 N   0  0  0  0  0  0  0  0  0  0  0  0
    3.9463   -0.8639    2.0498 C   0  0  0  0  0  0  0  0  0  0  0  0
    3.8067   -1.3068    0.7977 N   0  0  0  0  0  0  0  0  0  0  0  0
    4.2116   -0.6587   -0.3557 O   0  0  0  0  0  0  0  0  0  0  0  0
    4.1976   -0.7682   -4.8856 H   0  0  0  0  0  0  0  0  0  0  0  0
    4.6438    0.3786   -2.7020 H   0  0  0  0  0  0  0  0  0  0  0  0
    4.3873    0.0973    2.2657 H   0  0  0  0  0  0  0  0  0  0  0  0
  1  6  2  0
  1  2  1  0
  1 14  1  0
  2  3  2  0
  2 15  1  0
  3 13  1  0
  3  4  1  0
  4  5  2  0
  4  7  1  0
  5  6  1  0
  7  8  1  0
  8 12  1  0
  8  9  2  0
  9 10  1  0
 10 11  2  0
 11 12  1  0
 11 16  1  0
 12 13  1  0
M  END
>  <i_m_ct_stereo_status>  (114) 
1

>  <s_m_source_file>  (114) 
/var/tmp/pbs.5076255.sched01/tmp2pvlagj1/41_74nrqse.sdf

>  <i_m_source_file_index>  (114) 
4

>  <i_lp_mmshare_version>  (114) 
48012

>  <i_f3d_flags>  (114) 
0

>  <s_epik_input>  (114) 
W2NIXTFbY0hdbm5jKGMxMilTYzNuKE8yKVtjSF1ubjM=

>  <s_epik_cmdline>  (114) 
J2VwaWtfcHl0aG9uJywgJy1waHQnLCAnMi4wJywgJy1waCcsICc3LjAnLCAnLXRuJywgJzgnLCAnLW1hJywgJzIwMCcsICctaW1hZScsICc8aW5maWxlLm1hZT4nLCAnLW9tYWUnLCAnPG91dGZpbGUubWFlPic=

>  <r_lp_tautomer_probability>  (114) 
1

>  <r_epik_Ionization_Penalty>  (114) 
5.28369e-06

>  <r_epik_Ionization_Penalty_Charging>  (114) 
0

>  <r_epik_Ionization_Penalty_Neutral>  (114) 
5.28369e-06

>  <r_epik_State_Penalty>  (114) 
-0

>  <r_epik_Charging_Adjusted_Penalty>  (114) 
0

>  <i_epik_Tot_Q>  (114) 
0

>  <i_epik_Tot_abs_Q>  (114) 
0

>  <s_lp_Force_Field>  (114) 
OPLS3e

>  <r_lp_Energy>  (114) 
20.4886

>  <b_lp_Chiralities_Consistent>  (114) 
1

>  <s_lp_Variant>  (114) 
35:0-1

>  <s_i_glide_gridfile>  (114) 
pfpi4k_grid

>  <i_i_glide_lignum>  (114) 
4

>  <i_i_glide_rotatable_bonds>  (114) 
0

>  <r_i_docking_score>  (114) 
-3.39337

>  <r_i_glide_ligand_efficiency>  (114) 
-0.261029

>  <r_i_glide_ligand_efficiency_sa>  (114) 
-0.613766

>  <r_i_glide_ligand_efficiency_ln>  (114) 
-0.951871

>  <r_i_glide_gscore>  (114) 
-3.39337

>  <r_i_glide_lipo>  (114) 
-0.21428

>  <r_i_glide_hbond>  (114) 
0

>  <r_i_glide_metal>  (114) 
-0

>  <r_i_glide_rewards>  (114) 
-2.11902

>  <r_i_glide_evdw>  (114) 
-20.6683

>  <r_i_glide_ecoul>  (114) 
0.245411

>  <r_i_glide_erotb>  (114) 
0

>  <r_i_glide_esite>  (114) 
-0.0634669

>  <r_i_glide_emodel>  (114) 
-25.6182

>  <r_i_glide_energy>  (114) 
-20.4229

>  <r_i_glide_einternal>  (114) 
0

>  <r_i_glide_intrahb_reward>  (114) 
-0

>  <i_i_glide_confnum>  (114) 
1

>  <i_i_glide_posenum>  (114) 
3

>  <r_i_glide_eff_state_penalty>  (114) 
0

>  <ligand_id>  (114) 
35

>  <original_smiles>  (114) 
c1cc2c(nn1)Sc1nncn1O2

>  <smiles>  (114) 
[H]c1nnc2c(c1[H])On1c([H])nnc1S2

$$$$
36:0:0
     RDKit          3D

 39 41  0  0  1  0  0  0  0  0999 V2000
    4.1367   -1.0016   -3.5470 C   0  0  0  0  0  0  0  0  0  0  0  0
    3.8958   -2.4321   -3.0445 C   0  0  0  0  0  0  0  0  0  0  0  0
    3.6681   -3.3805   -4.2184 C   0  0  0  0  0  0  0  0  0  0  0  0
    5.1168   -2.9132   -2.3018 C   0  0  0  0  0  0  0  0  0  0  0  0
    5.0712   -3.6278   -1.1648 C   0  0  0  0  0  0  0  0  0  0  0  0
    6.2597   -3.9531   -0.5805 O   0  0  0  0  0  0  0  0  0  0  0  0
    6.3857   -4.0262    0.7880 C   0  0  0  0  0  0  0  0  0  0  0  0
    7.5392   -3.9247    1.2760 N   0  0  0  0  0  0  0  0  0  0  0  0
    5.1137   -4.2722    1.6178 C   0  0  1  0  0  0  0  0  0  0  0  0
    5.2630   -3.8523    3.0203 C   0  0  0  0  0  0  0  0  0  0  0  0
    5.3824   -3.5300    4.1260 N   0  0  0  0  0  0  0  0  0  0  0  0
    3.8058   -3.7596    1.0034 C   0  0  1  0  0  0  0  0  0  0  0  0
    3.5098   -2.2956    1.3297 C   0  0  0  0  0  0  0  0  0  0  0  0
    2.3688   -1.9629    2.0846 C   0  0  0  0  0  0  0  0  0  0  0  0
    2.1093   -0.6073    2.3557 C   0  0  0  0  0  0  0  0  0  0  0  0
    2.9049    0.3975    1.9384 N   0  0  0  0  0  0  0  0  0  0  0  0
    3.9938    0.0732    1.2152 C   0  0  0  0  0  0  0  0  0  0  0  0
    4.3489   -1.2475    0.8943 C   0  0  0  0  0  0  0  0  0  0  0  0
    3.7866   -4.0921   -0.4870 C   0  0  1  0  0  0  0  0  0  0  0  0
    2.5239   -3.6281   -1.2257 C   0  0  0  0  0  0  0  0  0  0  0  0
    1.4505   -4.2209   -1.1221 O   0  0  0  0  0  0  0  0  0  0  0  0
    2.6645   -2.4032   -2.1288 C   0  0  0  0  0  0  0  0  0  0  0  0
    3.2708   -0.6056   -4.0808 H   0  0  0  0  0  0  0  0  0  0  0  0
    4.9899   -0.9636   -4.2228 H   0  0  0  0  0  0  0  0  0  0  0  0
    4.3396   -0.3252   -2.7134 H   0  0  0  0  0  0  0  0  0  0  0  0
    2.7850   -3.0683   -4.7795 H   0  0  0  0  0  0  0  0  0  0  0  0
    3.5101   -4.4126   -3.9174 H   0  0  0  0  0  0  0  0  0  0  0  0
    4.5630   -3.4127   -4.8375 H   0  0  0  0  0  0  0  0  0  0  0  0
    6.0729   -2.6319   -2.7161 H   0  0  0  0  0  0  0  0  0  0  0  0
    7.5738   -3.9719    2.2883 H   0  0  0  0  0  0  0  0  0  0  0  0
    5.0299   -5.3580    1.6641 H   0  0  0  0  0  0  0  0  0  0  0  0
    3.0048   -4.3468    1.4632 H   0  0  0  0  0  0  0  0  0  0  0  0
    1.6921   -2.7228    2.4482 H   0  0  0  0  0  0  0  0  0  0  0  0
    1.2436   -0.3167    2.9319 H   0  0  0  0  0  0  0  0  0  0  0  0
    4.5977    0.9018    0.8815 H   0  0  0  0  0  0  0  0  0  0  0  0
    5.2403   -1.4156    0.3087 H   0  0  0  0  0  0  0  0  0  0  0  0
    3.8070   -5.1785   -0.5745 H   0  0  0  0  0  0  0  0  0  0  0  0
    2.7324   -1.5385   -1.4681 H   0  0  0  0  0  0  0  0  0  0  0  0
    1.7569   -2.2813   -2.7129 H   0  0  0  0  0  0  0  0  0  0  0  0
  1  2  1  0
  1 23  1  0
  1 24  1  0
  1 25  1  0
  2 22  1  0
  2  3  1  0
  2  4  1  0
  3 26  1  0
  3 27  1  0
  3 28  1  0
  4  5  2  0
  4 29  1  0
  5 19  1  0
  5  6  1  0
  6  7  1  0
  7  8  2  3
  7  9  1  0
  8 30  1  0
  9 10  1  0
  9 12  1  0
  9 31  1  1
 10 11  3  0
 12 13  1  0
 12 19  1  0
 12 32  1  1
 13 18  1  0
 13 14  2  0
 14 15  1  0
 14 33  1  0
 15 16  2  0
 15 34  1  0
 16 17  1  0
 17 18  2  0
 17 35  1  0
 18 36  1  0
 19 20  1  0
 19 37  1  1
 20 21  2  0
 20 22  1  0
 22 38  1  0
 22 39  1  0
M  END
>  <i_m_ct_stereo_status>  (115) 
1

>  <s_m_source_file>  (115) 
/var/tmp/pbs.5076255.sched01/tmp2pvlagj1/41_74nrqse.sdf

>  <i_m_source_file_index>  (115) 
5

>  <i_lp_mmshare_version>  (115) 
48012

>  <i_f3d_flags>  (115) 
0

>  <s_epik_input>  (115) 
W0NIM11DKFtDSDNdKShbQ0hdPTEpW0NIMl1DKD1PKVtDQEBIXShDMTIpW0NAQEhdKFtDQEhdKEMjTilDKFxPMik9TlxbSF0pYzNbY0hdW2NIXW5bY0hdW2NIXTM=

>  <s_epik_cmdline>  (115) 
J2VwaWtfcHl0aG9uJywgJy1waHQnLCAnMi4wJywgJy1waCcsICc3LjAnLCAnLXRuJywgJzgnLCAnLW1hJywgJzIwMCcsICctaW1hZScsICc8aW5maWxlLm1hZT4nLCAnLW9tYWUnLCAnPG91dGZpbGUubWFlPic=

>  <r_lp_tautomer_probability>  (115) 
0.99995

>  <r_epik_Ionization_Penalty>  (115) 
0.0317794

>  <r_epik_Ionization_Penalty_Charging>  (115) 
0

>  <r_epik_Ionization_Penalty_Neutral>  (115) 
0.0317794

>  <r_epik_State_Penalty>  (115) 
0.764179

>  <r_epik_Charging_Adjusted_Penalty>  (115) 
0.764179

>  <i_epik_Tot_Q>  (115) 
0

>  <i_epik_Tot_abs_Q>  (115) 
0

>  <s_epik_Chemistry_Notes>  (115) 
This compound has an imine and may undergo hydrolysis.

>  <s_lp_Force_Field>  (115) 
OPLS3e

>  <r_lp_Energy>  (115) 
16.9872

>  <b_lp_Chiralities_Consistent>  (115) 
1

>  <s_lp_Variant>  (115) 
36:0-1

>  <s_i_glide_gridfile>  (115) 
pfpi4k_grid

>  <i_i_glide_lignum>  (115) 
5

>  <i_i_glide_rotatable_bonds>  (115) 
2

>  <r_i_docking_score>  (115) 
-3.22051

>  <r_i_glide_ligand_efficiency>  (115) 
-0.146387

>  <r_i_glide_ligand_efficiency_sa>  (115) 
-0.410182

>  <r_i_glide_ligand_efficiency_ln>  (115) 
-0.787211

>  <r_i_glide_gscore>  (115) 
-3.22051

>  <r_i_glide_lipo>  (115) 
-0.606068

>  <r_i_glide_hbond>  (115) 
-0.00361812

>  <r_i_glide_metal>  (115) 
-0

>  <r_i_glide_rewards>  (115) 
-1.56706

>  <r_i_glide_evdw>  (115) 
-18.6344

>  <r_i_glide_ecoul>  (115) 
-2.13171

>  <r_i_glide_erotb>  (115) 
0.209838

>  <r_i_glide_esite>  (115) 
-0.00213196

>  <r_i_glide_emodel>  (115) 
-24.8009

>  <r_i_glide_energy>  (115) 
-20.7662

>  <r_i_glide_einternal>  (115) 
0.913065

>  <r_i_glide_intrahb_reward>  (115) 
-0

>  <i_i_glide_confnum>  (115) 
1

>  <i_i_glide_posenum>  (115) 
7

>  <r_i_glide_eff_state_penalty>  (115) 
0

>  <ligand_id>  (115) 
36

>  <original_smiles>  (115) 
CC1(C)C=C2OC(=N)C(C#N)C(c3ccncc3)C2C(=O)C1

>  <smiles>  (115) 
[H]N=C1OC2=C([H])C(C([H])([H])[H])(C([H])([H])[H])C([H])([H])C(=O)C2([H])C([H])(c2c([H])c([H])nc([H])c2[H])C1([H])C#N

$$$$
36:0:1
     RDKit          3D

 39 41  0  0  1  0  0  0  0  0999 V2000
   -1.3874    0.6893    4.6397 C   0  0  0  0  0  0  0  0  0  0  0  0
   -0.6022    1.5002    3.5980 C   0  0  0  0  0  0  0  0  0  0  0  0
   -1.1018    1.1916    2.1760 C   0  0  0  0  0  0  0  0  0  0  0  0
   -0.8314    2.9777    3.8460 C   0  0  0  0  0  0  0  0  0  0  0  0
    0.1244    3.9172    3.7376 C   0  0  0  0  0  0  0  0  0  0  0  0
   -0.2175    5.2219    4.0166 O   0  0  0  0  0  0  0  0  0  0  0  0
    0.6793    6.0743    4.6247 C   0  0  0  0  0  0  0  0  0  0  0  0
    0.2320    7.0607    5.2828 N   0  0  0  0  0  0  0  0  0  0  0  0
    2.1817    5.7695    4.4574 C   0  0  1  0  0  0  0  0  0  0  0  0
    2.9858    6.4158    5.5102 C   0  0  0  0  0  0  0  0  0  0  0  0
    3.6132    6.9295    6.3366 N   0  0  0  0  0  0  0  0  0  0  0  0
    2.5447    4.2814    4.2890 C   0  0  1  0  0  0  0  0  0  0  0  0
    2.7141    3.5238    5.6071 C   0  0  0  0  0  0  0  0  0  0  0  0
    3.8568    2.7250    5.8160 C   0  0  0  0  0  0  0  0  0  0  0  0
    3.9909    2.0391    7.0391 C   0  0  0  0  0  0  0  0  0  0  0  0
    3.0777    2.1023    8.0303 N   0  0  0  0  0  0  0  0  0  0  0  0
    1.9832    2.8629    7.8274 C   0  0  0  0  0  0  0  0  0  0  0  0
    1.7530    3.5867    6.6420 C   0  0  0  0  0  0  0  0  0  0  0  0
    1.5658    3.6356    3.3109 C   0  0  1  0  0  0  0  0  0  0  0  0
    1.8060    2.1384    3.0349 C   0  0  0  0  0  0  0  0  0  0  0  0
    2.6950    1.7430    2.2911 O   0  0  0  0  0  0  0  0  0  0  0  0
    0.8926    1.1424    3.7404 C   0  0  0  0  0  0  0  0  0  0  0  0
   -1.2452   -0.3834    4.5044 H   0  0  0  0  0  0  0  0  0  0  0  0
   -2.4554    0.9002    4.5787 H   0  0  0  0  0  0  0  0  0  0  0  0
   -1.0516    0.9463    5.6459 H   0  0  0  0  0  0  0  0  0  0  0  0
   -0.9497    0.1470    1.9201 H   0  0  0  0  0  0  0  0  0  0  0  0
   -0.5711    1.7738    1.4180 H   0  0  0  0  0  0  0  0  0  0  0  0
   -2.1662    1.4172    2.0666 H   0  0  0  0  0  0  0  0  0  0  0  0
   -1.8317    3.2626    4.1369 H   0  0  0  0  0  0  0  0  0  0  0  0
    0.9543    7.6494    5.6837 H   0  0  0  0  0  0  0  0  0  0  0  0
    2.4665    6.2735    3.5318 H   0  0  0  0  0  0  0  0  0  0  0  0
    3.5244    4.2681    3.8071 H   0  0  0  0  0  0  0  0  0  0  0  0
    4.6179    2.6303    5.0569 H   0  0  0  0  0  0  0  0  0  0  0  0
    4.8562    1.4198    7.2307 H   0  0  0  0  0  0  0  0  0  0  0  0
    1.2713    2.8957    8.6404 H   0  0  0  0  0  0  0  0  0  0  0  0
    0.8489    4.1681    6.5587 H   0  0  0  0  0  0  0  0  0  0  0  0
    1.6993    4.1421    2.3553 H   0  0  0  0  0  0  0  0  0  0  0  0
    1.1776    1.1322    4.7918 H   0  0  0  0  0  0  0  0  0  0  0  0
    1.0822    0.1426    3.3475 H   0  0  0  0  0  0  0  0  0  0  0  0
  1  2  1  0
  1 23  1  0
  1 24  1  0
  1 25  1  0
  2 22  1  0
  2  3  1  0
  2  4  1  0
  3 26  1  0
  3 27  1  0
  3 28  1  0
  4  5  2  0
  4 29  1  0
  5 19  1  0
  5  6  1  0
  6  7  1  0
  7  8  2  3
  7  9  1  0
  8 30  1  0
  9 10  1  0
  9 12  1  0
  9 31  1  6
 10 11  3  0
 12 13  1  0
 12 19  1  0
 12 32  1  6
 13 18  1  0
 13 14  2  0
 14 15  1  0
 14 33  1  0
 15 16  2  0
 15 34  1  0
 16 17  1  0
 17 18  2  0
 17 35  1  0
 18 36  1  0
 19 20  1  0
 19 37  1  6
 20 21  2  0
 20 22  1  0
 22 38  1  0
 22 39  1  0
M  END
>  <i_m_ct_stereo_status>  (116) 
1

>  <s_m_source_file>  (116) 
/var/tmp/pbs.5076255.sched01/tmp2pvlagj1/41_74nrqse.sdf

>  <i_m_source_file_index>  (116) 
5

>  <i_lp_mmshare_version>  (116) 
48012

>  <i_f3d_flags>  (116) 
0

>  <s_epik_input>  (116) 
W0NIM11DKFtDSDNdKShbQ0hdPTEpW0NIMl1DKD1PKVtDQEBIXShDMTIpW0NAQEhdKFtDQEhdKEMjTilDKFxPMik9TlxbSF0pYzNbY0hdW2NIXW5bY0hdW2NIXTM=

>  <s_epik_cmdline>  (116) 
J2VwaWtfcHl0aG9uJywgJy1waHQnLCAnMi4wJywgJy1waCcsICc3LjAnLCAnLXRuJywgJzgnLCAnLW1hJywgJzIwMCcsICctaW1hZScsICc8aW5maWxlLm1hZT4nLCAnLW9tYWUnLCAnPG91dGZpbGUubWFlPic=

>  <r_lp_tautomer_probability>  (116) 
0.99995

>  <r_epik_Ionization_Penalty>  (116) 
0.0317794

>  <r_epik_Ionization_Penalty_Charging>  (116) 
0

>  <r_epik_Ionization_Penalty_Neutral>  (116) 
0.0317794

>  <r_epik_State_Penalty>  (116) 
0.764179

>  <r_epik_Charging_Adjusted_Penalty>  (116) 
0.764179

>  <i_epik_Tot_Q>  (116) 
0

>  <i_epik_Tot_abs_Q>  (116) 
0

>  <s_epik_Chemistry_Notes>  (116) 
This compound has an imine and may undergo hydrolysis.

>  <s_lp_Force_Field>  (116) 
OPLS3e

>  <r_lp_Energy>  (116) 
16.9872

>  <b_lp_Chiralities_Consistent>  (116) 
1

>  <s_lp_Variant>  (116) 
36:0-1

>  <s_i_glide_gridfile>  (116) 
pfpi4k_grid

>  <i_i_glide_lignum>  (116) 
5

>  <i_i_glide_rotatable_bonds>  (116) 
2

>  <r_i_docking_score>  (116) 
-2.61457

>  <r_i_glide_ligand_efficiency>  (116) 
-0.118844

>  <r_i_glide_ligand_efficiency_sa>  (116) 
-0.333005

>  <r_i_glide_ligand_efficiency_ln>  (116) 
-0.639095

>  <r_i_glide_gscore>  (116) 
-2.61457

>  <r_i_glide_lipo>  (116) 
0

>  <r_i_glide_hbond>  (116) 
-0.0392865

>  <r_i_glide_metal>  (116) 
-0

>  <r_i_glide_rewards>  (116) 
-1.39544

>  <r_i_glide_evdw>  (116) 
-18.457

>  <r_i_glide_ecoul>  (116) 
-2.57488

>  <r_i_glide_erotb>  (116) 
0.209838

>  <r_i_glide_esite>  (116) 
-0.0805982

>  <r_i_glide_emodel>  (116) 
-24.2082

>  <r_i_glide_energy>  (116) 
-21.0319

>  <r_i_glide_einternal>  (116) 
0.932137

>  <r_i_glide_intrahb_reward>  (116) 
-0

>  <i_i_glide_confnum>  (116) 
2

>  <i_i_glide_posenum>  (116) 
31

>  <r_i_glide_eff_state_penalty>  (116) 
0

>  <ligand_id>  (116) 
36

>  <original_smiles>  (116) 
CC1(C)C=C2OC(=N)C(C#N)C(c3ccncc3)C2C(=O)C1

>  <smiles>  (116) 
[H]N=C1OC2=C([H])C(C([H])([H])[H])(C([H])([H])[H])C([H])([H])C(=O)C2([H])C([H])(c2c([H])c([H])nc([H])c2[H])C1([H])C#N

$$$$
36:0:2
     RDKit          3D

 39 41  0  0  1  0  0  0  0  0999 V2000
   -1.6296    2.1543    5.4908 C   0  0  0  0  0  0  0  0  0  0  0  0
   -0.9009    2.6575    4.2304 C   0  0  0  0  0  0  0  0  0  0  0  0
   -1.8126    2.5267    2.9935 C   0  0  0  0  0  0  0  0  0  0  0  0
   -0.5797    4.1300    4.4082 C   0  0  0  0  0  0  0  0  0  0  0  0
    0.5671    4.7089    4.0158 C   0  0  0  0  0  0  0  0  0  0  0  0
    0.7337    6.0505    4.2620 O   0  0  0  0  0  0  0  0  0  0  0  0
    1.9727    6.5680    4.5811 C   0  0  0  0  0  0  0  0  0  0  0  0
    2.0358    7.6485    5.2394 N   0  0  0  0  0  0  0  0  0  0  0  0
    3.2150    5.7879    4.1130 C   0  0  1  0  0  0  0  0  0  0  0  0
    4.4021    6.1400    4.9065 C   0  0  0  0  0  0  0  0  0  0  0  0
    5.3371    6.4203    5.5318 N   0  0  0  0  0  0  0  0  0  0  0  0
    3.0306    4.2625    3.9881 C   0  0  1  0  0  0  0  0  0  0  0  0
    3.2505    3.5053    5.3049 C   0  0  0  0  0  0  0  0  0  0  0  0
    2.6329    3.9090    6.5088 C   0  0  0  0  0  0  0  0  0  0  0  0
    2.8920    3.1868    7.6862 C   0  0  0  0  0  0  0  0  0  0  0  0
    3.7025    2.1104    7.7294 N   0  0  0  0  0  0  0  0  0  0  0  0
    4.2894    1.7191    6.5785 C   0  0  0  0  0  0  0  0  0  0  0  0
    4.0965    2.3777    5.3486 C   0  0  0  0  0  0  0  0  0  0  0  0
    1.6995    3.9766    3.3006 C   0  0  1  0  0  0  0  0  0  0  0  0
    1.3997    2.4819    3.0923 C   0  0  0  0  0  0  0  0  0  0  0  0
    1.9730    1.8218    2.2282 O   0  0  0  0  0  0  0  0  0  0  0  0
    0.3990    1.8334    4.0507 C   0  0  0  0  0  0  0  0  0  0  0  0
   -1.8734    1.0955    5.4120 H   0  0  0  0  0  0  0  0  0  0  0  0
   -2.5566    2.7011    5.6675 H   0  0  0  0  0  0  0  0  0  0  0  0
   -1.0005    2.2852    6.3718 H   0  0  0  0  0  0  0  0  0  0  0  0
   -2.0694    1.4856    2.7919 H   0  0  0  0  0  0  0  0  0  0  0  0
   -1.3212    2.9180    2.0987 H   0  0  0  0  0  0  0  0  0  0  0  0
   -2.7440    3.0854    3.1192 H   0  0  0  0  0  0  0  0  0  0  0  0
   -1.3293    4.7213    4.9092 H   0  0  0  0  0  0  0  0  0  0  0  0
    2.9724    7.9674    5.4484 H   0  0  0  0  0  0  0  0  0  0  0  0
    3.4208    6.1669    3.1099 H   0  0  0  0  0  0  0  0  0  0  0  0
    3.8084    3.9150    3.3038 H   0  0  0  0  0  0  0  0  0  0  0  0
    1.9690    4.7565    6.5623 H   0  0  0  0  0  0  0  0  0  0  0  0
    2.4375    3.4847    8.6177 H   0  0  0  0  0  0  0  0  0  0  0  0
    4.9338    0.8538    6.6497 H   0  0  0  0  0  0  0  0  0  0  0  0
    4.5941    2.0134    4.4589 H   0  0  0  0  0  0  0  0  0  0  0  0
    1.7659    4.4147    2.3062 H   0  0  0  0  0  0  0  0  0  0  0  0
    0.9029    1.7345    5.0120 H   0  0  0  0  0  0  0  0  0  0  0  0
    0.1652    0.8224    3.7152 H   0  0  0  0  0  0  0  0  0  0  0  0
  1  2  1  0
  1 23  1  0
  1 24  1  0
  1 25  1  0
  2 22  1  0
  2  3  1  0
  2  4  1  0
  3 26  1  0
  3 27  1  0
  3 28  1  0
  4  5  2  0
  4 29  1  0
  5 19  1  0
  5  6  1  0
  6  7  1  0
  7  8  2  3
  7  9  1  0
  8 30  1  0
  9 10  1  0
  9 12  1  0
  9 31  1  6
 10 11  3  0
 12 13  1  0
 12 19  1  0
 12 32  1  6
 13 18  1  0
 13 14  2  0
 14 15  1  0
 14 33  1  0
 15 16  2  0
 15 34  1  0
 16 17  1  0
 17 18  2  0
 17 35  1  0
 18 36  1  0
 19 20  1  0
 19 37  1  6
 20 21  2  0
 20 22  1  0
 22 38  1  0
 22 39  1  0
M  END
>  <i_m_ct_stereo_status>  (117) 
1

>  <s_m_source_file>  (117) 
/var/tmp/pbs.5076255.sched01/tmp2pvlagj1/41_74nrqse.sdf

>  <i_m_source_file_index>  (117) 
5

>  <i_lp_mmshare_version>  (117) 
48012

>  <i_f3d_flags>  (117) 
0

>  <s_epik_input>  (117) 
W0NIM11DKFtDSDNdKShbQ0hdPTEpW0NIMl1DKD1PKVtDQEBIXShDMTIpW0NAQEhdKFtDQEhdKEMjTilDKFxPMik9TlxbSF0pYzNbY0hdW2NIXW5bY0hdW2NIXTM=

>  <s_epik_cmdline>  (117) 
J2VwaWtfcHl0aG9uJywgJy1waHQnLCAnMi4wJywgJy1waCcsICc3LjAnLCAnLXRuJywgJzgnLCAnLW1hJywgJzIwMCcsICctaW1hZScsICc8aW5maWxlLm1hZT4nLCAnLW9tYWUnLCAnPG91dGZpbGUubWFlPic=

>  <r_lp_tautomer_probability>  (117) 
0.99995

>  <r_epik_Ionization_Penalty>  (117) 
0.0317794

>  <r_epik_Ionization_Penalty_Charging>  (117) 
0

>  <r_epik_Ionization_Penalty_Neutral>  (117) 
0.0317794

>  <r_epik_State_Penalty>  (117) 
0.764179

>  <r_epik_Charging_Adjusted_Penalty>  (117) 
0.764179

>  <i_epik_Tot_Q>  (117) 
0

>  <i_epik_Tot_abs_Q>  (117) 
0

>  <s_epik_Chemistry_Notes>  (117) 
This compound has an imine and may undergo hydrolysis.

>  <s_lp_Force_Field>  (117) 
OPLS3e

>  <r_lp_Energy>  (117) 
16.9872

>  <b_lp_Chiralities_Consistent>  (117) 
1

>  <s_lp_Variant>  (117) 
36:0-1

>  <s_i_glide_gridfile>  (117) 
pfpi4k_grid

>  <i_i_glide_lignum>  (117) 
5

>  <i_i_glide_rotatable_bonds>  (117) 
2

>  <r_i_docking_score>  (117) 
-2.48418

>  <r_i_glide_ligand_efficiency>  (117) 
-0.112917

>  <r_i_glide_ligand_efficiency_sa>  (117) 
-0.316399

>  <r_i_glide_ligand_efficiency_ln>  (117) 
-0.607225

>  <r_i_glide_gscore>  (117) 
-2.48418

>  <r_i_glide_lipo>  (117) 
-0.0212007

>  <r_i_glide_hbond>  (117) 
0

>  <r_i_glide_metal>  (117) 
-0

>  <r_i_glide_rewards>  (117) 
-1.4076

>  <r_i_glide_evdw>  (117) 
-20.5291

>  <r_i_glide_ecoul>  (117) 
-1.07759

>  <r_i_glide_erotb>  (117) 
0.209838

>  <r_i_glide_esite>  (117) 
-0.0771264

>  <r_i_glide_emodel>  (117) 
-24.4735

>  <r_i_glide_energy>  (117) 
-21.6067

>  <r_i_glide_einternal>  (117) 
1.13594

>  <r_i_glide_intrahb_reward>  (117) 
-0

>  <i_i_glide_confnum>  (117) 
2

>  <i_i_glide_posenum>  (117) 
2

>  <r_i_glide_eff_state_penalty>  (117) 
0

>  <ligand_id>  (117) 
36

>  <original_smiles>  (117) 
CC1(C)C=C2OC(=N)C(C#N)C(c3ccncc3)C2C(=O)C1

>  <smiles>  (117) 
[H]N=C1OC2=C([H])C(C([H])([H])[H])(C([H])([H])[H])C([H])([H])C(=O)C2([H])C([H])(c2c([H])c([H])nc([H])c2[H])C1([H])C#N

$$$$
36:1:0
     RDKit          3D

 39 41  0  0  1  0  0  0  0  0999 V2000
    4.1373   -1.0123   -3.5659 C   0  0  0  0  0  0  0  0  0  0  0  0
    3.8950   -2.4390   -3.0519 C   0  0  0  0  0  0  0  0  0  0  0  0
    3.6706   -3.3915   -4.2217 C   0  0  0  0  0  0  0  0  0  0  0  0
    5.1141   -2.9180   -2.3050 C   0  0  0  0  0  0  0  0  0  0  0  0
    5.0705   -3.6129   -1.1668 C   0  0  0  0  0  0  0  0  0  0  0  0
    6.2631   -3.9270   -0.5722 O   0  0  0  0  0  0  0  0  0  0  0  0
    6.3840   -4.0123    0.7898 C   0  0  0  0  0  0  0  0  0  0  0  0
    7.5325   -3.9317    1.2790 N   0  0  0  0  0  0  0  0  0  0  0  0
    5.1124   -4.2387    1.6234 C   0  0  1  0  0  0  0  0  0  0  0  0
    5.2599   -3.7899    3.0193 C   0  0  0  0  0  0  0  0  0  0  0  0
    5.3619   -3.4422    4.1193 N   0  0  0  0  0  0  0  0  0  0  0  0
    3.8049   -3.7299    1.0082 C   0  0  1  0  0  0  0  0  0  0  0  0
    3.5143   -2.2623    1.3166 C   0  0  0  0  0  0  0  0  0  0  0  0
    2.3539   -1.9117    2.0364 C   0  0  0  0  0  0  0  0  0  0  0  0
    2.0999   -0.5477    2.2872 C   0  0  0  0  0  0  0  0  0  0  0  0
    2.9178    0.4424    1.8866 N   0  0  0  0  0  0  0  0  0  0  0  0
    4.0201    0.1039    1.1983 C   0  0  0  0  0  0  0  0  0  0  0  0
    4.3748   -1.2235    0.8936 C   0  0  0  0  0  0  0  0  0  0  0  0
    3.7884   -4.0749   -0.4742 C   0  0  1  0  0  0  0  0  0  0  0  0
    2.5260   -3.6156   -1.2242 C   0  0  0  0  0  0  0  0  0  0  0  0
    1.4553   -4.2072   -1.1222 O   0  0  0  0  0  0  0  0  0  0  0  0
    2.6662   -2.4040   -2.1405 C   0  0  0  0  0  0  0  0  0  0  0  0
    3.2695   -0.6142   -4.0957 H   0  0  0  0  0  0  0  0  0  0  0  0
    4.9881   -0.9791   -4.2463 H   0  0  0  0  0  0  0  0  0  0  0  0
    4.3478   -0.3318   -2.7362 H   0  0  0  0  0  0  0  0  0  0  0  0
    2.7783   -3.0925   -4.7759 H   0  0  0  0  0  0  0  0  0  0  0  0
    3.5271   -4.4232   -3.9177 H   0  0  0  0  0  0  0  0  0  0  0  0
    4.5635   -3.4267   -4.8436 H   0  0  0  0  0  0  0  0  0  0  0  0
    6.0685   -2.6350   -2.7252 H   0  0  0  0  0  0  0  0  0  0  0  0
    8.2330   -3.7498    0.5743 H   0  0  0  0  0  0  0  0  0  0  0  0
    5.0222   -5.3218    1.6969 H   0  0  0  0  0  0  0  0  0  0  0  0
    3.0016   -4.3078    1.4717 H   0  0  0  0  0  0  0  0  0  0  0  0
    1.6569   -2.6590    2.3819 H   0  0  0  0  0  0  0  0  0  0  0  0
    1.2195   -0.2442    2.8328 H   0  0  0  0  0  0  0  0  0  0  0  0
    4.6385    0.9233    0.8700 H   0  0  0  0  0  0  0  0  0  0  0  0
    5.2781   -1.4026    0.3341 H   0  0  0  0  0  0  0  0  0  0  0  0
    3.8083   -5.1627   -0.5568 H   0  0  0  0  0  0  0  0  0  0  0  0
    2.7331   -1.5361   -1.4867 H   0  0  0  0  0  0  0  0  0  0  0  0
    1.7579   -2.2837   -2.7243 H   0  0  0  0  0  0  0  0  0  0  0  0
  1  2  1  0
  1 23  1  0
  1 24  1  0
  1 25  1  0
  2 22  1  0
  2  3  1  0
  2  4  1  0
  3 26  1  0
  3 27  1  0
  3 28  1  0
  4  5  2  0
  4 29  1  0
  5 19  1  0
  5  6  1  0
  6  7  1  0
  7  8  2  3
  7  9  1  0
  8 30  1  0
  9 10  1  0
  9 12  1  0
  9 31  1  1
 10 11  3  0
 12 13  1  0
 12 19  1  0
 12 32  1  1
 13 18  1  0
 13 14  2  0
 14 15  1  0
 14 33  1  0
 15 16  2  0
 15 34  1  0
 16 17  1  0
 17 18  2  0
 17 35  1  0
 18 36  1  0
 19 20  1  0
 19 37  1  1
 20 21  2  0
 20 22  1  0
 22 38  1  0
 22 39  1  0
M  END
>  <i_m_ct_stereo_status>  (118) 
1

>  <s_m_source_file>  (118) 
/var/tmp/pbs.5076255.sched01/tmp2pvlagj1/41_74nrqse.sdf

>  <i_m_source_file_index>  (118) 
6

>  <i_lp_mmshare_version>  (118) 
48012

>  <i_f3d_flags>  (118) 
0

>  <s_epik_input>  (118) 
W0NIM11DKFtDSDNdKShbQ0hdPTEpW0NIMl1DKD1PKVtDQEBIXShDMTIpW0NAQEhdKFtDQEhdKEMjTilDKFxPMik9TlxbSF0pYzNbY0hdW2NIXW5bY0hdW2NIXTM=

>  <s_epik_cmdline>  (118) 
J2VwaWtfcHl0aG9uJywgJy1waHQnLCAnMi4wJywgJy1waCcsICc3LjAnLCAnLXRuJywgJzgnLCAnLW1hJywgJzIwMCcsICctaW1hZScsICc8aW5maWxlLm1hZT4nLCAnLW9tYWUnLCAnPG91dGZpbGUubWFlPic=

>  <r_lp_tautomer_probability>  (118) 
0.99995

>  <r_epik_Ionization_Penalty>  (118) 
0.0317794

>  <r_epik_Ionization_Penalty_Charging>  (118) 
0

>  <r_epik_Ionization_Penalty_Neutral>  (118) 
0.0317794

>  <r_epik_State_Penalty>  (118) 
0.764179

>  <r_epik_Charging_Adjusted_Penalty>  (118) 
0.764179

>  <i_epik_Tot_Q>  (118) 
0

>  <i_epik_Tot_abs_Q>  (118) 
0

>  <s_epik_Chemistry_Notes>  (118) 
This compound has an imine and may undergo hydrolysis.

>  <s_lp_Force_Field>  (118) 
OPLS3e

>  <r_lp_Energy>  (118) 
17.5268

>  <b_lp_Chiralities_Consistent>  (118) 
1

>  <s_lp_Variant>  (118) 
36:0-2

>  <s_i_glide_gridfile>  (118) 
pfpi4k_grid

>  <i_i_glide_lignum>  (118) 
6

>  <i_i_glide_rotatable_bonds>  (118) 
2

>  <r_i_docking_score>  (118) 
-3.20822

>  <r_i_glide_ligand_efficiency>  (118) 
-0.145828

>  <r_i_glide_ligand_efficiency_sa>  (118) 
-0.408617

>  <r_i_glide_ligand_efficiency_ln>  (118) 
-0.784207

>  <r_i_glide_gscore>  (118) 
-3.20822

>  <r_i_glide_lipo>  (118) 
-0.614059

>  <r_i_glide_hbond>  (118) 
-0.00415648

>  <r_i_glide_metal>  (118) 
-0

>  <r_i_glide_rewards>  (118) 
-1.56884

>  <r_i_glide_evdw>  (118) 
-18.8209

>  <r_i_glide_ecoul>  (118) 
-1.92423

>  <r_i_glide_erotb>  (118) 
0.209838

>  <r_i_glide_esite>  (118) 
-0.0013242

>  <r_i_glide_emodel>  (118) 
-24.5206

>  <r_i_glide_energy>  (118) 
-20.7451

>  <r_i_glide_einternal>  (118) 
0.89548

>  <r_i_glide_intrahb_reward>  (118) 
-0

>  <i_i_glide_confnum>  (118) 
1

>  <i_i_glide_posenum>  (118) 
8

>  <r_i_glide_eff_state_penalty>  (118) 
0

>  <ligand_id>  (118) 
36

>  <original_smiles>  (118) 
CC1(C)C=C2OC(=N)C(C#N)C(c3ccncc3)C2C(=O)C1

>  <smiles>  (118) 
[H]N=C1OC2=C([H])C(C([H])([H])[H])(C([H])([H])[H])C([H])([H])C(=O)C2([H])C([H])(c2c([H])c([H])nc([H])c2[H])C1([H])C#N

$$$$
36:1:1
     RDKit          3D

 39 41  0  0  1  0  0  0  0  0999 V2000
    4.5875   -1.0385   -1.8716 C   0  0  0  0  0  0  0  0  0  0  0  0
    4.3424   -2.5510   -1.7701 C   0  0  0  0  0  0  0  0  0  0  0  0
    4.0580   -3.1234   -3.1736 C   0  0  0  0  0  0  0  0  0  0  0  0
    5.5945   -3.2175   -1.2429 C   0  0  0  0  0  0  0  0  0  0  0  0
    5.5995   -4.2123   -0.3413 C   0  0  0  0  0  0  0  0  0  0  0  0
    6.8186   -4.6670    0.0827 O   0  0  0  0  0  0  0  0  0  0  0  0
    7.0000   -5.1537    1.3588 C   0  0  0  0  0  0  0  0  0  0  0  0
    8.1715   -5.2170    1.8149 N   0  0  0  0  0  0  0  0  0  0  0  0
    5.7644   -5.6065    2.1590 C   0  0  1  0  0  0  0  0  0  0  0  0
    6.0019   -5.5494    3.6099 C   0  0  0  0  0  0  0  0  0  0  0  0
    6.1900   -5.5067    4.7546 N   0  0  0  0  0  0  0  0  0  0  0  0
    4.4392   -4.9372    1.7634 C   0  0  1  0  0  0  0  0  0  0  0  0
    4.1944   -3.6014    2.4735 C   0  0  0  0  0  0  0  0  0  0  0  0
    5.1025   -2.5237    2.3708 C   0  0  0  0  0  0  0  0  0  0  0  0
    4.8241   -1.3281    3.0552 C   0  0  0  0  0  0  0  0  0  0  0  0
    3.7268   -1.1503    3.8159 N   0  0  0  0  0  0  0  0  0  0  0  0
    2.8577   -2.1792    3.9143 C   0  0  0  0  0  0  0  0  0  0  0  0
    3.0432   -3.4171    3.2667 C   0  0  0  0  0  0  0  0  0  0  0  0
    4.3517   -4.8704    0.2375 C   0  0  1  0  0  0  0  0  0  0  0  0
    3.0618   -4.2266   -0.2913 C   0  0  0  0  0  0  0  0  0  0  0  0
    1.9891   -4.8333   -0.2719 O   0  0  0  0  0  0  0  0  0  0  0  0
    3.1543   -2.7911   -0.8059 C   0  0  0  0  0  0  0  0  0  0  0  0
    3.6948   -0.5281   -2.2328 H   0  0  0  0  0  0  0  0  0  0  0  0
    5.4143   -0.8088   -2.5444 H   0  0  0  0  0  0  0  0  0  0  0  0
    4.8312   -0.6280   -0.8912 H   0  0  0  0  0  0  0  0  0  0  0  0
    3.1408   -2.7111   -3.6034 H   0  0  0  0  0  0  0  0  0  0  0  0
    3.9458   -4.2096   -3.1239 H   0  0  0  0  0  0  0  0  0  0  0  0
    4.8870   -2.9282   -3.8584 H   0  0  0  0  0  0  0  0  0  0  0  0
    6.5330   -2.8225   -1.6075 H   0  0  0  0  0  0  0  0  0  0  0  0
    8.8469   -4.8416    1.1675 H   0  0  0  0  0  0  0  0  0  0  0  0
    5.6660   -6.6702    1.9281 H   0  0  0  0  0  0  0  0  0  0  0  0
    3.6459   -5.6123    2.0996 H   0  0  0  0  0  0  0  0  0  0  0  0
    6.0085   -2.5773    1.7889 H   0  0  0  0  0  0  0  0  0  0  0  0
    5.5025   -0.4899    2.9968 H   0  0  0  0  0  0  0  0  0  0  0  0
    1.9897   -2.0035    4.5355 H   0  0  0  0  0  0  0  0  0  0  0  0
    2.3120   -4.2059    3.3865 H   0  0  0  0  0  0  0  0  0  0  0  0
    4.3593   -5.8922   -0.1421 H   0  0  0  0  0  0  0  0  0  0  0  0
    3.2555   -2.1403    0.0654 H   0  0  0  0  0  0  0  0  0  0  0  0
    2.2205   -2.5189   -1.2999 H   0  0  0  0  0  0  0  0  0  0  0  0
  1  2  1  0
  1 23  1  0
  1 24  1  0
  1 25  1  0
  2 22  1  0
  2  3  1  0
  2  4  1  0
  3 26  1  0
  3 27  1  0
  3 28  1  0
  4  5  2  0
  4 29  1  0
  5 19  1  0
  5  6  1  0
  6  7  1  0
  7  8  2  3
  7  9  1  0
  8 30  1  0
  9 10  1  0
  9 12  1  0
  9 31  1  6
 10 11  3  0
 12 13  1  0
 12 19  1  0
 12 32  1  1
 13 18  1  0
 13 14  2  0
 14 15  1  0
 14 33  1  0
 15 16  2  0
 15 34  1  0
 16 17  1  0
 17 18  2  0
 17 35  1  0
 18 36  1  0
 19 20  1  0
 19 37  1  6
 20 21  2  0
 20 22  1  0
 22 38  1  0
 22 39  1  0
M  END
>  <i_m_ct_stereo_status>  (119) 
1

>  <s_m_source_file>  (119) 
/var/tmp/pbs.5076255.sched01/tmp2pvlagj1/41_74nrqse.sdf

>  <i_m_source_file_index>  (119) 
6

>  <i_lp_mmshare_version>  (119) 
48012

>  <i_f3d_flags>  (119) 
0

>  <s_epik_input>  (119) 
W0NIM11DKFtDSDNdKShbQ0hdPTEpW0NIMl1DKD1PKVtDQEBIXShDMTIpW0NAQEhdKFtDQEhdKEMjTilDKFxPMik9TlxbSF0pYzNbY0hdW2NIXW5bY0hdW2NIXTM=

>  <s_epik_cmdline>  (119) 
J2VwaWtfcHl0aG9uJywgJy1waHQnLCAnMi4wJywgJy1waCcsICc3LjAnLCAnLXRuJywgJzgnLCAnLW1hJywgJzIwMCcsICctaW1hZScsICc8aW5maWxlLm1hZT4nLCAnLW9tYWUnLCAnPG91dGZpbGUubWFlPic=

>  <r_lp_tautomer_probability>  (119) 
0.99995

>  <r_epik_Ionization_Penalty>  (119) 
0.0317794

>  <r_epik_Ionization_Penalty_Charging>  (119) 
0

>  <r_epik_Ionization_Penalty_Neutral>  (119) 
0.0317794

>  <r_epik_State_Penalty>  (119) 
0.764179

>  <r_epik_Charging_Adjusted_Penalty>  (119) 
0.764179

>  <i_epik_Tot_Q>  (119) 
0

>  <i_epik_Tot_abs_Q>  (119) 
0

>  <s_epik_Chemistry_Notes>  (119) 
This compound has an imine and may undergo hydrolysis.

>  <s_lp_Force_Field>  (119) 
OPLS3e

>  <r_lp_Energy>  (119) 
17.5268

>  <b_lp_Chiralities_Consistent>  (119) 
1

>  <s_lp_Variant>  (119) 
36:0-2

>  <s_i_glide_gridfile>  (119) 
pfpi4k_grid

>  <i_i_glide_lignum>  (119) 
6

>  <i_i_glide_rotatable_bonds>  (119) 
2

>  <r_i_docking_score>  (119) 
-3.02295

>  <r_i_glide_ligand_efficiency>  (119) 
-0.137407

>  <r_i_glide_ligand_efficiency_sa>  (119) 
-0.38502

>  <r_i_glide_ligand_efficiency_ln>  (119) 
-0.73892

>  <r_i_glide_gscore>  (119) 
-3.02295

>  <r_i_glide_lipo>  (119) 
-0.426754

>  <r_i_glide_hbond>  (119) 
-0.0187764

>  <r_i_glide_metal>  (119) 
-0

>  <r_i_glide_rewards>  (119) 
-1.54129

>  <r_i_glide_evdw>  (119) 
-21.189

>  <r_i_glide_ecoul>  (119) 
-1.02185

>  <r_i_glide_erotb>  (119) 
0.209838

>  <r_i_glide_esite>  (119) 
-0.0332385

>  <r_i_glide_emodel>  (119) 
-25.7357

>  <r_i_glide_energy>  (119) 
-22.2108

>  <r_i_glide_einternal>  (119) 
0.988309

>  <r_i_glide_intrahb_reward>  (119) 
-0

>  <i_i_glide_confnum>  (119) 
2

>  <i_i_glide_posenum>  (119) 
22

>  <r_i_glide_eff_state_penalty>  (119) 
0

>  <ligand_id>  (119) 
36

>  <original_smiles>  (119) 
CC1(C)C=C2OC(=N)C(C#N)C(c3ccncc3)C2C(=O)C1

>  <smiles>  (119) 
[H]N=C1OC2=C([H])C(C([H])([H])[H])(C([H])([H])[H])C([H])([H])C(=O)C2([H])C([H])(c2c([H])c([H])nc([H])c2[H])C1([H])C#N

$$$$
36:1:2
     RDKit          3D

 39 41  0  0  1  0  0  0  0  0999 V2000
    3.9437   -0.9779    0.1070 C   0  0  0  0  0  0  0  0  0  0  0  0
    3.8916   -2.4443   -0.3603 C   0  0  0  0  0  0  0  0  0  0  0  0
    3.4639   -2.5321   -1.8385 C   0  0  0  0  0  0  0  0  0  0  0  0
    5.2815   -3.0365   -0.2567 C   0  0  0  0  0  0  0  0  0  0  0  0
    5.5405   -4.2790    0.1796 C   0  0  0  0  0  0  0  0  0  0  0  0
    6.8583   -4.6465    0.2919 O   0  0  0  0  0  0  0  0  0  0  0  0
    7.2859   -5.4806    1.2997 C   0  0  0  0  0  0  0  0  0  0  0  0
    8.5074   -5.4707    1.6106 N   0  0  0  0  0  0  0  0  0  0  0  0
    6.2569   -6.4038    1.9696 C   0  0  1  0  0  0  0  0  0  0  0  0
    6.7061   -6.8407    3.3035 C   0  0  0  0  0  0  0  0  0  0  0  0
    7.0591   -7.1857    4.3522 N   0  0  0  0  0  0  0  0  0  0  0  0
    4.8125   -5.8761    1.9760 C   0  0  1  0  0  0  0  0  0  0  0  0
    4.5016   -4.9647    3.1714 C   0  0  0  0  0  0  0  0  0  0  0  0
    3.6575   -5.4199    4.2041 C   0  0  0  0  0  0  0  0  0  0  0  0
    3.3847   -4.5632    5.2886 C   0  0  0  0  0  0  0  0  0  0  0  0
    3.8847   -3.3146    5.3924 N   0  0  0  0  0  0  0  0  0  0  0  0
    4.6988   -2.8823    4.4097 C   0  0  0  0  0  0  0  0  0  0  0  0
    5.0418   -3.6644    3.2931 C   0  0  0  0  0  0  0  0  0  0  0  0
    4.4784   -5.2913    0.5994 C   0  0  1  0  0  0  0  0  0  0  0  0
    3.0503   -4.7258    0.4839 C   0  0  0  0  0  0  0  0  0  0  0  0
    2.0652   -5.4622    0.3992 O   0  0  0  0  0  0  0  0  0  0  0  0
    2.9007   -3.2046    0.5550 C   0  0  0  0  0  0  0  0  0  0  0  0
    2.9548   -0.5207    0.0748 H   0  0  0  0  0  0  0  0  0  0  0  0
    4.6123   -0.3721   -0.5072 H   0  0  0  0  0  0  0  0  0  0  0  0
    4.2899   -0.9066    1.1392 H   0  0  0  0  0  0  0  0  0  0  0  0
    2.4553   -2.1454   -1.9930 H   0  0  0  0  0  0  0  0  0  0  0  0
    3.4764   -3.5684   -2.1839 H   0  0  0  0  0  0  0  0  0  0  0  0
    4.1438   -1.9695   -2.4810 H   0  0  0  0  0  0  0  0  0  0  0  0
    6.1005   -2.3810   -0.5094 H   0  0  0  0  0  0  0  0  0  0  0  0
    9.0222   -4.7971    1.0676 H   0  0  0  0  0  0  0  0  0  0  0  0
    6.2593   -7.3119    1.3636 H   0  0  0  0  0  0  0  0  0  0  0  0
    4.1733   -6.7538    2.0983 H   0  0  0  0  0  0  0  0  0  0  0  0
    3.2223   -6.4094    4.1805 H   0  0  0  0  0  0  0  0  0  0  0  0
    2.7436   -4.8835    6.0960 H   0  0  0  0  0  0  0  0  0  0  0  0
    5.0901   -1.8806    4.5162 H   0  0  0  0  0  0  0  0  0  0  0  0
    5.7101   -3.2440    2.5586 H   0  0  0  0  0  0  0  0  0  0  0  0
    4.5419   -6.0974   -0.1313 H   0  0  0  0  0  0  0  0  0  0  0  0
    3.0580   -2.9099    1.5941 H   0  0  0  0  0  0  0  0  0  0  0  0
    1.8787   -2.9129    0.3132 H   0  0  0  0  0  0  0  0  0  0  0  0
  1  2  1  0
  1 23  1  0
  1 24  1  0
  1 25  1  0
  2 22  1  0
  2  3  1  0
  2  4  1  0
  3 26  1  0
  3 27  1  0
  3 28  1  0
  4  5  2  0
  4 29  1  0
  5 19  1  0
  5  6  1  0
  6  7  1  0
  7  8  2  3
  7  9  1  0
  8 30  1  0
  9 10  1  0
  9 12  1  0
  9 31  1  6
 10 11  3  0
 12 13  1  0
 12 19  1  0
 12 32  1  1
 13 18  1  0
 13 14  2  0
 14 15  1  0
 14 33  1  0
 15 16  2  0
 15 34  1  0
 16 17  1  0
 17 18  2  0
 17 35  1  0
 18 36  1  0
 19 20  1  0
 19 37  1  6
 20 21  2  0
 20 22  1  0
 22 38  1  0
 22 39  1  0
M  END
>  <i_m_ct_stereo_status>  (120) 
1

>  <s_m_source_file>  (120) 
/var/tmp/pbs.5076255.sched01/tmp2pvlagj1/41_74nrqse.sdf

>  <i_m_source_file_index>  (120) 
6

>  <i_lp_mmshare_version>  (120) 
48012

>  <i_f3d_flags>  (120) 
0

>  <s_epik_input>  (120) 
W0NIM11DKFtDSDNdKShbQ0hdPTEpW0NIMl1DKD1PKVtDQEBIXShDMTIpW0NAQEhdKFtDQEhdKEMjTilDKFxPMik9TlxbSF0pYzNbY0hdW2NIXW5bY0hdW2NIXTM=

>  <s_epik_cmdline>  (120) 
J2VwaWtfcHl0aG9uJywgJy1waHQnLCAnMi4wJywgJy1waCcsICc3LjAnLCAnLXRuJywgJzgnLCAnLW1hJywgJzIwMCcsICctaW1hZScsICc8aW5maWxlLm1hZT4nLCAnLW9tYWUnLCAnPG91dGZpbGUubWFlPic=

>  <r_lp_tautomer_probability>  (120) 
0.99995

>  <r_epik_Ionization_Penalty>  (120) 
0.0317794

>  <r_epik_Ionization_Penalty_Charging>  (120) 
0

>  <r_epik_Ionization_Penalty_Neutral>  (120) 
0.0317794

>  <r_epik_State_Penalty>  (120) 
0.764179

>  <r_epik_Charging_Adjusted_Penalty>  (120) 
0.764179

>  <i_epik_Tot_Q>  (120) 
0

>  <i_epik_Tot_abs_Q>  (120) 
0

>  <s_epik_Chemistry_Notes>  (120) 
This compound has an imine and may undergo hydrolysis.

>  <s_lp_Force_Field>  (120) 
OPLS3e

>  <r_lp_Energy>  (120) 
17.5268

>  <b_lp_Chiralities_Consistent>  (120) 
1

>  <s_lp_Variant>  (120) 
36:0-2

>  <s_i_glide_gridfile>  (120) 
pfpi4k_grid

>  <i_i_glide_lignum>  (120) 
6

>  <i_i_glide_rotatable_bonds>  (120) 
2

>  <r_i_docking_score>  (120) 
-2.8499

>  <r_i_glide_ligand_efficiency>  (120) 
-0.129541

>  <r_i_glide_ligand_efficiency_sa>  (120) 
-0.362978

>  <r_i_glide_ligand_efficiency_ln>  (120) 
-0.696619

>  <r_i_glide_gscore>  (120) 
-2.8499

>  <r_i_glide_lipo>  (120) 
-0.288154

>  <r_i_glide_hbond>  (120) 
-0.0331653

>  <r_i_glide_metal>  (120) 
-0

>  <r_i_glide_rewards>  (120) 
-1.53268

>  <r_i_glide_evdw>  (120) 
-20.7911

>  <r_i_glide_ecoul>  (120) 
-0.979448

>  <r_i_glide_erotb>  (120) 
0.209838

>  <r_i_glide_esite>  (120) 
-0.0192642

>  <r_i_glide_emodel>  (120) 
-24.9687

>  <r_i_glide_energy>  (120) 
-21.7706

>  <r_i_glide_einternal>  (120) 
1.13159

>  <r_i_glide_intrahb_reward>  (120) 
-0

>  <i_i_glide_confnum>  (120) 
3

>  <i_i_glide_posenum>  (120) 
36

>  <r_i_glide_eff_state_penalty>  (120) 
0

>  <ligand_id>  (120) 
36

>  <original_smiles>  (120) 
CC1(C)C=C2OC(=N)C(C#N)C(c3ccncc3)C2C(=O)C1

>  <smiles>  (120) 
[H]N=C1OC2=C([H])C(C([H])([H])[H])(C([H])([H])[H])C([H])([H])C(=O)C2([H])C([H])(c2c([H])c([H])nc([H])c2[H])C1([H])C#N

$$$$
36:2:0
     RDKit          3D

 39 41  0  0  1  0  0  0  0  0999 V2000
    4.0974   -0.9850   -3.2038 C   0  0  0  0  0  0  0  0  0  0  0  0
    3.8831   -2.4550   -2.8306 C   0  0  0  0  0  0  0  0  0  0  0  0
    3.7220   -3.2955   -4.0967 C   0  0  0  0  0  0  0  0  0  0  0  0
    5.0948   -2.9738   -2.0905 C   0  0  0  0  0  0  0  0  0  0  0  0
    5.0359   -3.7515   -0.9996 C   0  0  0  0  0  0  0  0  0  0  0  0
    6.2154   -4.0672   -0.3858 O   0  0  0  0  0  0  0  0  0  0  0  0
    6.2906   -4.2732    0.9626 C   0  0  0  0  0  0  0  0  0  0  0  0
    7.4509   -4.8747    1.2609 N   0  0  0  0  0  0  0  0  0  0  0  0
    5.0395   -4.5850    1.7854 C   0  0  1  0  0  0  0  0  0  0  0  0
    5.1691   -4.1807    3.1955 C   0  0  0  0  0  0  0  0  0  0  0  0
    5.2609   -3.8670    4.3098 N   0  0  0  0  0  0  0  0  0  0  0  0
    3.7381   -4.0563    1.1522 C   0  0  1  0  0  0  0  0  0  0  0  0
    3.4591   -2.6004    1.5083 C   0  0  0  0  0  0  0  0  0  0  0  0
    4.3864   -1.5726    1.2225 C   0  0  0  0  0  0  0  0  0  0  0  0
    4.0578   -0.2548    1.5729 C   0  0  0  0  0  0  0  0  0  0  0  0
    2.9154    0.0981    2.1951 N   0  0  0  0  0  0  0  0  0  0  0  0
    2.0350   -0.8881    2.4752 C   0  0  0  0  0  0  0  0  0  0  0  0
    2.2602   -2.2466    2.1640 C   0  0  0  0  0  0  0  0  0  0  0  0
    3.7565   -4.3020   -0.3644 C   0  0  1  0  0  0  0  0  0  0  0  0
    2.4967   -3.8202   -1.1219 C   0  0  0  0  0  0  0  0  0  0  0  0
    1.4198   -4.4232   -1.1186 O   0  0  0  0  0  0  0  0  0  0  0  0
    2.6354   -2.5356   -1.9373 C   0  0  0  0  0  0  0  0  0  0  0  0
    3.2368   -0.5867   -3.7348 H   0  0  0  0  0  0  0  0  0  0  0  0
    4.9671   -0.8862   -3.8457 H   0  0  0  0  0  0  0  0  0  0  0  0
    4.2571   -0.3696   -2.3170 H   0  0  0  0  0  0  0  0  0  0  0  0
    2.8518   -2.9815   -4.6715 H   0  0  0  0  0  0  0  0  0  0  0  0
    3.6006   -4.3500   -3.8570 H   0  0  0  0  0  0  0  0  0  0  0  0
    4.6092   -3.2230   -4.7183 H   0  0  0  0  0  0  0  0  0  0  0  0
    6.0519   -2.6337   -2.4616 H   0  0  0  0  0  0  0  0  0  0  0  0
    7.4260   -5.0875    2.2667 H   0  0  0  0  0  0  0  0  0  0  0  0
    2.9180   -4.6512    1.5637 H   0  0  0  0  0  0  0  0  0  0  0  0
    5.3317   -1.7303    0.7311 H   0  0  0  0  0  0  0  0  0  0  0  0
    4.7461    0.5473    1.3526 H   0  0  0  0  0  0  0  0  0  0  0  0
    1.1274   -0.5755    2.9795 H   0  0  0  0  0  0  0  0  0  0  0  0
    1.5081   -2.9890    2.4130 H   0  0  0  0  0  0  0  0  0  0  0  0
    3.8173   -5.3825   -0.5019 H   0  0  0  0  0  0  0  0  0  0  0  0
    2.6628   -1.7241   -1.2100 H   0  0  0  0  0  0  0  0  0  0  0  0
    1.7421   -2.4105   -2.5355 H   0  0  0  0  0  0  0  0  0  0  0  0
    4.9712   -5.6726    1.7942 H   0  0  0  0  0  0  0  0  0  0  0  0
  1  2  1  0
  1 23  1  0
  1 24  1  0
  1 25  1  0
  2 22  1  0
  2  3  1  0
  2  4  1  0
  3 26  1  0
  3 27  1  0
  3 28  1  0
  4  5  2  0
  4 29  1  0
  5 19  1  0
  5  6  1  0
  6  7  1  0
  7  8  1  0
  7  9  1  0
  8 30  1  0
  9 10  1  0
  9 12  1  0
  9 39  1  1
 10 11  3  0
 12 13  1  0
 12 19  1  0
 12 31  1  1
 13 18  1  0
 13 14  2  0
 14 15  1  0
 14 32  1  0
 15 16  2  0
 15 33  1  0
 16 17  1  0
 17 18  2  0
 17 34  1  0
 18 35  1  0
 19 20  1  0
 19 36  1  1
 20 21  2  0
 20 22  1  0
 22 37  1  0
 22 38  1  0
M  CHG  2   7   1   8  -1
M  END
>  <i_m_ct_stereo_status>  (121) 
1

>  <s_m_source_file>  (121) 
/var/tmp/pbs.5076255.sched01/tmp2pvlagj1/41_74nrqse.sdf

>  <i_m_source_file_index>  (121) 
7

>  <i_lp_mmshare_version>  (121) 
48012

>  <i_f3d_flags>  (121) 
0

>  <s_epik_input>  (121) 
W0NIM11DKFtDSDNdKShbQ0hdPTEpW0NIMl1DKD1PKVtDQEBIXShDMTIpW0NAQEhdKFtDQEhdKEMjTilDKFxPMik9TlxbSF0pYzNbY0hdW2NIXW5bY0hdW2NIXTM=

>  <s_epik_cmdline>  (121) 
J2VwaWtfcHl0aG9uJywgJy1waHQnLCAnMi4wJywgJy1waCcsICc3LjAnLCAnLXRuJywgJzgnLCAnLW1hJywgJzIwMCcsICctaW1hZScsICc8aW5maWxlLm1hZT4nLCAnLW9tYWUnLCAnPG91dGZpbGUubWFlPic=

>  <r_lp_tautomer_probability>  (121) 
0.99995

>  <r_epik_Ionization_Penalty>  (121) 
0.0727516

>  <r_epik_Ionization_Penalty_Charging>  (121) 
0

>  <r_epik_Ionization_Penalty_Neutral>  (121) 
0.0727516

>  <r_epik_State_Penalty>  (121) 
0.905263

>  <r_epik_Charging_Adjusted_Penalty>  (121) 
0.905263

>  <i_epik_Tot_Q>  (121) 
0

>  <i_epik_Tot_abs_Q>  (121) 
2

>  <s_lp_Force_Field>  (121) 
OPLS3e

>  <r_lp_Energy>  (121) 
17.4306

>  <b_lp_Chiralities_Consistent>  (121) 
1

>  <s_lp_Variant>  (121) 
36:0-3

>  <s_i_glide_gridfile>  (121) 
pfpi4k_grid

>  <i_i_glide_lignum>  (121) 
7

>  <i_i_glide_rotatable_bonds>  (121) 
2

>  <r_i_docking_score>  (121) 
-3.39681

>  <r_i_glide_ligand_efficiency>  (121) 
-0.1544

>  <r_i_glide_ligand_efficiency_sa>  (121) 
-0.432636

>  <r_i_glide_ligand_efficiency_ln>  (121) 
-0.830304

>  <r_i_glide_gscore>  (121) 
-3.39681

>  <r_i_glide_lipo>  (121) 
-0.565181

>  <r_i_glide_hbond>  (121) 
0

>  <r_i_glide_metal>  (121) 
-0

>  <r_i_glide_rewards>  (121) 
-1.42274

>  <r_i_glide_evdw>  (121) 
-20.5396

>  <r_i_glide_ecoul>  (121) 
-3.80082

>  <r_i_glide_erotb>  (121) 
0.209838

>  <r_i_glide_esite>  (121) 
-0.0216239

>  <r_i_glide_emodel>  (121) 
-29.0555

>  <r_i_glide_energy>  (121) 
-24.3404

>  <r_i_glide_einternal>  (121) 
0.689052

>  <r_i_glide_intrahb_reward>  (121) 
-0

>  <i_i_glide_confnum>  (121) 
2

>  <i_i_glide_posenum>  (121) 
39

>  <r_i_glide_eff_state_penalty>  (121) 
0

>  <ligand_id>  (121) 
36

>  <original_smiles>  (121) 
CC1(C)C=C2OC(=N)C(C#N)C(c3ccncc3)C2C(=O)C1

>  <smiles>  (121) 
[H][N-][C+]1OC2=C([H])C(C([H])([H])[H])(C([H])([H])[H])C([H])([H])C(=O)C2([H])C([H])(c2c([H])c([H])nc([H])c2[H])C1([H])C#N

$$$$
36:2:1
     RDKit          3D

 39 41  0  0  1  0  0  0  0  0999 V2000
    4.0568   -1.0691   -0.7799 C   0  0  0  0  0  0  0  0  0  0  0  0
    4.1084   -2.5899   -0.9737 C   0  0  0  0  0  0  0  0  0  0  0  0
    3.6999   -2.9580   -2.4106 C   0  0  0  0  0  0  0  0  0  0  0  0
    5.5344   -3.0574   -0.7826 C   0  0  0  0  0  0  0  0  0  0  0  0
    5.8803   -4.1697   -0.1204 C   0  0  0  0  0  0  0  0  0  0  0  0
    7.2154   -4.3874    0.0893 O   0  0  0  0  0  0  0  0  0  0  0  0
    7.6889   -5.0365    1.2018 C   0  0  0  0  0  0  0  0  0  0  0  0
    8.9632   -5.3975    1.0077 N   0  0  0  0  0  0  0  0  0  0  0  0
    6.7539   -5.8895    2.0648 C   0  0  1  0  0  0  0  0  0  0  0  0
    7.2183   -5.9995    3.4595 C   0  0  0  0  0  0  0  0  0  0  0  0
    7.5765   -6.0909    4.5571 N   0  0  0  0  0  0  0  0  0  0  0  0
    5.2717   -5.4668    1.9590 C   0  0  1  0  0  0  0  0  0  0  0  0
    4.9036   -4.3417    2.9363 C   0  0  0  0  0  0  0  0  0  0  0  0
    4.0486   -4.6025    4.0289 C   0  0  0  0  0  0  0  0  0  0  0  0
    3.7252   -3.5511    4.9065 C   0  0  0  0  0  0  0  0  0  0  0  0
    4.1828   -2.2906    4.7580 N   0  0  0  0  0  0  0  0  0  0  0  0
    5.0077   -2.0428    3.7213 C   0  0  0  0  0  0  0  0  0  0  0  0
    5.4080   -3.0253    2.8001 C   0  0  0  0  0  0  0  0  0  0  0  0
    4.9045   -5.1732    0.4940 C   0  0  1  0  0  0  0  0  0  0  0  0
    3.4363   -4.7334    0.3009 C   0  0  0  0  0  0  0  0  0  0  0  0
    2.5104   -5.5355    0.3885 O   0  0  0  0  0  0  0  0  0  0  0  0
    3.1730   -3.2414    0.0747 C   0  0  0  0  0  0  0  0  0  0  0  0
    3.0362   -0.7179   -0.9115 H   0  0  0  0  0  0  0  0  0  0  0  0
    4.6962   -0.5476   -1.4937 H   0  0  0  0  0  0  0  0  0  0  0  0
    4.3751   -0.7941    0.2272 H   0  0  0  0  0  0  0  0  0  0  0  0
    2.6616   -2.6846   -2.6192 H   0  0  0  0  0  0  0  0  0  0  0  0
    3.8114   -4.0352   -2.5624 H   0  0  0  0  0  0  0  0  0  0  0  0
    4.3528   -2.4650   -3.1392 H   0  0  0  0  0  0  0  0  0  0  0  0
    6.3058   -2.3951   -1.1601 H   0  0  0  0  0  0  0  0  0  0  0  0
    9.2146   -6.0388    1.7704 H   0  0  0  0  0  0  0  0  0  0  0  0
    4.6822   -6.3384    2.2532 H   0  0  0  0  0  0  0  0  0  0  0  0
    3.6395   -5.5889    4.2054 H   0  0  0  0  0  0  0  0  0  0  0  0
    3.0779   -3.7136    5.7570 H   0  0  0  0  0  0  0  0  0  0  0  0
    5.3630   -1.0265    3.6305 H   0  0  0  0  0  0  0  0  0  0  0  0
    6.0922   -2.7239    2.0212 H   0  0  0  0  0  0  0  0  0  0  0  0
    5.0399   -6.1005   -0.0690 H   0  0  0  0  0  0  0  0  0  0  0  0
    3.2850   -2.7455    1.0391 H   0  0  0  0  0  0  0  0  0  0  0  0
    2.1396   -3.0952   -0.2206 H   0  0  0  0  0  0  0  0  0  0  0  0
    6.8251   -6.9003    1.6589 H   0  0  0  0  0  0  0  0  0  0  0  0
  1  2  1  0
  1 23  1  0
  1 24  1  0
  1 25  1  0
  2 22  1  0
  2  3  1  0
  2  4  1  0
  3 26  1  0
  3 27  1  0
  3 28  1  0
  4  5  2  0
  4 29  1  0
  5 19  1  0
  5  6  1  0
  6  7  1  0
  7  8  1  0
  7  9  1  0
  8 30  1  0
  9 10  1  0
  9 12  1  0
  9 39  1  6
 10 11  3  0
 12 13  1  0
 12 19  1  0
 12 31  1  1
 13 18  1  0
 13 14  2  0
 14 15  1  0
 14 32  1  0
 15 16  2  0
 15 33  1  0
 16 17  1  0
 17 18  2  0
 17 34  1  0
 18 35  1  0
 19 20  1  0
 19 36  1  6
 20 21  2  0
 20 22  1  0
 22 37  1  0
 22 38  1  0
M  CHG  2   7   1   8  -1
M  END
>  <i_m_ct_stereo_status>  (122) 
1

>  <s_m_source_file>  (122) 
/var/tmp/pbs.5076255.sched01/tmp2pvlagj1/41_74nrqse.sdf

>  <i_m_source_file_index>  (122) 
7

>  <i_lp_mmshare_version>  (122) 
48012

>  <i_f3d_flags>  (122) 
0

>  <s_epik_input>  (122) 
W0NIM11DKFtDSDNdKShbQ0hdPTEpW0NIMl1DKD1PKVtDQEBIXShDMTIpW0NAQEhdKFtDQEhdKEMjTilDKFxPMik9TlxbSF0pYzNbY0hdW2NIXW5bY0hdW2NIXTM=

>  <s_epik_cmdline>  (122) 
J2VwaWtfcHl0aG9uJywgJy1waHQnLCAnMi4wJywgJy1waCcsICc3LjAnLCAnLXRuJywgJzgnLCAnLW1hJywgJzIwMCcsICctaW1hZScsICc8aW5maWxlLm1hZT4nLCAnLW9tYWUnLCAnPG91dGZpbGUubWFlPic=

>  <r_lp_tautomer_probability>  (122) 
0.99995

>  <r_epik_Ionization_Penalty>  (122) 
0.0727516

>  <r_epik_Ionization_Penalty_Charging>  (122) 
0

>  <r_epik_Ionization_Penalty_Neutral>  (122) 
0.0727516

>  <r_epik_State_Penalty>  (122) 
0.905263

>  <r_epik_Charging_Adjusted_Penalty>  (122) 
0.905263

>  <i_epik_Tot_Q>  (122) 
0

>  <i_epik_Tot_abs_Q>  (122) 
2

>  <s_lp_Force_Field>  (122) 
OPLS3e

>  <r_lp_Energy>  (122) 
17.4306

>  <b_lp_Chiralities_Consistent>  (122) 
1

>  <s_lp_Variant>  (122) 
36:0-3

>  <s_i_glide_gridfile>  (122) 
pfpi4k_grid

>  <i_i_glide_lignum>  (122) 
7

>  <i_i_glide_rotatable_bonds>  (122) 
2

>  <r_i_docking_score>  (122) 
-3.21013

>  <r_i_glide_ligand_efficiency>  (122) 
-0.145915

>  <r_i_glide_ligand_efficiency_sa>  (122) 
-0.40886

>  <r_i_glide_ligand_efficiency_ln>  (122) 
-0.784673

>  <r_i_glide_gscore>  (122) 
-3.21013

>  <r_i_glide_lipo>  (122) 
-0.472851

>  <r_i_glide_hbond>  (122) 
-0.00208855

>  <r_i_glide_metal>  (122) 
-0

>  <r_i_glide_rewards>  (122) 
-1.40061

>  <r_i_glide_evdw>  (122) 
-20.1151

>  <r_i_glide_ecoul>  (122) 
-3.50659

>  <r_i_glide_erotb>  (122) 
0.209838

>  <r_i_glide_esite>  (122) 
-0.0126734

>  <r_i_glide_emodel>  (122) 
-27.9331

>  <r_i_glide_energy>  (122) 
-23.6217

>  <r_i_glide_einternal>  (122) 
0.898243

>  <r_i_glide_intrahb_reward>  (122) 
-0

>  <i_i_glide_confnum>  (122) 
2

>  <i_i_glide_posenum>  (122) 
4

>  <r_i_glide_eff_state_penalty>  (122) 
0

>  <ligand_id>  (122) 
36

>  <original_smiles>  (122) 
CC1(C)C=C2OC(=N)C(C#N)C(c3ccncc3)C2C(=O)C1

>  <smiles>  (122) 
[H][N-][C+]1OC2=C([H])C(C([H])([H])[H])(C([H])([H])[H])C([H])([H])C(=O)C2([H])C([H])(c2c([H])c([H])nc([H])c2[H])C1([H])C#N

$$$$
36:2:2
     RDKit          3D

 39 41  0  0  1  0  0  0  0  0999 V2000
    4.5704   -0.9821   -1.9363 C   0  0  0  0  0  0  0  0  0  0  0  0
    4.3513   -2.4948   -1.8024 C   0  0  0  0  0  0  0  0  0  0  0  0
    4.1030   -3.1188   -3.1891 C   0  0  0  0  0  0  0  0  0  0  0  0
    5.6104   -3.1210   -1.2423 C   0  0  0  0  0  0  0  0  0  0  0  0
    5.6165   -4.0884   -0.3118 C   0  0  0  0  0  0  0  0  0  0  0  0
    6.8252   -4.5013    0.1638 O   0  0  0  0  0  0  0  0  0  0  0  0
    6.9697   -4.9762    1.4402 C   0  0  0  0  0  0  0  0  0  0  0  0
    8.1745   -5.5215    1.6084 N   0  0  0  0  0  0  0  0  0  0  0  0
    5.7647   -5.4107    2.2824 C   0  0  1  0  0  0  0  0  0  0  0  0
    5.9877   -5.2634    3.7325 C   0  0  0  0  0  0  0  0  0  0  0  0
    6.1565   -5.1457    4.8756 N   0  0  0  0  0  0  0  0  0  0  0  0
    4.4407   -4.7679    1.8206 C   0  0  1  0  0  0  0  0  0  0  0  0
    4.1928   -3.3941    2.4501 C   0  0  0  0  0  0  0  0  0  0  0  0
    5.1533   -2.3575    2.3802 C   0  0  0  0  0  0  0  0  0  0  0  0
    4.8707   -1.1243    2.9921 C   0  0  0  0  0  0  0  0  0  0  0  0
    3.7238   -0.8693    3.6519 N   0  0  0  0  0  0  0  0  0  0  0  0
    2.8053   -1.8579    3.7178 C   0  0  0  0  0  0  0  0  0  0  0  0
    2.9895   -3.1286    3.1375 C   0  0  0  0  0  0  0  0  0  0  0  0
    4.3799   -4.7559    0.2839 C   0  0  1  0  0  0  0  0  0  0  0  0
    3.0843   -4.1584   -0.2909 C   0  0  0  0  0  0  0  0  0  0  0  0
    2.0327   -4.7927   -0.2686 O   0  0  0  0  0  0  0  0  0  0  0  0
    3.1569   -2.7336   -0.8459 C   0  0  0  0  0  0  0  0  0  0  0  0
    3.6829   -0.5000   -2.3423 H   0  0  0  0  0  0  0  0  0  0  0  0
    5.4131   -0.7576   -2.5891 H   0  0  0  0  0  0  0  0  0  0  0  0
    4.7741   -0.5369   -0.9605 H   0  0  0  0  0  0  0  0  0  0  0  0
    3.1915   -2.7294   -3.6491 H   0  0  0  0  0  0  0  0  0  0  0  0
    4.0033   -4.2059   -3.1068 H   0  0  0  0  0  0  0  0  0  0  0  0
    4.9459   -2.9313   -3.8618 H   0  0  0  0  0  0  0  0  0  0  0  0
    6.5512   -2.7152   -1.5967 H   0  0  0  0  0  0  0  0  0  0  0  0
    8.1822   -5.9794    2.5279 H   0  0  0  0  0  0  0  0  0  0  0  0
    3.6397   -5.4214    2.1734 H   0  0  0  0  0  0  0  0  0  0  0  0
    6.1043   -2.4652    1.8833 H   0  0  0  0  0  0  0  0  0  0  0  0
    5.5873   -0.3168    2.9613 H   0  0  0  0  0  0  0  0  0  0  0  0
    1.8977   -1.6201    4.2586 H   0  0  0  0  0  0  0  0  0  0  0  0
    2.2142   -3.8801    3.2256 H   0  0  0  0  0  0  0  0  0  0  0  0
    4.4138   -5.7935   -0.0543 H   0  0  0  0  0  0  0  0  0  0  0  0
    3.2208   -2.0539    0.0055 H   0  0  0  0  0  0  0  0  0  0  0  0
    2.2286   -2.5058   -1.3577 H   0  0  0  0  0  0  0  0  0  0  0  0
    5.6811   -6.4847    2.1134 H   0  0  0  0  0  0  0  0  0  0  0  0
  1  2  1  0
  1 23  1  0
  1 24  1  0
  1 25  1  0
  2 22  1  0
  2  3  1  0
  2  4  1  0
  3 26  1  0
  3 27  1  0
  3 28  1  0
  4  5  2  0
  4 29  1  0
  5 19  1  0
  5  6  1  0
  6  7  1  0
  7  8  1  0
  7  9  1  0
  8 30  1  0
  9 10  1  0
  9 12  1  0
  9 39  1  1
 10 11  3  0
 12 13  1  0
 12 19  1  0
 12 31  1  1
 13 18  1  0
 13 14  2  0
 14 15  1  0
 14 32  1  0
 15 16  2  0
 15 33  1  0
 16 17  1  0
 17 18  2  0
 17 34  1  0
 18 35  1  0
 19 20  1  0
 19 36  1  6
 20 21  2  0
 20 22  1  0
 22 37  1  0
 22 38  1  0
M  CHG  2   7   1   8  -1
M  END
>  <i_m_ct_stereo_status>  (123) 
1

>  <s_m_source_file>  (123) 
/var/tmp/pbs.5076255.sched01/tmp2pvlagj1/41_74nrqse.sdf

>  <i_m_source_file_index>  (123) 
7

>  <i_lp_mmshare_version>  (123) 
48012

>  <i_f3d_flags>  (123) 
0

>  <s_epik_input>  (123) 
W0NIM11DKFtDSDNdKShbQ0hdPTEpW0NIMl1DKD1PKVtDQEBIXShDMTIpW0NAQEhdKFtDQEhdKEMjTilDKFxPMik9TlxbSF0pYzNbY0hdW2NIXW5bY0hdW2NIXTM=

>  <s_epik_cmdline>  (123) 
J2VwaWtfcHl0aG9uJywgJy1waHQnLCAnMi4wJywgJy1waCcsICc3LjAnLCAnLXRuJywgJzgnLCAnLW1hJywgJzIwMCcsICctaW1hZScsICc8aW5maWxlLm1hZT4nLCAnLW9tYWUnLCAnPG91dGZpbGUubWFlPic=

>  <r_lp_tautomer_probability>  (123) 
0.99995

>  <r_epik_Ionization_Penalty>  (123) 
0.0727516

>  <r_epik_Ionization_Penalty_Charging>  (123) 
0

>  <r_epik_Ionization_Penalty_Neutral>  (123) 
0.0727516

>  <r_epik_State_Penalty>  (123) 
0.905263

>  <r_epik_Charging_Adjusted_Penalty>  (123) 
0.905263

>  <i_epik_Tot_Q>  (123) 
0

>  <i_epik_Tot_abs_Q>  (123) 
2

>  <s_lp_Force_Field>  (123) 
OPLS3e

>  <r_lp_Energy>  (123) 
17.4306

>  <b_lp_Chiralities_Consistent>  (123) 
1

>  <s_lp_Variant>  (123) 
36:0-3

>  <s_i_glide_gridfile>  (123) 
pfpi4k_grid

>  <i_i_glide_lignum>  (123) 
7

>  <i_i_glide_rotatable_bonds>  (123) 
2

>  <r_i_docking_score>  (123) 
-3.1432

>  <r_i_glide_ligand_efficiency>  (123) 
-0.142873

>  <r_i_glide_ligand_efficiency_sa>  (123) 
-0.400335

>  <r_i_glide_ligand_efficiency_ln>  (123) 
-0.768312

>  <r_i_glide_gscore>  (123) 
-3.1432

>  <r_i_glide_lipo>  (123) 
-0.533728

>  <r_i_glide_hbond>  (123) 
-0.0138438

>  <r_i_glide_metal>  (123) 
-0

>  <r_i_glide_rewards>  (123) 
-1.40098

>  <r_i_glide_evdw>  (123) 
-21.8171

>  <r_i_glide_ecoul>  (123) 
-1.89758

>  <r_i_glide_erotb>  (123) 
0.209838

>  <r_i_glide_esite>  (123) 
-0.0289923

>  <r_i_glide_emodel>  (123) 
-28.1012

>  <r_i_glide_energy>  (123) 
-23.7147

>  <r_i_glide_einternal>  (123) 
0.631391

>  <r_i_glide_intrahb_reward>  (123) 
-0

>  <i_i_glide_confnum>  (123) 
2

>  <i_i_glide_posenum>  (123) 
38

>  <r_i_glide_eff_state_penalty>  (123) 
0

>  <ligand_id>  (123) 
36

>  <original_smiles>  (123) 
CC1(C)C=C2OC(=N)C(C#N)C(c3ccncc3)C2C(=O)C1

>  <smiles>  (123) 
[H][N-][C+]1OC2=C([H])C(C([H])([H])[H])(C([H])([H])[H])C([H])([H])C(=O)C2([H])C([H])(c2c([H])c([H])nc([H])c2[H])C1([H])C#N

$$$$
36:3:0
     RDKit          3D

 40 42  0  0  1  0  0  0  0  0999 V2000
    4.1234   -0.9928   -3.5101 C   0  0  0  0  0  0  0  0  0  0  0  0
    3.9035   -2.4242   -3.0009 C   0  0  0  0  0  0  0  0  0  0  0  0
    3.7249   -3.3810   -4.1688 C   0  0  0  0  0  0  0  0  0  0  0  0
    5.1223   -2.8896   -2.2442 C   0  0  0  0  0  0  0  0  0  0  0  0
    5.0653   -3.6096   -1.1053 C   0  0  0  0  0  0  0  0  0  0  0  0
    6.2477   -3.8613   -0.4672 O   0  0  0  0  0  0  0  0  0  0  0  0
    6.3084   -3.9820    0.8964 C   0  0  0  0  0  0  0  0  0  0  0  0
    7.4862   -4.5006    1.2618 N   0  0  0  0  0  0  0  0  0  0  0  0
    5.0554   -4.2246    1.7362 C   0  0  1  0  0  0  0  0  0  0  0  0
    5.1770   -3.7241    3.1167 C   0  0  0  0  0  0  0  0  0  0  0  0
    5.2615   -3.3295    4.2022 N   0  0  0  0  0  0  0  0  0  0  0  0
    3.7599   -3.7264    1.0691 C   0  0  1  0  0  0  0  0  0  0  0  0
    3.4711   -2.2446    1.3487 C   0  0  0  0  0  0  0  0  0  0  0  0
    4.3332   -1.2202    0.8905 C   0  0  0  0  0  0  0  0  0  0  0  0
    4.0131    0.1212    1.1440 C   0  0  0  0  0  0  0  0  0  0  0  0
    2.9151    0.4332    1.8577 N   0  0  0  0  0  0  0  0  0  0  0  0
    2.0700   -0.5023    2.3356 C   0  0  0  0  0  0  0  0  0  0  0  0
    2.3287   -1.8693    2.0913 C   0  0  0  0  0  0  0  0  0  0  0  0
    3.7836   -4.0835   -0.4249 C   0  0  1  0  0  0  0  0  0  0  0  0
    2.5321   -3.6402   -1.2046 C   0  0  0  0  0  0  0  0  0  0  0  0
    1.4770   -4.2550   -1.1164 O   0  0  0  0  0  0  0  0  0  0  0  0
    2.6620   -2.4155   -2.1087 C   0  0  0  0  0  0  0  0  0  0  0  0
    3.2609   -0.6277   -4.0692 H   0  0  0  0  0  0  0  0  0  0  0  0
    4.9893   -0.9421   -4.1700 H   0  0  0  0  0  0  0  0  0  0  0  0
    4.2864   -0.3022   -2.6803 H   0  0  0  0  0  0  0  0  0  0  0  0
    2.8436   -3.1024   -4.7475 H   0  0  0  0  0  0  0  0  0  0  0  0
    3.6008   -4.4148   -3.8600 H   0  0  0  0  0  0  0  0  0  0  0  0
    4.6333   -3.3825   -4.7654 H   0  0  0  0  0  0  0  0  0  0  0  0
    6.0808   -2.5706   -2.6258 H   0  0  0  0  0  0  0  0  0  0  0  0
    7.4469   -4.6803    2.2686 H   0  0  0  0  0  0  0  0  0  0  0  0
    2.9439   -4.3003    1.5130 H   0  0  0  0  0  0  0  0  0  0  0  0
    5.2302   -1.4146    0.3297 H   0  0  0  0  0  0  0  0  0  0  0  0
    4.6088    0.9433    0.7898 H   0  0  0  0  0  0  0  0  0  0  0  0
    1.2176   -0.1303    2.8901 H   0  0  0  0  0  0  0  0  0  0  0  0
    1.6453   -2.6170    2.4676 H   0  0  0  0  0  0  0  0  0  0  0  0
    3.8095   -5.1757   -0.5002 H   0  0  0  0  0  0  0  0  0  0  0  0
    2.6862   -1.5411   -1.4607 H   0  0  0  0  0  0  0  0  0  0  0  0
    1.7656   -2.3253   -2.7168 H   0  0  0  0  0  0  0  0  0  0  0  0
    4.9870   -5.3094    1.8242 H   0  0  0  0  0  0  0  0  0  0  0  0
    2.7210    1.4180    2.0433 H   0  0  0  0  0  0  0  0  0  0  0  0
  1  2  1  0
  1 23  1  0
  1 24  1  0
  1 25  1  0
  2 22  1  0
  2  3  1  0
  2  4  1  0
  3 26  1  0
  3 27  1  0
  3 28  1  0
  4  5  2  0
  4 29  1  0
  5 19  1  0
  5  6  1  0
  6  7  1  0
  7  8  1  0
  7  9  1  0
  8 30  1  0
  9 10  1  0
  9 12  1  0
  9 39  1  1
 10 11  3  0
 12 13  1  0
 12 19  1  0
 12 31  1  1
 13 18  1  0
 13 14  2  0
 14 15  1  0
 14 32  1  0
 15 16  2  0
 15 33  1  0
 16 17  1  0
 16 40  1  0
 17 18  2  0
 17 34  1  0
 18 35  1  0
 19 20  1  0
 19 36  1  1
 20 21  2  0
 20 22  1  0
 22 37  1  0
 22 38  1  0
M  CHG  3   7   1   8  -1  16   1
M  END
>  <i_m_ct_stereo_status>  (124) 
1

>  <s_m_source_file>  (124) 
/var/tmp/pbs.5076255.sched01/tmp2pvlagj1/41_74nrqse.sdf

>  <i_m_source_file_index>  (124) 
8

>  <i_lp_mmshare_version>  (124) 
48012

>  <i_f3d_flags>  (124) 
0

>  <s_epik_input>  (124) 
W0NIM11DKFtDSDNdKShbQ0hdPTEpW0NIMl1DKD1PKVtDQEBIXShDMTIpW0NAQEhdKFtDQEhdKEMjTilDKFxPMik9TlxbSF0pYzNbY0hdW2NIXW5bY0hdW2NIXTM=

>  <s_epik_cmdline>  (124) 
J2VwaWtfcHl0aG9uJywgJy1waHQnLCAnMi4wJywgJy1waCcsICc3LjAnLCAnLXRuJywgJzgnLCAnLW1hJywgJzIwMCcsICctaW1hZScsICc8aW5maWxlLm1hZT4nLCAnLW9tYWUnLCAnPG91dGZpbGUubWFlPic=

>  <r_lp_tautomer_probability>  (124) 
0.99995

>  <r_epik_Ionization_Penalty>  (124) 
1.27861

>  <r_epik_Ionization_Penalty_Charging>  (124) 
1.27861

>  <r_epik_Ionization_Penalty_Neutral>  (124) 
2.52248e-09

>  <r_epik_State_Penalty>  (124) 
2.47418

>  <r_epik_Charging_Adjusted_Penalty>  (124) 
3.75279

>  <i_epik_Tot_Q>  (124) 
1

>  <i_epik_Tot_abs_Q>  (124) 
3

>  <s_lp_Force_Field>  (124) 
OPLS3e

>  <r_lp_Energy>  (124) 
23.3635

>  <b_lp_Chiralities_Consistent>  (124) 
1

>  <s_lp_Variant>  (124) 
36:0-4

>  <s_i_glide_gridfile>  (124) 
pfpi4k_grid

>  <i_i_glide_lignum>  (124) 
8

>  <i_i_glide_rotatable_bonds>  (124) 
2

>  <r_i_docking_score>  (124) 
-3.91732

>  <r_i_glide_ligand_efficiency>  (124) 
-0.17806

>  <r_i_glide_ligand_efficiency_sa>  (124) 
-0.498931

>  <r_i_glide_ligand_efficiency_ln>  (124) 
-0.957535

>  <r_i_glide_gscore>  (124) 
-3.91732

>  <r_i_glide_lipo>  (124) 
-0.672234

>  <r_i_glide_hbond>  (124) 
-0.0022762

>  <r_i_glide_metal>  (124) 
-0

>  <r_i_glide_rewards>  (124) 
-1.4357

>  <r_i_glide_evdw>  (124) 
-18.9101

>  <r_i_glide_ecoul>  (124) 
-7.10767

>  <r_i_glide_erotb>  (124) 
0.208592

>  <r_i_glide_esite>  (124) 
-0.00403965

>  <r_i_glide_emodel>  (124) 
-31.6207

>  <r_i_glide_energy>  (124) 
-26.0178

>  <r_i_glide_einternal>  (124) 
0.869831

>  <r_i_glide_intrahb_reward>  (124) 
-0

>  <i_i_glide_confnum>  (124) 
4

>  <i_i_glide_posenum>  (124) 
3

>  <r_i_glide_eff_state_penalty>  (124) 
0

>  <ligand_id>  (124) 
36

>  <original_smiles>  (124) 
CC1(C)C=C2OC(=N)C(C#N)C(c3ccncc3)C2C(=O)C1

>  <smiles>  (124) 
[H][N-][C+]1OC2=C([H])C(C([H])([H])[H])(C([H])([H])[H])C([H])([H])C(=O)C2([H])C([H])(c2c([H])c([H])[n+]([H])c([H])c2[H])C1([H])C#N

$$$$
36:3:1
     RDKit          3D

 40 42  0  0  1  0  0  0  0  0999 V2000
    2.8160   -1.5494   -3.5304 C   0  0  0  0  0  0  0  0  0  0  0  0
    3.5250   -2.6754   -2.7758 C   0  0  0  0  0  0  0  0  0  0  0  0
    3.8839   -3.7938   -3.7599 C   0  0  0  0  0  0  0  0  0  0  0  0
    4.8016   -2.1266   -2.2195 C   0  0  0  0  0  0  0  0  0  0  0  0
    5.2639   -2.4397   -0.9978 C   0  0  0  0  0  0  0  0  0  0  0  0
    6.3994   -1.8368   -0.6436 O   0  0  0  0  0  0  0  0  0  0  0  0
    6.6690   -1.5200    0.6544 C   0  0  0  0  0  0  0  0  0  0  0  0
    7.9903   -1.4118    0.7362 N   0  0  0  0  0  0  0  0  0  0  0  0
    5.9035   -2.1783    1.8209 C   0  0  1  0  0  0  0  0  0  0  0  0
    5.7559   -1.2442    2.9627 C   0  0  0  0  0  0  0  0  0  0  0  0
    5.5523   -0.5183    3.8426 N   0  0  0  0  0  0  0  0  0  0  0  0
    4.5246   -2.7320    1.3919 C   0  0  1  0  0  0  0  0  0  0  0  0
    3.4348   -1.6645    1.5052 C   0  0  0  0  0  0  0  0  0  0  0  0
    2.1856   -2.0270    2.0481 C   0  0  0  0  0  0  0  0  0  0  0  0
    1.1837   -1.0478    2.2129 C   0  0  0  0  0  0  0  0  0  0  0  0
    1.4226    0.2059    1.8153 N   0  0  0  0  0  0  0  0  0  0  0  0
    2.6009    0.6229    1.3309 C   0  0  0  0  0  0  0  0  0  0  0  0
    3.6363   -0.3152    1.1373 C   0  0  0  0  0  0  0  0  0  0  0  0
    4.6531   -3.3869    0.0040 C   0  0  1  0  0  0  0  0  0  0  0  0
    3.3118   -3.9406   -0.4761 C   0  0  0  0  0  0  0  0  0  0  0  0
    2.7722   -4.8757    0.1071 O   0  0  0  0  0  0  0  0  0  0  0  0
    2.6140   -3.1444   -1.5991 C   0  0  0  0  0  0  0  0  0  0  0  0
    1.8824   -1.9308   -3.9274 H   0  0  0  0  0  0  0  0  0  0  0  0
    3.4144   -1.1692   -4.3529 H   0  0  0  0  0  0  0  0  0  0  0  0
    2.6057   -0.7299   -2.8476 H   0  0  0  0  0  0  0  0  0  0  0  0
    2.9567   -4.2159   -4.1423 H   0  0  0  0  0  0  0  0  0  0  0  0
    4.4503   -4.5661   -3.2370 H   0  0  0  0  0  0  0  0  0  0  0  0
    4.4997   -3.4309   -4.5829 H   0  0  0  0  0  0  0  0  0  0  0  0
    5.3402   -1.4226   -2.8408 H   0  0  0  0  0  0  0  0  0  0  0  0
    8.1229   -1.0242    1.6845 H   0  0  0  0  0  0  0  0  0  0  0  0
    4.2729   -3.5188    2.1095 H   0  0  0  0  0  0  0  0  0  0  0  0
    1.9694   -3.0511    2.3197 H   0  0  0  0  0  0  0  0  0  0  0  0
    0.2030   -1.2501    2.6058 H   0  0  0  0  0  0  0  0  0  0  0  0
    2.6402    1.6811    1.1177 H   0  0  0  0  0  0  0  0  0  0  0  0
    4.5738    0.0540    0.7481 H   0  0  0  0  0  0  0  0  0  0  0  0
    5.3434   -4.2264    0.0985 H   0  0  0  0  0  0  0  0  0  0  0  0
    2.2083   -2.2577   -1.0946 H   0  0  0  0  0  0  0  0  0  0  0  0
    1.7577   -3.6902   -1.9721 H   0  0  0  0  0  0  0  0  0  0  0  0
    6.4978   -3.0342    2.1494 H   0  0  0  0  0  0  0  0  0  0  0  0
    0.6792    0.8952    1.8520 H   0  0  0  0  0  0  0  0  0  0  0  0
  1  2  1  0
  1 23  1  0
  1 24  1  0
  1 25  1  0
  2 22  1  0
  2  3  1  0
  2  4  1  0
  3 26  1  0
  3 27  1  0
  3 28  1  0
  4  5  2  0
  4 29  1  0
  5 19  1  0
  5  6  1  0
  6  7  1  0
  7  8  1  0
  7  9  1  0
  8 30  1  0
  9 10  1  0
  9 12  1  0
  9 39  1  1
 10 11  3  0
 12 13  1  0
 12 19  1  0
 12 31  1  1
 13 18  1  0
 13 14  2  0
 14 15  1  0
 14 32  1  0
 15 16  2  0
 15 33  1  0
 16 17  1  0
 16 40  1  0
 17 18  2  0
 17 34  1  0
 18 35  1  0
 19 20  1  0
 19 36  1  1
 20 21  2  0
 20 22  1  0
 22 37  1  0
 22 38  1  0
M  CHG  3   7   1   8  -1  16   1
M  END
>  <i_m_ct_stereo_status>  (125) 
1

>  <s_m_source_file>  (125) 
/var/tmp/pbs.5076255.sched01/tmp2pvlagj1/41_74nrqse.sdf

>  <i_m_source_file_index>  (125) 
8

>  <i_lp_mmshare_version>  (125) 
48012

>  <i_f3d_flags>  (125) 
0

>  <s_epik_input>  (125) 
W0NIM11DKFtDSDNdKShbQ0hdPTEpW0NIMl1DKD1PKVtDQEBIXShDMTIpW0NAQEhdKFtDQEhdKEMjTilDKFxPMik9TlxbSF0pYzNbY0hdW2NIXW5bY0hdW2NIXTM=

>  <s_epik_cmdline>  (125) 
J2VwaWtfcHl0aG9uJywgJy1waHQnLCAnMi4wJywgJy1waCcsICc3LjAnLCAnLXRuJywgJzgnLCAnLW1hJywgJzIwMCcsICctaW1hZScsICc8aW5maWxlLm1hZT4nLCAnLW9tYWUnLCAnPG91dGZpbGUubWFlPic=

>  <r_lp_tautomer_probability>  (125) 
0.99995

>  <r_epik_Ionization_Penalty>  (125) 
1.27861

>  <r_epik_Ionization_Penalty_Charging>  (125) 
1.27861

>  <r_epik_Ionization_Penalty_Neutral>  (125) 
2.52248e-09

>  <r_epik_State_Penalty>  (125) 
2.47418

>  <r_epik_Charging_Adjusted_Penalty>  (125) 
3.75279

>  <i_epik_Tot_Q>  (125) 
1

>  <i_epik_Tot_abs_Q>  (125) 
3

>  <s_lp_Force_Field>  (125) 
OPLS3e

>  <r_lp_Energy>  (125) 
23.3635

>  <b_lp_Chiralities_Consistent>  (125) 
1

>  <s_lp_Variant>  (125) 
36:0-4

>  <s_i_glide_gridfile>  (125) 
pfpi4k_grid

>  <i_i_glide_lignum>  (125) 
8

>  <i_i_glide_rotatable_bonds>  (125) 
2

>  <r_i_docking_score>  (125) 
-3.54162

>  <r_i_glide_ligand_efficiency>  (125) 
-0.160983

>  <r_i_glide_ligand_efficiency_sa>  (125) 
-0.45108

>  <r_i_glide_ligand_efficiency_ln>  (125) 
-0.8657

>  <r_i_glide_gscore>  (125) 
-3.54162

>  <r_i_glide_lipo>  (125) 
-0.372501

>  <r_i_glide_hbond>  (125) 
-0.147653

>  <r_i_glide_metal>  (125) 
-0

>  <r_i_glide_rewards>  (125) 
-1.49631

>  <r_i_glide_evdw>  (125) 
-13.9594

>  <r_i_glide_ecoul>  (125) 
-6.27977

>  <r_i_glide_erotb>  (125) 
0.208592

>  <r_i_glide_esite>  (125) 
-0.093804

>  <r_i_glide_emodel>  (125) 
-24.6354

>  <r_i_glide_energy>  (125) 
-20.2392

>  <r_i_glide_einternal>  (125) 
0.756822

>  <r_i_glide_intrahb_reward>  (125) 
-0

>  <i_i_glide_confnum>  (125) 
1

>  <i_i_glide_posenum>  (125) 
16

>  <r_i_glide_eff_state_penalty>  (125) 
0

>  <ligand_id>  (125) 
36

>  <original_smiles>  (125) 
CC1(C)C=C2OC(=N)C(C#N)C(c3ccncc3)C2C(=O)C1

>  <smiles>  (125) 
[H][N-][C+]1OC2=C([H])C(C([H])([H])[H])(C([H])([H])[H])C([H])([H])C(=O)C2([H])C([H])(c2c([H])c([H])[n+]([H])c([H])c2[H])C1([H])C#N

$$$$
36:3:2
     RDKit          3D

 40 42  0  0  1  0  0  0  0  0999 V2000
    4.5498   -0.9462   -2.0873 C   0  0  0  0  0  0  0  0  0  0  0  0
    4.3041   -2.4547   -1.9311 C   0  0  0  0  0  0  0  0  0  0  0  0
    4.0565   -3.0949   -3.3086 C   0  0  0  0  0  0  0  0  0  0  0  0
    5.5405   -3.0965   -1.3475 C   0  0  0  0  0  0  0  0  0  0  0  0
    5.5124   -4.0546   -0.4068 C   0  0  0  0  0  0  0  0  0  0  0  0
    6.7053   -4.4741    0.0933 O   0  0  0  0  0  0  0  0  0  0  0  0
    6.8085   -4.9945    1.3548 C   0  0  0  0  0  0  0  0  0  0  0  0
    8.0208   -5.4844    1.5852 N   0  0  0  0  0  0  0  0  0  0  0  0
    5.5843   -5.3725    2.1925 C   0  0  1  0  0  0  0  0  0  0  0  0
    5.7941   -5.2157    3.6436 C   0  0  0  0  0  0  0  0  0  0  0  0
    5.9455   -5.0843    4.7854 N   0  0  0  0  0  0  0  0  0  0  0  0
    4.2851   -4.6950    1.7185 C   0  0  1  0  0  0  0  0  0  0  0  0
    4.0453   -3.3121    2.3474 C   0  0  0  0  0  0  0  0  0  0  0  0
    5.0564   -2.3224    2.3670 C   0  0  0  0  0  0  0  0  0  0  0  0
    4.8015   -1.0704    2.9591 C   0  0  0  0  0  0  0  0  0  0  0  0
    3.5921   -0.8253    3.5009 N   0  0  0  0  0  0  0  0  0  0  0  0
    2.5906   -1.7305    3.5050 C   0  0  0  0  0  0  0  0  0  0  0  0
    2.7953   -3.0002    2.9259 C   0  0  0  0  0  0  0  0  0  0  0  0
    4.2534   -4.6863    0.1821 C   0  0  1  0  0  0  0  0  0  0  0  0
    2.9821   -4.0640   -0.3919 C   0  0  0  0  0  0  0  0  0  0  0  0
    1.9138   -4.6610   -0.3123 O   0  0  0  0  0  0  0  0  0  0  0  0
    3.1001   -2.6570   -0.9880 C   0  0  0  0  0  0  0  0  0  0  0  0
    3.6837   -0.4450   -2.5201 H   0  0  0  0  0  0  0  0  0  0  0  0
    5.4103   -0.7433   -2.7198 H   0  0  0  0  0  0  0  0  0  0  0  0
    4.7499   -0.4827   -1.1222 H   0  0  0  0  0  0  0  0  0  0  0  0
    3.1610   -2.6938   -3.7896 H   0  0  0  0  0  0  0  0  0  0  0  0
    3.9269   -4.1770   -3.2150 H   0  0  0  0  0  0  0  0  0  0  0  0
    4.9139   -2.9400   -3.9692 H   0  0  0  0  0  0  0  0  0  0  0  0
    6.4935   -2.7095   -1.6858 H   0  0  0  0  0  0  0  0  0  0  0  0
    7.9940   -5.9669    2.4919 H   0  0  0  0  0  0  0  0  0  0  0  0
    3.4662   -5.3370    2.0531 H   0  0  0  0  0  0  0  0  0  0  0  0
    6.0358   -2.4849    1.9488 H   0  0  0  0  0  0  0  0  0  0  0  0
    5.5329   -0.2767    3.0226 H   0  0  0  0  0  0  0  0  0  0  0  0
    1.6661   -1.4176    3.9701 H   0  0  0  0  0  0  0  0  0  0  0  0
    1.9957   -3.7229    2.9253 H   0  0  0  0  0  0  0  0  0  0  0  0
    4.2536   -5.7241   -0.1631 H   0  0  0  0  0  0  0  0  0  0  0  0
    3.1562   -1.9512   -0.1564 H   0  0  0  0  0  0  0  0  0  0  0  0
    2.2108   -2.4050   -1.5480 H   0  0  0  0  0  0  0  0  0  0  0  0
    5.4800   -6.4439    2.0255 H   0  0  0  0  0  0  0  0  0  0  0  0
    3.4277    0.0861    3.9327 H   0  0  0  0  0  0  0  0  0  0  0  0
  1  2  1  0
  1 23  1  0
  1 24  1  0
  1 25  1  0
  2 22  1  0
  2  3  1  0
  2  4  1  0
  3 26  1  0
  3 27  1  0
  3 28  1  0
  4  5  2  0
  4 29  1  0
  5 19  1  0
  5  6  1  0
  6  7  1  0
  7  8  1  0
  7  9  1  0
  8 30  1  0
  9 10  1  0
  9 12  1  0
  9 39  1  1
 10 11  3  0
 12 13  1  0
 12 19  1  0
 12 31  1  1
 13 18  1  0
 13 14  2  0
 14 15  1  0
 14 32  1  0
 15 16  2  0
 15 33  1  0
 16 17  1  0
 16 40  1  0
 17 18  2  0
 17 34  1  0
 18 35  1  0
 19 20  1  0
 19 36  1  6
 20 21  2  0
 20 22  1  0
 22 37  1  0
 22 38  1  0
M  CHG  3   7   1   8  -1  16   1
M  END
>  <i_m_ct_stereo_status>  (126) 
1

>  <s_m_source_file>  (126) 
/var/tmp/pbs.5076255.sched01/tmp2pvlagj1/41_74nrqse.sdf

>  <i_m_source_file_index>  (126) 
8

>  <i_lp_mmshare_version>  (126) 
48012

>  <i_f3d_flags>  (126) 
0

>  <s_epik_input>  (126) 
W0NIM11DKFtDSDNdKShbQ0hdPTEpW0NIMl1DKD1PKVtDQEBIXShDMTIpW0NAQEhdKFtDQEhdKEMjTilDKFxPMik9TlxbSF0pYzNbY0hdW2NIXW5bY0hdW2NIXTM=

>  <s_epik_cmdline>  (126) 
J2VwaWtfcHl0aG9uJywgJy1waHQnLCAnMi4wJywgJy1waCcsICc3LjAnLCAnLXRuJywgJzgnLCAnLW1hJywgJzIwMCcsICctaW1hZScsICc8aW5maWxlLm1hZT4nLCAnLW9tYWUnLCAnPG91dGZpbGUubWFlPic=

>  <r_lp_tautomer_probability>  (126) 
0.99995

>  <r_epik_Ionization_Penalty>  (126) 
1.27861

>  <r_epik_Ionization_Penalty_Charging>  (126) 
1.27861

>  <r_epik_Ionization_Penalty_Neutral>  (126) 
2.52248e-09

>  <r_epik_State_Penalty>  (126) 
2.47418

>  <r_epik_Charging_Adjusted_Penalty>  (126) 
3.75279

>  <i_epik_Tot_Q>  (126) 
1

>  <i_epik_Tot_abs_Q>  (126) 
3

>  <s_lp_Force_Field>  (126) 
OPLS3e

>  <r_lp_Energy>  (126) 
23.3635

>  <b_lp_Chiralities_Consistent>  (126) 
1

>  <s_lp_Variant>  (126) 
36:0-4

>  <s_i_glide_gridfile>  (126) 
pfpi4k_grid

>  <i_i_glide_lignum>  (126) 
8

>  <i_i_glide_rotatable_bonds>  (126) 
2

>  <r_i_docking_score>  (126) 
-3.50949

>  <r_i_glide_ligand_efficiency>  (126) 
-0.159522

>  <r_i_glide_ligand_efficiency_sa>  (126) 
-0.446988

>  <r_i_glide_ligand_efficiency_ln>  (126) 
-0.857848

>  <r_i_glide_gscore>  (126) 
-3.50949

>  <r_i_glide_lipo>  (126) 
-0.535137

>  <r_i_glide_hbond>  (126) 
-0.0177853

>  <r_i_glide_metal>  (126) 
-0

>  <r_i_glide_rewards>  (126) 
-1.39367

>  <r_i_glide_evdw>  (126) 
-21.2072

>  <r_i_glide_ecoul>  (126) 
-4.53691

>  <r_i_glide_erotb>  (126) 
0.208592

>  <r_i_glide_esite>  (126) 
-0.0305924

>  <r_i_glide_emodel>  (126) 
-30.7285

>  <r_i_glide_energy>  (126) 
-25.7442

>  <r_i_glide_einternal>  (126) 
0.646856

>  <r_i_glide_intrahb_reward>  (126) 
-0

>  <i_i_glide_confnum>  (126) 
4

>  <i_i_glide_posenum>  (126) 
14

>  <r_i_glide_eff_state_penalty>  (126) 
0

>  <ligand_id>  (126) 
36

>  <original_smiles>  (126) 
CC1(C)C=C2OC(=N)C(C#N)C(c3ccncc3)C2C(=O)C1

>  <smiles>  (126) 
[H][N-][C+]1OC2=C([H])C(C([H])([H])[H])(C([H])([H])[H])C([H])([H])C(=O)C2([H])C([H])(c2c([H])c([H])[n+]([H])c([H])c2[H])C1([H])C#N

$$$$
37:0:0
     RDKit          3D

 50 54  0  0  1  0  0  0  0  0999 V2000
    3.8582   -6.6857    4.0196 C   0  0  0  0  0  0  0  0  0  0  0  0
    3.0324   -5.4390    3.7183 C   0  0  0  0  0  0  0  0  0  0  0  0
    1.8249   -5.4369    3.9952 O   0  0  0  0  0  0  0  0  0  0  0  0
    3.6459   -4.3898    3.1630 N   0  0  0  0  0  0  0  0  0  0  0  0
    3.0344   -3.1327    2.7698 C   0  0  1  0  0  0  0  0  0  0  0  0
    4.0650   -2.0702    3.1678 C   0  0  0  0  0  0  0  0  0  0  0  0
    5.3950   -2.8273    3.1316 C   0  0  0  0  0  0  0  0  0  0  0  0
    5.0264   -4.2589    2.7088 C   0  0  2  0  0  0  0  0  0  0  0  0
    5.0319   -4.4262    1.1749 C   0  0  0  0  0  0  0  0  0  0  0  0
    4.1138   -3.4529    0.5065 N   0  0  1  0  0  0  0  0  0  0  0  0
    3.9324   -3.7286   -0.9506 C   0  0  2  0  0  0  0  0  0  0  0  0
    5.2586   -3.5674   -1.7486 C   0  0  2  0  0  0  0  0  0  0  0  0
    5.7729   -2.1107   -1.6690 C   0  0  0  0  0  0  0  0  0  0  0  0
    4.7109   -1.1748   -2.2837 C   0  0  1  0  0  0  0  0  0  0  0  0
    4.3974   -1.5414   -3.7436 C   0  0  0  0  0  0  0  0  0  0  0  0
    3.9341   -2.9978   -3.8379 C   0  0  1  0  0  0  0  0  0  0  0  0
    5.0085   -3.9089   -3.2336 C   0  0  0  0  0  0  0  0  0  0  0  0
    2.6267   -3.1329   -3.0748 C   0  0  0  0  0  0  0  0  0  0  0  0
    2.8970   -2.7806   -1.6004 C   0  0  2  0  0  0  0  0  0  0  0  0
    3.4161   -1.3254   -1.5019 C   0  0  0  0  0  0  0  0  0  0  0  0
    2.8365   -3.1985    1.2510 C   0  0  0  0  0  0  0  0  0  0  0  0
    4.3708   -7.0333    3.1219 H   0  0  0  0  0  0  0  0  0  0  0  0
    3.2267   -7.4945    4.3863 H   0  0  0  0  0  0  0  0  0  0  0  0
    4.6083   -6.4608    4.7783 H   0  0  0  0  0  0  0  0  0  0  0  0
    2.0764   -2.9541    3.2564 H   0  0  0  0  0  0  0  0  0  0  0  0
    4.0524   -1.1990    2.5087 H   0  0  0  0  0  0  0  0  0  0  0  0
    3.8668   -1.7292    4.1849 H   0  0  0  0  0  0  0  0  0  0  0  0
    6.1357   -2.3674    2.4713 H   0  0  0  0  0  0  0  0  0  0  0  0
    5.7990   -2.8520    4.1445 H   0  0  0  0  0  0  0  0  0  0  0  0
    5.7101   -4.9798    3.1589 H   0  0  0  0  0  0  0  0  0  0  0  0
    6.0527   -4.2937    0.8209 H   0  0  0  0  0  0  0  0  0  0  0  0
    4.7333   -5.4437    0.9304 H   0  0  0  0  0  0  0  0  0  0  0  0
    3.5637   -4.7467   -1.0498 H   0  0  0  0  0  0  0  0  0  0  0  0
    6.0247   -4.2546   -1.3850 H   0  0  0  0  0  0  0  0  0  0  0  0
    5.9750   -1.8279   -0.6320 H   0  0  0  0  0  0  0  0  0  0  0  0
    6.7198   -2.0317   -2.2008 H   0  0  0  0  0  0  0  0  0  0  0  0
    5.0402   -0.1431   -2.2223 H   0  0  0  0  0  0  0  0  0  0  0  0
    3.6782   -0.8584   -4.1925 H   0  0  0  0  0  0  0  0  0  0  0  0
    5.2852   -1.4445   -4.3229 H   0  0  0  0  0  0  0  0  0  0  0  0
    3.7575   -3.2902   -4.8647 H   0  0  0  0  0  0  0  0  0  0  0  0
    5.9435   -3.8234   -3.7917 H   0  0  0  0  0  0  0  0  0  0  0  0
    4.7094   -4.9456   -3.3328 H   0  0  0  0  0  0  0  0  0  0  0  0
    1.8682   -2.4703   -3.4949 H   0  0  0  0  0  0  0  0  0  0  0  0
    2.2155   -4.1374   -3.1707 H   0  0  0  0  0  0  0  0  0  0  0  0
    1.9114   -2.8927   -1.1513 H   0  0  0  0  0  0  0  0  0  0  0  0
    3.5749   -1.0002   -0.4722 H   0  0  0  0  0  0  0  0  0  0  0  0
    2.6422   -0.6842   -1.9362 H   0  0  0  0  0  0  0  0  0  0  0  0
    2.1295   -3.9934    1.0285 H   0  0  0  0  0  0  0  0  0  0  0  0
    2.3764   -2.2489    0.9747 H   0  0  0  0  0  0  0  0  0  0  0  0
    4.5932   -2.5675    0.5509 H   0  0  0  0  0  0  0  0  0  0  0  0
  1  2  1  0
  1 22  1  0
  1 23  1  0
  1 24  1  0
  2  3  2  0
  2  4  1  0
  4  8  1  0
  4  5  1  0
  5 21  1  0
  5  6  1  0
  5 25  1  1
  6  7  1  0
  6 26  1  0
  6 27  1  0
  7  8  1  0
  7 28  1  0
  7 29  1  0
  8  9  1  0
  8 30  1  1
  9 10  1  0
  9 31  1  0
  9 32  1  0
 10 11  1  0
 10 21  1  0
 10 50  1  6
 11 19  1  0
 11 12  1  0
 11 33  1  1
 12 17  1  0
 12 13  1  0
 12 34  1  1
 13 14  1  0
 13 35  1  0
 13 36  1  0
 14 20  1  0
 14 15  1  0
 14 37  1  6
 15 16  1  0
 15 38  1  0
 15 39  1  0
 16 17  1  0
 16 18  1  0
 16 40  1  6
 17 41  1  0
 17 42  1  0
 18 19  1  0
 18 43  1  0
 18 44  1  0
 19 20  1  0
 19 45  1  1
 20 46  1  0
 20 47  1  0
 21 48  1  0
 21 49  1  0
M  CHG  1  10   1
M  END
>  <i_m_ct_stereo_status>  (127) 
1

>  <s_m_source_file>  (127) 
/var/tmp/pbs.5076255.sched01/tmp2pvlagj1/41_74nrqse.sdf

>  <i_m_source_file_index>  (127) 
9

>  <i_lp_mmshare_version>  (127) 
48012

>  <i_f3d_flags>  (127) 
0

>  <s_epik_input>  (127) 
W0NIM11DKD1PKU4oW0NAQEhdMTIpW0NASF0oW0NIMl1bQ0gyXTEpW0NIMl1OKFtDSDJdMilbQ0BIXShbQ0BIXTM0KVtDQEBIXTVbQ0gyXVtDQEhdKFtDSDJdNClbQ0gyXVtDQEhdKFtDSDJdMylbQ0gyXTU=

>  <s_epik_cmdline>  (127) 
J2VwaWtfcHl0aG9uJywgJy1waHQnLCAnMi4wJywgJy1waCcsICc3LjAnLCAnLXRuJywgJzgnLCAnLW1hJywgJzIwMCcsICctaW1hZScsICc8aW5maWxlLm1hZT4nLCAnLW9tYWUnLCAnPG91dGZpbGUubWFlPic=

>  <r_epik_Ionization_Penalty>  (127) 
0.000744136

>  <r_epik_Ionization_Penalty_Charging>  (127) 
0.000744128

>  <r_epik_Ionization_Penalty_Neutral>  (127) 
8.01304e-09

>  <r_epik_State_Penalty>  (127) 
0.000475513

>  <r_epik_Charging_Adjusted_Penalty>  (127) 
0.00121964

>  <i_epik_Tot_Q>  (127) 
1

>  <i_epik_Tot_abs_Q>  (127) 
1

>  <s_lp_Force_Field>  (127) 
OPLS3e

>  <r_lp_Energy>  (127) 
28.9068

>  <b_lp_Chiralities_Consistent>  (127) 
1

>  <s_lp_Variant>  (127) 
37:0-1

>  <s_i_glide_gridfile>  (127) 
pfpi4k_grid

>  <i_i_glide_lignum>  (127) 
9

>  <i_i_glide_rotatable_bonds>  (127) 
2

>  <r_i_docking_score>  (127) 
-2.96605

>  <r_i_glide_ligand_efficiency>  (127) 
-0.141241

>  <r_i_glide_ligand_efficiency_sa>  (127) 
-0.389672

>  <r_i_glide_ligand_efficiency_ln>  (127) 
-0.73335

>  <r_i_glide_gscore>  (127) 
-2.96605

>  <r_i_glide_lipo>  (127) 
-0.535385

>  <r_i_glide_hbond>  (127) 
0

>  <r_i_glide_metal>  (127) 
-0

>  <r_i_glide_rewards>  (127) 
-1.43567

>  <r_i_glide_evdw>  (127) 
-15.0331

>  <r_i_glide_ecoul>  (127) 
-3.07133

>  <r_i_glide_erotb>  (127) 
0.217359

>  <r_i_glide_esite>  (127) 
-6.4219e-06

>  <r_i_glide_emodel>  (127) 
-20.1994

>  <r_i_glide_energy>  (127) 
-18.1044

>  <r_i_glide_einternal>  (127) 
0.62871

>  <r_i_glide_intrahb_reward>  (127) 
-0

>  <i_i_glide_confnum>  (127) 
2

>  <i_i_glide_posenum>  (127) 
4

>  <r_i_glide_eff_state_penalty>  (127) 
0

>  <ligand_id>  (127) 
37

>  <original_smiles>  (127) 
CC(=O)N1C2CCC1CN(C1C3CC4CC(C3)CC1C4)C2

>  <smiles>  (127) 
[H]C([H])([H])C(=O)N1C2([H])C([H])([H])C([H])([H])C1([H])C([H])([H])[N+]([H])(C1([H])C3([H])C([H])([H])C4([H])C([H])([H])C([H])(C3([H])[H])C([H])([H])C1([H])C4([H])[H])C2([H])[H]

$$$$
37:0:1
     RDKit          3D

 50 54  0  0  1  0  0  0  0  0999 V2000
    1.2064   -4.5727    4.7934 C   0  0  0  0  0  0  0  0  0  0  0  0
    2.0303   -3.2950    4.6949 C   0  0  0  0  0  0  0  0  0  0  0  0
    1.6429   -2.2856    5.2963 O   0  0  0  0  0  0  0  0  0  0  0  0
    3.1426   -3.3060    3.9403 N   0  0  0  0  0  0  0  0  0  0  0  0
    3.9988   -2.1802    3.6106 C   0  0  1  0  0  0  0  0  0  0  0  0
    5.4059   -2.7802    3.6920 C   0  0  0  0  0  0  0  0  0  0  0  0
    5.2167   -4.2763    3.3934 C   0  0  0  0  0  0  0  0  0  0  0  0
    3.7037   -4.4144    3.1828 C   0  0  2  0  0  0  0  0  0  0  0  0
    3.3095   -4.1888    1.7219 C   0  0  0  0  0  0  0  0  0  0  0  0
    3.7780   -2.8651    1.1990 N   0  0  1  0  0  0  0  0  0  0  0  0
    3.2503   -2.5284   -0.1610 C   0  0  2  0  0  0  0  0  0  0  0  0
    3.2056   -3.7432   -1.1171 C   0  0  2  0  0  0  0  0  0  0  0  0
    4.6612   -4.2341   -1.3480 C   0  0  0  0  0  0  0  0  0  0  0  0
    5.4806   -3.1361   -2.0230 C   0  0  1  0  0  0  0  0  0  0  0  0
    4.8091   -2.8011   -3.3727 C   0  0  0  0  0  0  0  0  0  0  0  0
    3.3866   -2.2731   -3.1476 C   0  0  1  0  0  0  0  0  0  0  0  0
    2.5311   -3.3337   -2.4588 C   0  0  0  0  0  0  0  0  0  0  0  0
    3.4605   -1.0520   -2.2381 C   0  0  0  0  0  0  0  0  0  0  0  0
    4.0822   -1.4095   -0.8638 C   0  0  2  0  0  0  0  0  0  0  0  0
    5.5228   -1.9038   -1.0992 C   0  0  0  0  0  0  0  0  0  0  0  0
    3.6499   -1.7329    2.1753 C   0  0  0  0  0  0  0  0  0  0  0  0
    0.9339   -4.9326    3.8013 H   0  0  0  0  0  0  0  0  0  0  0  0
    0.2897   -4.3979    5.3532 H   0  0  0  0  0  0  0  0  0  0  0  0
    1.7744   -5.3541    5.2986 H   0  0  0  0  0  0  0  0  0  0  0  0
    3.8875   -1.3460    4.3048 H   0  0  0  0  0  0  0  0  0  0  0  0
    6.0983   -2.2967    2.9969 H   0  0  0  0  0  0  0  0  0  0  0  0
    5.7892   -2.6631    4.7079 H   0  0  0  0  0  0  0  0  0  0  0  0
    5.8040   -4.6164    2.5349 H   0  0  0  0  0  0  0  0  0  0  0  0
    5.5253   -4.8672    4.2609 H   0  0  0  0  0  0  0  0  0  0  0  0
    3.3653   -5.4013    3.4970 H   0  0  0  0  0  0  0  0  0  0  0  0
    3.7408   -5.0234    1.1686 H   0  0  0  0  0  0  0  0  0  0  0  0
    2.2257   -4.2543    1.6377 H   0  0  0  0  0  0  0  0  0  0  0  0
    2.2204   -2.2111    0.0084 H   0  0  0  0  0  0  0  0  0  0  0  0
    2.5751   -4.5477   -0.7423 H   0  0  0  0  0  0  0  0  0  0  0  0
    5.1704   -4.5406   -0.4356 H   0  0  0  0  0  0  0  0  0  0  0  0
    4.6575   -5.1055   -1.9844 H   0  0  0  0  0  0  0  0  0  0  0  0
    6.4943   -3.4964   -2.2041 H   0  0  0  0  0  0  0  0  0  0  0  0
    5.3855   -2.0367   -3.8848 H   0  0  0  0  0  0  0  0  0  0  0  0
    4.7852   -3.6851   -4.0146 H   0  0  0  0  0  0  0  0  0  0  0  0
    2.9274   -1.9954   -4.0966 H   0  0  0  0  0  0  0  0  0  0  0  0
    2.4172   -4.1797   -3.1321 H   0  0  0  0  0  0  0  0  0  0  0  0
    1.5121   -2.9773   -2.2868 H   0  0  0  0  0  0  0  0  0  0  0  0
    4.0313   -0.2528   -2.7139 H   0  0  0  0  0  0  0  0  0  0  0  0
    2.4598   -0.6575   -2.1146 H   0  0  0  0  0  0  0  0  0  0  0  0
    4.0966   -0.4896   -0.2794 H   0  0  0  0  0  0  0  0  0  0  0  0
    6.0078   -2.1596   -0.1567 H   0  0  0  0  0  0  0  0  0  0  0  0
    6.1198   -1.1146   -1.5482 H   0  0  0  0  0  0  0  0  0  0  0  0
    2.6338   -1.3401    2.1732 H   0  0  0  0  0  0  0  0  0  0  0  0
    4.3113   -0.9100    1.9013 H   0  0  0  0  0  0  0  0  0  0  0  0
    4.7676   -2.9739    1.0652 H   0  0  0  0  0  0  0  0  0  0  0  0
  1  2  1  0
  1 22  1  0
  1 23  1  0
  1 24  1  0
  2  3  2  0
  2  4  1  0
  4  8  1  0
  4  5  1  0
  5 21  1  0
  5  6  1  0
  5 25  1  1
  6  7  1  0
  6 26  1  0
  6 27  1  0
  7  8  1  0
  7 28  1  0
  7 29  1  0
  8  9  1  0
  8 30  1  1
  9 10  1  0
  9 31  1  0
  9 32  1  0
 10 11  1  0
 10 21  1  0
 10 50  1  6
 11 19  1  0
 11 12  1  0
 11 33  1  1
 12 17  1  0
 12 13  1  0
 12 34  1  1
 13 14  1  0
 13 35  1  0
 13 36  1  0
 14 20  1  0
 14 15  1  0
 14 37  1  6
 15 16  1  0
 15 38  1  0
 15 39  1  0
 16 17  1  0
 16 18  1  0
 16 40  1  6
 17 41  1  0
 17 42  1  0
 18 19  1  0
 18 43  1  0
 18 44  1  0
 19 20  1  0
 19 45  1  1
 20 46  1  0
 20 47  1  0
 21 48  1  0
 21 49  1  0
M  CHG  1  10   1
M  END
>  <i_m_ct_stereo_status>  (128) 
1

>  <s_m_source_file>  (128) 
/var/tmp/pbs.5076255.sched01/tmp2pvlagj1/41_74nrqse.sdf

>  <i_m_source_file_index>  (128) 
9

>  <i_lp_mmshare_version>  (128) 
48012

>  <i_f3d_flags>  (128) 
0

>  <s_epik_input>  (128) 
W0NIM11DKD1PKU4oW0NAQEhdMTIpW0NASF0oW0NIMl1bQ0gyXTEpW0NIMl1OKFtDSDJdMilbQ0BIXShbQ0BIXTM0KVtDQEBIXTVbQ0gyXVtDQEhdKFtDSDJdNClbQ0gyXVtDQEhdKFtDSDJdMylbQ0gyXTU=

>  <s_epik_cmdline>  (128) 
J2VwaWtfcHl0aG9uJywgJy1waHQnLCAnMi4wJywgJy1waCcsICc3LjAnLCAnLXRuJywgJzgnLCAnLW1hJywgJzIwMCcsICctaW1hZScsICc8aW5maWxlLm1hZT4nLCAnLW9tYWUnLCAnPG91dGZpbGUubWFlPic=

>  <r_epik_Ionization_Penalty>  (128) 
0.000744136

>  <r_epik_Ionization_Penalty_Charging>  (128) 
0.000744128

>  <r_epik_Ionization_Penalty_Neutral>  (128) 
8.01304e-09

>  <r_epik_State_Penalty>  (128) 
0.000475513

>  <r_epik_Charging_Adjusted_Penalty>  (128) 
0.00121964

>  <i_epik_Tot_Q>  (128) 
1

>  <i_epik_Tot_abs_Q>  (128) 
1

>  <s_lp_Force_Field>  (128) 
OPLS3e

>  <r_lp_Energy>  (128) 
28.9068

>  <b_lp_Chiralities_Consistent>  (128) 
1

>  <s_lp_Variant>  (128) 
37:0-1

>  <s_i_glide_gridfile>  (128) 
pfpi4k_grid

>  <i_i_glide_lignum>  (128) 
9

>  <i_i_glide_rotatable_bonds>  (128) 
2

>  <r_i_docking_score>  (128) 
-2.95768

>  <r_i_glide_ligand_efficiency>  (128) 
-0.140842

>  <r_i_glide_ligand_efficiency_sa>  (128) 
-0.388572

>  <r_i_glide_ligand_efficiency_ln>  (128) 
-0.731279

>  <r_i_glide_gscore>  (128) 
-2.95768

>  <r_i_glide_lipo>  (128) 
-0.538538

>  <r_i_glide_hbond>  (128) 
0

>  <r_i_glide_metal>  (128) 
-0

>  <r_i_glide_rewards>  (128) 
-1.43754

>  <r_i_glide_evdw>  (128) 
-14.4647

>  <r_i_glide_ecoul>  (128) 
-3.14993

>  <r_i_glide_erotb>  (128) 
0.217359

>  <r_i_glide_esite>  (128) 
-0.00323203

>  <r_i_glide_emodel>  (128) 
-19.4804

>  <r_i_glide_energy>  (128) 
-17.6146

>  <r_i_glide_einternal>  (128) 
1.05168

>  <r_i_glide_intrahb_reward>  (128) 
-0

>  <i_i_glide_confnum>  (128) 
2

>  <i_i_glide_posenum>  (128) 
9

>  <r_i_glide_eff_state_penalty>  (128) 
0

>  <ligand_id>  (128) 
37

>  <original_smiles>  (128) 
CC(=O)N1C2CCC1CN(C1C3CC4CC(C3)CC1C4)C2

>  <smiles>  (128) 
[H]C([H])([H])C(=O)N1C2([H])C([H])([H])C([H])([H])C1([H])C([H])([H])[N+]([H])(C1([H])C3([H])C([H])([H])C4([H])C([H])([H])C([H])(C3([H])[H])C([H])([H])C1([H])C4([H])[H])C2([H])[H]

$$$$
37:0:2
     RDKit          3D

 50 54  0  0  1  0  0  0  0  0999 V2000
    2.0065   -2.5878    5.1988 C   0  0  0  0  0  0  0  0  0  0  0  0
    2.3672   -3.7355    4.2679 C   0  0  0  0  0  0  0  0  0  0  0  0
    1.6984   -4.7744    4.2947 O   0  0  0  0  0  0  0  0  0  0  0  0
    3.4203   -3.5739    3.4500 N   0  0  0  0  0  0  0  0  0  0  0  0
    4.1788   -2.3594    3.1916 C   0  0  1  0  0  0  0  0  0  0  0  0
    5.5956   -2.8840    3.1198 C   0  0  0  0  0  0  0  0  0  0  0  0
    5.4999   -4.3567    2.6944 C   0  0  0  0  0  0  0  0  0  0  0  0
    3.9917   -4.5671    2.5590 C   0  0  2  0  0  0  0  0  0  0  0  0
    3.5106   -4.2146    1.1532 C   0  0  0  0  0  0  0  0  0  0  0  0
    3.8841   -2.8155    0.7514 N   0  0  1  0  0  0  0  0  0  0  0  0
    3.2472   -2.3705   -0.5262 C   0  0  2  0  0  0  0  0  0  0  0  0
    3.2084   -3.4637   -1.5967 C   0  0  2  0  0  0  0  0  0  0  0  0
    4.6545   -3.8727   -1.9802 C   0  0  0  0  0  0  0  0  0  0  0  0
    5.3770   -2.6728   -2.5809 C   0  0  1  0  0  0  0  0  0  0  0  0
    4.5892   -2.2478   -3.8398 C   0  0  0  0  0  0  0  0  0  0  0  0
    3.1757   -1.8319   -3.4773 C   0  0  1  0  0  0  0  0  0  0  0  0
    2.4381   -3.0120   -2.8502 C   0  0  0  0  0  0  0  0  0  0  0  0
    3.2701   -0.6868   -2.4738 C   0  0  0  0  0  0  0  0  0  0  0  0
    3.9774   -1.1440   -1.1644 C   0  0  2  0  0  0  0  0  0  0  0  0
    5.4172   -1.5474   -1.5311 C   0  0  0  0  0  0  0  0  0  0  0  0
    3.7340   -1.7978    1.8364 C   0  0  0  0  0  0  0  0  0  0  0  0
    2.8840   -2.2732    5.7639 H   0  0  0  0  0  0  0  0  0  0  0  0
    1.2401   -2.8836    5.9110 H   0  0  0  0  0  0  0  0  0  0  0  0
    1.6488   -1.7369    4.6204 H   0  0  0  0  0  0  0  0  0  0  0  0
    4.1179   -1.5877    3.9605 H   0  0  0  0  0  0  0  0  0  0  0  0
    6.2401   -2.2895    2.4645 H   0  0  0  0  0  0  0  0  0  0  0  0
    5.9880   -2.8511    4.1379 H   0  0  0  0  0  0  0  0  0  0  0  0
    6.0591   -4.5676    1.7775 H   0  0  0  0  0  0  0  0  0  0  0  0
    5.9067   -5.0000    3.4828 H   0  0  0  0  0  0  0  0  0  0  0  0
    3.7128   -5.5917    2.8098 H   0  0  0  0  0  0  0  0  0  0  0  0
    3.9565   -4.9609    0.4938 H   0  0  0  0  0  0  0  0  0  0  0  0
    2.4276   -4.3380    1.1217 H   0  0  0  0  0  0  0  0  0  0  0  0
    2.2178   -2.1870   -0.2483 H   0  0  0  0  0  0  0  0  0  0  0  0
    2.6313   -4.3144   -1.2401 H   0  0  0  0  0  0  0  0  0  0  0  0
    5.2351   -4.2535   -1.1402 H   0  0  0  0  0  0  0  0  0  0  0  0
    4.6205   -4.6702   -2.7212 H   0  0  0  0  0  0  0  0  0  0  0  0
    6.3936   -2.9775   -2.8531 H   0  0  0  0  0  0  0  0  0  0  0  0
    5.0035   -1.3704   -4.3306 H   0  0  0  0  0  0  0  0  0  0  0  0
    4.5675   -3.0765   -4.5482 H   0  0  0  0  0  0  0  0  0  0  0  0
    2.6448   -1.4858   -4.3631 H   0  0  0  0  0  0  0  0  0  0  0  0
    2.3582   -3.8319   -3.5656 H   0  0  0  0  0  0  0  0  0  0  0  0
    1.4126   -2.7289   -2.5906 H   0  0  0  0  0  0  0  0  0  0  0  0
    3.7928    0.1700   -2.9049 H   0  0  0  0  0  0  0  0  0  0  0  0
    2.2487   -0.3420   -2.2950 H   0  0  0  0  0  0  0  0  0  0  0  0
    4.0085   -0.2958   -0.4837 H   0  0  0  0  0  0  0  0  0  0  0  0
    5.9808   -1.8671   -0.6514 H   0  0  0  0  0  0  0  0  0  0  0  0
    5.9259   -0.6808   -1.9368 H   0  0  0  0  0  0  0  0  0  0  0  0
    2.6976   -1.4721    1.9282 H   0  0  0  0  0  0  0  0  0  0  0  0
    4.3317   -0.9112    1.6212 H   0  0  0  0  0  0  0  0  0  0  0  0
    4.8744   -2.8536    0.5594 H   0  0  0  0  0  0  0  0  0  0  0  0
  1  2  1  0
  1 22  1  0
  1 23  1  0
  1 24  1  0
  2  3  2  0
  2  4  1  0
  4  8  1  0
  4  5  1  0
  5 21  1  0
  5  6  1  0
  5 25  1  1
  6  7  1  0
  6 26  1  0
  6 27  1  0
  7  8  1  0
  7 28  1  0
  7 29  1  0
  8  9  1  0
  8 30  1  1
  9 10  1  0
  9 31  1  0
  9 32  1  0
 10 11  1  0
 10 21  1  0
 10 50  1  6
 11 19  1  0
 11 12  1  0
 11 33  1  1
 12 17  1  0
 12 13  1  0
 12 34  1  1
 13 14  1  0
 13 35  1  0
 13 36  1  0
 14 20  1  0
 14 15  1  0
 14 37  1  6
 15 16  1  0
 15 38  1  0
 15 39  1  0
 16 17  1  0
 16 18  1  0
 16 40  1  6
 17 41  1  0
 17 42  1  0
 18 19  1  0
 18 43  1  0
 18 44  1  0
 19 20  1  0
 19 45  1  1
 20 46  1  0
 20 47  1  0
 21 48  1  0
 21 49  1  0
M  CHG  1  10   1
M  END
>  <i_m_ct_stereo_status>  (129) 
1

>  <s_m_source_file>  (129) 
/var/tmp/pbs.5076255.sched01/tmp2pvlagj1/41_74nrqse.sdf

>  <i_m_source_file_index>  (129) 
9

>  <i_lp_mmshare_version>  (129) 
48012

>  <i_f3d_flags>  (129) 
0

>  <s_epik_input>  (129) 
W0NIM11DKD1PKU4oW0NAQEhdMTIpW0NASF0oW0NIMl1bQ0gyXTEpW0NIMl1OKFtDSDJdMilbQ0BIXShbQ0BIXTM0KVtDQEBIXTVbQ0gyXVtDQEhdKFtDSDJdNClbQ0gyXVtDQEhdKFtDSDJdMylbQ0gyXTU=

>  <s_epik_cmdline>  (129) 
J2VwaWtfcHl0aG9uJywgJy1waHQnLCAnMi4wJywgJy1waCcsICc3LjAnLCAnLXRuJywgJzgnLCAnLW1hJywgJzIwMCcsICctaW1hZScsICc8aW5maWxlLm1hZT4nLCAnLW9tYWUnLCAnPG91dGZpbGUubWFlPic=

>  <r_epik_Ionization_Penalty>  (129) 
0.000744136

>  <r_epik_Ionization_Penalty_Charging>  (129) 
0.000744128

>  <r_epik_Ionization_Penalty_Neutral>  (129) 
8.01304e-09

>  <r_epik_State_Penalty>  (129) 
0.000475513

>  <r_epik_Charging_Adjusted_Penalty>  (129) 
0.00121964

>  <i_epik_Tot_Q>  (129) 
1

>  <i_epik_Tot_abs_Q>  (129) 
1

>  <s_lp_Force_Field>  (129) 
OPLS3e

>  <r_lp_Energy>  (129) 
28.9068

>  <b_lp_Chiralities_Consistent>  (129) 
1

>  <s_lp_Variant>  (129) 
37:0-1

>  <s_i_glide_gridfile>  (129) 
pfpi4k_grid

>  <i_i_glide_lignum>  (129) 
9

>  <i_i_glide_rotatable_bonds>  (129) 
2

>  <r_i_docking_score>  (129) 
-2.81187

>  <r_i_glide_ligand_efficiency>  (129) 
-0.133899

>  <r_i_glide_ligand_efficiency_sa>  (129) 
-0.369416

>  <r_i_glide_ligand_efficiency_ln>  (129) 
-0.69523

>  <r_i_glide_gscore>  (129) 
-2.81187

>  <r_i_glide_lipo>  (129) 
-0.572938

>  <r_i_glide_hbond>  (129) 
0

>  <r_i_glide_metal>  (129) 
-0

>  <r_i_glide_rewards>  (129) 
-1.43596

>  <r_i_glide_evdw>  (129) 
-11.2334

>  <r_i_glide_ecoul>  (129) 
-3.01793

>  <r_i_glide_erotb>  (129) 
0.217359

>  <r_i_glide_esite>  (129) 
-0.00596964

>  <r_i_glide_emodel>  (129) 
-14.9522

>  <r_i_glide_energy>  (129) 
-14.2514

>  <r_i_glide_einternal>  (129) 
1.72693

>  <r_i_glide_intrahb_reward>  (129) 
-0

>  <i_i_glide_confnum>  (129) 
2

>  <i_i_glide_posenum>  (129) 
6

>  <r_i_glide_eff_state_penalty>  (129) 
0

>  <ligand_id>  (129) 
37

>  <original_smiles>  (129) 
CC(=O)N1C2CCC1CN(C1C3CC4CC(C3)CC1C4)C2

>  <smiles>  (129) 
[H]C([H])([H])C(=O)N1C2([H])C([H])([H])C([H])([H])C1([H])C([H])([H])[N+]([H])(C1([H])C3([H])C([H])([H])C4([H])C([H])([H])C([H])(C3([H])[H])C([H])([H])C1([H])C4([H])[H])C2([H])[H]

$$$$
38:0:0
     RDKit          3D

 31 33  0  0  1  0  0  0  0  0999 V2000
    2.9402   -3.0013   -3.3900 C   0  0  0  0  0  0  0  0  0  0  0  0
    4.2939   -3.2117   -3.6951 C   0  0  0  0  0  0  0  0  0  0  0  0
    5.2435   -3.4448   -2.7696 N   0  0  0  0  0  0  0  0  0  0  0  0
    4.8598   -3.5310   -1.4831 C   0  0  0  0  0  0  0  0  0  0  0  0
    3.5274   -3.3464   -1.0613 C   0  0  0  0  0  0  0  0  0  0  0  0
    3.1602   -3.4249    0.4077 C   0  0  0  0  0  0  0  0  0  0  0  0
    3.8893   -2.3772    1.2807 C   0  0  2  0  0  0  0  0  0  0  0  0
    3.1614   -2.1291    2.6220 C   0  0  0  0  0  0  0  0  0  0  0  0
    2.8133   -0.6327    2.5280 C   0  0  1  0  0  0  0  0  0  0  0  0
    4.0875    0.1953    2.7620 C   0  0  0  0  0  0  0  0  0  0  0  0
    4.8641   -0.0497    1.4451 C   0  0  0  0  0  0  0  0  0  0  0  0
    3.8997   -0.9548    0.6683 C   0  0  2  0  0  0  0  0  0  0  0  0
    2.6126   -0.4257    1.0929 N   0  0  0  0  0  0  0  0  0  0  0  0
    2.5490   -3.0700   -2.0414 C   0  0  0  0  0  0  0  0  0  0  0  0
    2.2161   -2.8149   -4.1683 H   0  0  0  0  0  0  0  0  0  0  0  0
    4.6131   -3.1959   -4.7196 H   0  0  0  0  0  0  0  0  0  0  0  0
    5.6392   -3.7209   -0.7616 H   0  0  0  0  0  0  0  0  0  0  0  0
    2.0875   -3.2522    0.4699 H   0  0  0  0  0  0  0  0  0  0  0  0
    3.3221   -4.4372    0.7796 H   0  0  0  0  0  0  0  0  0  0  0  0
    4.9129   -2.7108    1.4491 H   0  0  0  0  0  0  0  0  0  0  0  0
    2.2594   -2.7327    2.7229 H   0  0  0  0  0  0  0  0  0  0  0  0
    3.7895   -2.3512    3.4808 H   0  0  0  0  0  0  0  0  0  0  0  0
    1.9706   -0.3321    3.1495 H   0  0  0  0  0  0  0  0  0  0  0  0
    3.8157    1.2475    2.8582 H   0  0  0  0  0  0  0  0  0  0  0  0
    4.6438   -0.1014    3.6496 H   0  0  0  0  0  0  0  0  0  0  0  0
    4.9773    0.8716    0.8788 H   0  0  0  0  0  0  0  0  0  0  0  0
    5.8524   -0.4901    1.5940 H   0  0  0  0  0  0  0  0  0  0  0  0
    4.0741   -0.8946   -0.4046 H   0  0  0  0  0  0  0  0  0  0  0  0
    1.8496   -0.9535    0.6698 H   0  0  0  0  0  0  0  0  0  0  0  0
    1.5144   -2.9329   -1.7866 H   0  0  0  0  0  0  0  0  0  0  0  0
    2.5147    0.5481    0.8652 H   0  0  0  0  0  0  0  0  0  0  0  0
  1 14  2  0
  1  2  1  0
  1 15  1  0
  2  3  2  0
  2 16  1  0
  3  4  1  0
  4  5  2  0
  4 17  1  0
  5  6  1  0
  5 14  1  0
  6  7  1  0
  6 18  1  0
  6 19  1  0
  7 12  1  0
  7  8  1  0
  7 20  1  1
  8  9  1  0
  8 21  1  0
  8 22  1  0
  9 13  1  0
  9 10  1  0
  9 23  1  1
 10 11  1  0
 10 24  1  0
 10 25  1  0
 11 12  1  0
 11 26  1  0
 11 27  1  0
 12 13  1  0
 12 28  1  6
 13 29  1  0
 13 31  1  0
 14 30  1  0
M  CHG  1  13   1
M  END
>  <i_m_ct_stereo_status>  (130) 
1

>  <s_m_source_file>  (130) 
/var/tmp/pbs.5076255.sched01/tmp2pvlagj1/41_74nrqse.sdf

>  <i_m_source_file_index>  (130) 
11

>  <i_lp_mmshare_version>  (130) 
48012

>  <i_f3d_flags>  (130) 
0

>  <s_epik_input>  (130) 
W2NIXTFbY0hdW2NIXW5bY0hdYzFbQ0gyXVtDQEhdKFtDSDJdW0NAQEhdMjMpW0NAQEhdKFtOSF0zKVtDSDJdW0NIMl0y

>  <s_epik_cmdline>  (130) 
J2VwaWtfcHl0aG9uJywgJy1waHQnLCAnMi4wJywgJy1waCcsICc3LjAnLCAnLXRuJywgJzgnLCAnLW1hJywgJzIwMCcsICctaW1hZScsICc8aW5maWxlLm1hZT4nLCAnLW9tYWUnLCAnPG91dGZpbGUubWFlPic=

>  <r_epik_Ionization_Penalty>  (130) 
0.00701709

>  <r_epik_Ionization_Penalty_Charging>  (130) 
2.93816e-05

>  <r_epik_Ionization_Penalty_Neutral>  (130) 
0.00698771

>  <r_epik_State_Penalty>  (130) 
0.00519768

>  <r_epik_Charging_Adjusted_Penalty>  (130) 
0.00522707

>  <i_epik_Tot_Q>  (130) 
1

>  <i_epik_Tot_abs_Q>  (130) 
1

>  <s_lp_Force_Field>  (130) 
OPLS3e

>  <r_lp_Energy>  (130) 
35.4632

>  <b_lp_Chiralities_Consistent>  (130) 
1

>  <s_lp_Variant>  (130) 
38:0-1

>  <s_i_glide_gridfile>  (130) 
pfpi4k_grid

>  <i_i_glide_lignum>  (130) 
11

>  <i_i_glide_rotatable_bonds>  (130) 
2

>  <r_i_docking_score>  (130) 
-3.40729

>  <r_i_glide_ligand_efficiency>  (130) 
-0.243378

>  <r_i_glide_ligand_efficiency_sa>  (130) 
-0.586576

>  <r_i_glide_ligand_efficiency_ln>  (130) 
-0.936312

>  <r_i_glide_gscore>  (130) 
-3.40729

>  <r_i_glide_lipo>  (130) 
-0.562391

>  <r_i_glide_hbond>  (130) 
-0.171409

>  <r_i_glide_metal>  (130) 
-0

>  <r_i_glide_rewards>  (130) 
-2.11857

>  <r_i_glide_evdw>  (130) 
-15.6166

>  <r_i_glide_ecoul>  (130) 
-4.00334

>  <r_i_glide_erotb>  (130) 
0.894922

>  <r_i_glide_esite>  (130) 
-0.0685153

>  <r_i_glide_emodel>  (130) 
-23.9845

>  <r_i_glide_energy>  (130) 
-19.62

>  <r_i_glide_einternal>  (130) 
1.37263

>  <r_i_glide_intrahb_reward>  (130) 
-0

>  <i_i_glide_confnum>  (130) 
2

>  <i_i_glide_posenum>  (130) 
8

>  <r_i_glide_eff_state_penalty>  (130) 
0

>  <ligand_id>  (130) 
38

>  <original_smiles>  (130) 
c1cncc(CC2CC3CCC2N3)c1

>  <smiles>  (130) 
[H]c1nc([H])c(C([H])([H])C2([H])C([H])([H])C3([H])C([H])([H])C([H])([H])C2([H])[N+]3([H])[H])c([H])c1[H]

$$$$
38:0:1
     RDKit          3D

 31 33  0  0  1  0  0  0  0  0999 V2000
    2.8207   -6.8473    2.2056 C   0  0  0  0  0  0  0  0  0  0  0  0
    3.8269   -7.5045    1.4742 C   0  0  0  0  0  0  0  0  0  0  0  0
    4.5253   -6.9104    0.4808 N   0  0  0  0  0  0  0  0  0  0  0  0
    4.2351   -5.6323    0.1804 C   0  0  0  0  0  0  0  0  0  0  0  0
    3.2507   -4.8772    0.8542 C   0  0  0  0  0  0  0  0  0  0  0  0
    2.9690   -3.4401    0.4590 C   0  0  0  0  0  0  0  0  0  0  0  0
    3.7576   -2.4094    1.2948 C   0  0  2  0  0  0  0  0  0  0  0  0
    3.1694   -2.2179    2.7117 C   0  0  0  0  0  0  0  0  0  0  0  0
    2.7426   -0.7407    2.6929 C   0  0  1  0  0  0  0  0  0  0  0  0
    3.9896    0.1456    2.8127 C   0  0  0  0  0  0  0  0  0  0  0  0
    4.6246   -0.0356    1.4143 C   0  0  0  0  0  0  0  0  0  0  0  0
    3.6341   -0.9849    0.7192 C   0  0  2  0  0  0  0  0  0  0  0  0
    2.3763   -0.5206    1.2944 N   0  0  0  0  0  0  0  0  0  0  0  0
    2.5263   -5.5079    1.8860 C   0  0  0  0  0  0  0  0  0  0  0  0
    2.2890   -7.3606    2.9947 H   0  0  0  0  0  0  0  0  0  0  0  0
    4.0750   -8.5374    1.6867 H   0  0  0  0  0  0  0  0  0  0  0  0
    4.8080   -5.1990   -0.6227 H   0  0  0  0  0  0  0  0  0  0  0  0
    3.1947   -3.3313   -0.6041 H   0  0  0  0  0  0  0  0  0  0  0  0
    1.9012   -3.2478    0.5471 H   0  0  0  0  0  0  0  0  0  0  0  0
    4.8067   -2.6956    1.3331 H   0  0  0  0  0  0  0  0  0  0  0  0
    2.3031   -2.8503    2.8959 H   0  0  0  0  0  0  0  0  0  0  0  0
    3.8962   -2.4356    3.4958 H   0  0  0  0  0  0  0  0  0  0  0  0
    1.9537   -0.5079    3.4077 H   0  0  0  0  0  0  0  0  0  0  0  0
    3.6926    1.1834    2.9676 H   0  0  0  0  0  0  0  0  0  0  0  0
    4.6456   -0.1523    3.6301 H   0  0  0  0  0  0  0  0  0  0  0  0
    4.6250    0.9144    0.8744 H   0  0  0  0  0  0  0  0  0  0  0  0
    5.6474   -0.4213    1.4464 H   0  0  0  0  0  0  0  0  0  0  0  0
    3.6772   -0.9352   -0.3682 H   0  0  0  0  0  0  0  0  0  0  0  0
    1.6033   -1.0745    0.9459 H   0  0  0  0  0  0  0  0  0  0  0  0
    1.7607   -4.9852    2.4334 H   0  0  0  0  0  0  0  0  0  0  0  0
    2.2052    0.4514    1.0885 H   0  0  0  0  0  0  0  0  0  0  0  0
  1 14  2  0
  1  2  1  0
  1 15  1  0
  2  3  2  0
  2 16  1  0
  3  4  1  0
  4  5  2  0
  4 17  1  0
  5  6  1  0
  5 14  1  0
  6  7  1  0
  6 18  1  0
  6 19  1  0
  7 12  1  0
  7  8  1  0
  7 20  1  1
  8  9  1  0
  8 21  1  0
  8 22  1  0
  9 13  1  0
  9 10  1  0
  9 23  1  1
 10 11  1  0
 10 24  1  0
 10 25  1  0
 11 12  1  0
 11 26  1  0
 11 27  1  0
 12 13  1  0
 12 28  1  6
 13 29  1  0
 13 31  1  0
 14 30  1  0
M  CHG  1  13   1
M  END
>  <i_m_ct_stereo_status>  (131) 
1

>  <s_m_source_file>  (131) 
/var/tmp/pbs.5076255.sched01/tmp2pvlagj1/41_74nrqse.sdf

>  <i_m_source_file_index>  (131) 
11

>  <i_lp_mmshare_version>  (131) 
48012

>  <i_f3d_flags>  (131) 
0

>  <s_epik_input>  (131) 
W2NIXTFbY0hdW2NIXW5bY0hdYzFbQ0gyXVtDQEhdKFtDSDJdW0NAQEhdMjMpW0NAQEhdKFtOSF0zKVtDSDJdW0NIMl0y

>  <s_epik_cmdline>  (131) 
J2VwaWtfcHl0aG9uJywgJy1waHQnLCAnMi4wJywgJy1waCcsICc3LjAnLCAnLXRuJywgJzgnLCAnLW1hJywgJzIwMCcsICctaW1hZScsICc8aW5maWxlLm1hZT4nLCAnLW9tYWUnLCAnPG91dGZpbGUubWFlPic=

>  <r_epik_Ionization_Penalty>  (131) 
0.00701709

>  <r_epik_Ionization_Penalty_Charging>  (131) 
2.93816e-05

>  <r_epik_Ionization_Penalty_Neutral>  (131) 
0.00698771

>  <r_epik_State_Penalty>  (131) 
0.00519768

>  <r_epik_Charging_Adjusted_Penalty>  (131) 
0.00522707

>  <i_epik_Tot_Q>  (131) 
1

>  <i_epik_Tot_abs_Q>  (131) 
1

>  <s_lp_Force_Field>  (131) 
OPLS3e

>  <r_lp_Energy>  (131) 
35.4632

>  <b_lp_Chiralities_Consistent>  (131) 
1

>  <s_lp_Variant>  (131) 
38:0-1

>  <s_i_glide_gridfile>  (131) 
pfpi4k_grid

>  <i_i_glide_lignum>  (131) 
11

>  <i_i_glide_rotatable_bonds>  (131) 
2

>  <r_i_docking_score>  (131) 
-2.99912

>  <r_i_glide_ligand_efficiency>  (131) 
-0.214223

>  <r_i_glide_ligand_efficiency_sa>  (131) 
-0.516308

>  <r_i_glide_ligand_efficiency_ln>  (131) 
-0.824148

>  <r_i_glide_gscore>  (131) 
-2.99912

>  <r_i_glide_lipo>  (131) 
-0.172433

>  <r_i_glide_hbond>  (131) 
-0.117719

>  <r_i_glide_metal>  (131) 
-0

>  <r_i_glide_rewards>  (131) 
-2.11857

>  <r_i_glide_evdw>  (131) 
-11.3679

>  <r_i_glide_ecoul>  (131) 
-5.56774

>  <r_i_glide_erotb>  (131) 
0.894922

>  <r_i_glide_esite>  (131) 
-0.0817679

>  <r_i_glide_emodel>  (131) 
-21.0389

>  <r_i_glide_energy>  (131) 
-16.9357

>  <r_i_glide_einternal>  (131) 
0.637186

>  <r_i_glide_intrahb_reward>  (131) 
-0

>  <i_i_glide_confnum>  (131) 
4

>  <i_i_glide_posenum>  (131) 
30

>  <r_i_glide_eff_state_penalty>  (131) 
0

>  <ligand_id>  (131) 
38

>  <original_smiles>  (131) 
c1cncc(CC2CC3CCC2N3)c1

>  <smiles>  (131) 
[H]c1nc([H])c(C([H])([H])C2([H])C([H])([H])C3([H])C([H])([H])C([H])([H])C2([H])[N+]3([H])[H])c([H])c1[H]

$$$$
38:0:2
     RDKit          3D

 31 33  0  0  1  0  0  0  0  0999 V2000
    2.6493   -0.6467   -4.6767 C   0  0  0  0  0  0  0  0  0  0  0  0
    3.3565    0.5046   -4.3836 C   0  0  0  0  0  0  0  0  0  0  0  0
    4.2119    0.5344   -3.3747 N   0  0  0  0  0  0  0  0  0  0  0  0
    4.4644   -0.5713   -2.6649 C   0  0  0  0  0  0  0  0  0  0  0  0
    3.8312   -1.7931   -2.9043 C   0  0  0  0  0  0  0  0  0  0  0  0
    4.1452   -3.0430   -2.1081 C   0  0  0  0  0  0  0  0  0  0  0  0
    4.5285   -2.7696   -0.6379 C   0  0  2  0  0  0  0  0  0  0  0  0
    4.8793   -4.0629    0.1138 C   0  0  0  0  0  0  0  0  0  0  0  0
    3.8201   -4.0818    1.2306 C   0  0  1  0  0  0  0  0  0  0  0  0
    4.1818   -3.0316    2.2918 C   0  0  0  0  0  0  0  0  0  0  0  0
    3.8460   -1.7079    1.5633 C   0  0  0  0  0  0  0  0  0  0  0  0
    3.3513   -2.2203    0.2003 C   0  0  2  0  0  0  0  0  0  0  0  0
    2.6711   -3.4494    0.5882 N   0  0  0  0  0  0  0  0  0  0  0  0
    2.8609   -1.8268   -3.9249 C   0  0  0  0  0  0  0  0  0  0  0  0
    1.8772   -0.5744   -5.4217 H   0  0  0  0  0  0  0  0  0  0  0  0
    3.1611    1.4313   -4.8940 H   0  0  0  0  0  0  0  0  0  0  0  0
    5.2088   -0.4210   -1.9017 H   0  0  0  0  0  0  0  0  0  0  0  0
    3.2755   -3.6952   -2.1432 H   0  0  0  0  0  0  0  0  0  0  0  0
    4.9409   -3.5740   -2.6244 H   0  0  0  0  0  0  0  0  0  0  0  0
    5.3976   -2.1141   -0.5547 H   0  0  0  0  0  0  0  0  0  0  0  0
    4.8103   -4.9342   -0.5402 H   0  0  0  0  0  0  0  0  0  0  0  0
    5.9035   -4.0274    0.5004 H   0  0  0  0  0  0  0  0  0  0  0  0
    3.6397   -5.0810    1.6189 H   0  0  0  0  0  0  0  0  0  0  0  0
    3.5369   -3.1515    3.1639 H   0  0  0  0  0  0  0  0  0  0  0  0
    5.2227   -3.0835    2.6189 H   0  0  0  0  0  0  0  0  0  0  0  0
    3.0366   -1.1808    2.0784 H   0  0  0  0  0  0  0  0  0  0  0  0
    4.6959   -1.0234    1.4775 H   0  0  0  0  0  0  0  0  0  0  0  0
    2.7282   -1.4956   -0.3200 H   0  0  0  0  0  0  0  0  0  0  0  0
    2.3756   -3.9450   -0.2273 H   0  0  0  0  0  0  0  0  0  0  0  0
    2.2959   -2.7321   -4.1458 H   0  0  0  0  0  0  0  0  0  0  0  0
    1.9228   -3.2584    1.2396 H   0  0  0  0  0  0  0  0  0  0  0  0
  1 14  2  0
  1  2  1  0
  1 15  1  0
  2  3  2  0
  2 16  1  0
  3  4  1  0
  4  5  2  0
  4 17  1  0
  5  6  1  0
  5 14  1  0
  6  7  1  0
  6 18  1  0
  6 19  1  0
  7 12  1  0
  7  8  1  0
  7 20  1  6
  8  9  1  0
  8 21  1  0
  8 22  1  0
  9 13  1  0
  9 10  1  0
  9 23  1  1
 10 11  1  0
 10 24  1  0
 10 25  1  0
 11 12  1  0
 11 26  1  0
 11 27  1  0
 12 13  1  0
 12 28  1  6
 13 29  1  0
 13 31  1  0
 14 30  1  0
M  CHG  1  13   1
M  END
>  <i_m_ct_stereo_status>  (132) 
1

>  <s_m_source_file>  (132) 
/var/tmp/pbs.5076255.sched01/tmp2pvlagj1/41_74nrqse.sdf

>  <i_m_source_file_index>  (132) 
11

>  <i_lp_mmshare_version>  (132) 
48012

>  <i_f3d_flags>  (132) 
0

>  <s_epik_input>  (132) 
W2NIXTFbY0hdW2NIXW5bY0hdYzFbQ0gyXVtDQEhdKFtDSDJdW0NAQEhdMjMpW0NAQEhdKFtOSF0zKVtDSDJdW0NIMl0y

>  <s_epik_cmdline>  (132) 
J2VwaWtfcHl0aG9uJywgJy1waHQnLCAnMi4wJywgJy1waCcsICc3LjAnLCAnLXRuJywgJzgnLCAnLW1hJywgJzIwMCcsICctaW1hZScsICc8aW5maWxlLm1hZT4nLCAnLW9tYWUnLCAnPG91dGZpbGUubWFlPic=

>  <r_epik_Ionization_Penalty>  (132) 
0.00701709

>  <r_epik_Ionization_Penalty_Charging>  (132) 
2.93816e-05

>  <r_epik_Ionization_Penalty_Neutral>  (132) 
0.00698771

>  <r_epik_State_Penalty>  (132) 
0.00519768

>  <r_epik_Charging_Adjusted_Penalty>  (132) 
0.00522707

>  <i_epik_Tot_Q>  (132) 
1

>  <i_epik_Tot_abs_Q>  (132) 
1

>  <s_lp_Force_Field>  (132) 
OPLS3e

>  <r_lp_Energy>  (132) 
35.4632

>  <b_lp_Chiralities_Consistent>  (132) 
1

>  <s_lp_Variant>  (132) 
38:0-1

>  <s_i_glide_gridfile>  (132) 
pfpi4k_grid

>  <i_i_glide_lignum>  (132) 
11

>  <i_i_glide_rotatable_bonds>  (132) 
2

>  <r_i_docking_score>  (132) 
-2.51458

>  <r_i_glide_ligand_efficiency>  (132) 
-0.179613

>  <r_i_glide_ligand_efficiency_sa>  (132) 
-0.432893

>  <r_i_glide_ligand_efficiency_ln>  (132) 
-0.690999

>  <r_i_glide_gscore>  (132) 
-2.51458

>  <r_i_glide_lipo>  (132) 
-0.31695

>  <r_i_glide_hbond>  (132) 
0

>  <r_i_glide_metal>  (132) 
-0

>  <r_i_glide_rewards>  (132) 
-2.11857

>  <r_i_glide_evdw>  (132) 
-4.16496

>  <r_i_glide_ecoul>  (132) 
-4.93888

>  <r_i_glide_erotb>  (132) 
0.894922

>  <r_i_glide_esite>  (132) 
-0.0249079

>  <r_i_glide_emodel>  (132) 
-11.8454

>  <r_i_glide_energy>  (132) 
-9.10385

>  <r_i_glide_einternal>  (132) 
1.50412

>  <r_i_glide_intrahb_reward>  (132) 
-0

>  <i_i_glide_confnum>  (132) 
4

>  <i_i_glide_posenum>  (132) 
37

>  <r_i_glide_eff_state_penalty>  (132) 
0

>  <ligand_id>  (132) 
38

>  <original_smiles>  (132) 
c1cncc(CC2CC3CCC2N3)c1

>  <smiles>  (132) 
[H]c1nc([H])c(C([H])([H])C2([H])C([H])([H])C3([H])C([H])([H])C([H])([H])C2([H])[N+]3([H])[H])c([H])c1[H]

$$$$
39:0:0
     RDKit          3D

 52 57  0  0  1  0  0  0  0  0999 V2000
    4.4618   -7.8642    2.0183 C   0  0  0  0  0  0  0  0  0  0  0  0
    3.8196   -6.6286    1.3872 C   0  0  0  0  0  0  0  0  0  0  0  0
    2.5979   -6.5306    1.2805 O   0  0  0  0  0  0  0  0  0  0  0  0
    4.7328   -5.7093    0.9977 O   0  0  0  0  0  0  0  0  0  0  0  0
    4.3453   -4.5011    0.3435 C   0  0  2  0  0  0  0  0  0  0  0  0
    5.1253   -4.3595   -0.9458 C   0  0  0  0  0  0  0  0  0  0  0  0
    4.8639   -3.0358   -1.6594 C   0  0  0  0  0  0  0  0  0  0  0  0
    4.9729   -2.9993   -2.8873 O   0  0  0  0  0  0  0  0  0  0  0  0
    4.6729   -1.9438   -0.8655 O   0  0  0  0  0  0  0  0  0  0  0  0
    3.9844   -2.0677    0.3553 C   0  0  2  0  0  0  0  0  0  0  0  0
    2.6261   -2.3589    0.0953 O   0  0  0  0  0  0  0  0  0  0  0  0
    4.0729   -0.6704    1.0114 C   0  0  0  0  0  0  0  0  0  0  0  0
    2.9149   -0.2706    1.9669 C   0  0  0  0  0  0  0  0  0  0  0  0
    2.5848   -0.9860    3.3285 C   0  0  2  0  0  0  0  0  0  0  0  0
    1.8026   -2.3028    3.1067 C   0  0  0  0  0  0  0  0  0  0  0  0
    1.6400   -0.0183    4.1225 C   0  0  1  0  0  0  0  0  0  0  0  0
    0.2936    0.2882    3.4508 C   0  0  0  0  0  0  0  0  0  0  0  0
   -0.9007    0.2197    4.0643 C   0  0  0  0  0  0  0  0  0  0  0  0
   -0.9872   -0.1824    5.4780 C   0  0  0  0  0  0  0  0  0  0  0  0
   -2.0655   -0.2553    6.0611 O   0  0  0  0  0  0  0  0  0  0  0  0
    0.2621   -0.5131    6.1903 C   0  0  0  0  0  0  0  0  0  0  0  0
    1.4515   -0.4703    5.5708 C   0  0  0  0  0  0  0  0  0  0  0  0
    2.6332   -0.7990    6.3156 C   0  0  0  0  0  0  0  0  0  0  0  0
    3.7575   -1.1262    5.6568 C   0  0  0  0  0  0  0  0  0  0  0  0
    3.8504   -1.3116    4.1776 C   0  0  2  0  0  0  0  0  0  0  0  0
    5.0961   -0.8813    3.5971 O   0  0  0  0  0  0  0  0  0  0  0  0
    4.9490   -2.2832    3.8082 C   0  0  2  0  0  0  0  0  0  0  0  0
    4.9532   -3.2978    2.6540 C   0  0  2  0  0  0  0  0  0  0  0  0
    5.9085   -3.0193    1.6265 O   0  0  0  0  0  0  0  0  0  0  0  0
    4.5586   -3.2367    1.1834 C   0  0  1  0  0  0  0  0  0  0  0  0
    5.0626   -7.5821    2.8841 H   0  0  0  0  0  0  0  0  0  0  0  0
    5.1025   -8.3718    1.3005 H   0  0  0  0  0  0  0  0  0  0  0  0
    3.7019   -8.5719    2.3549 H   0  0  0  0  0  0  0  0  0  0  0  0
    3.2910   -4.5740    0.0701 H   0  0  0  0  0  0  0  0  0  0  0  0
    6.1897   -4.4114   -0.7288 H   0  0  0  0  0  0  0  0  0  0  0  0
    4.9019   -5.1839   -1.6265 H   0  0  0  0  0  0  0  0  0  0  0  0
    2.1590   -1.6267   -0.2996 H   0  0  0  0  0  0  0  0  0  0  0  0
    5.0845   -0.4634    1.3606 H   0  0  0  0  0  0  0  0  0  0  0  0
    3.9635    0.0355    0.1886 H   0  0  0  0  0  0  0  0  0  0  0  0
    3.1406    0.7651    2.2117 H   0  0  0  0  0  0  0  0  0  0  0  0
    2.0013   -0.1992    1.3707 H   0  0  0  0  0  0  0  0  0  0  0  0
    1.4597   -2.7152    4.0547 H   0  0  0  0  0  0  0  0  0  0  0  0
    2.3808   -3.0886    2.6323 H   0  0  0  0  0  0  0  0  0  0  0  0
    0.9253   -2.1400    2.4801 H   0  0  0  0  0  0  0  0  0  0  0  0
    2.1306    0.9500    4.1985 H   0  0  0  0  0  0  0  0  0  0  0  0
    0.3193    0.6217    2.4245 H   0  0  0  0  0  0  0  0  0  0  0  0
   -1.8179    0.4760    3.5506 H   0  0  0  0  0  0  0  0  0  0  0  0
    0.1785   -0.8144    7.2269 H   0  0  0  0  0  0  0  0  0  0  0  0
    2.6384   -0.7342    7.3939 H   0  0  0  0  0  0  0  0  0  0  0  0
    4.6504   -1.3321    6.2231 H   0  0  0  0  0  0  0  0  0  0  0  0
    5.6001   -2.6062    4.6235 H   0  0  0  0  0  0  0  0  0  0  0  0
    5.0059   -4.3151    3.0270 H   0  0  0  0  0  0  0  0  0  0  0  0
  1  2  1  0
  1 31  1  0
  1 32  1  0
  1 33  1  0
  2  3  2  0
  2  4  1  0
  4  5  1  0
  5 30  1  0
  5  6  1  0
  5 34  1  6
  6  7  1  0
  6 35  1  0
  6 36  1  0
  7  8  2  0
  7  9  1  0
  9 10  1  0
 10 30  1  0
 10 11  1  6
 10 12  1  0
 11 37  1  0
 12 13  1  0
 12 38  1  0
 12 39  1  0
 13 14  1  0
 13 40  1  0
 13 41  1  0
 14 25  1  0
 14 15  1  6
 14 16  1  0
 15 42  1  0
 15 43  1  0
 15 44  1  0
 16 22  1  0
 16 17  1  0
 16 45  1  1
 17 18  2  0
 17 46  1  0
 18 19  1  0
 18 47  1  0
 19 20  2  0
 19 21  1  0
 21 22  2  0
 21 48  1  0
 22 23  1  0
 23 24  2  0
 23 49  1  0
 24 25  1  0
 24 50  1  0
 25 27  1  0
 25 26  1  6
 26 27  1  0
 27 28  1  0
 27 51  1  1
 28 30  1  0
 28 29  1  0
 28 52  1  1
 30 29  1  6
M  END
>  <i_m_ct_stereo_status>  (133) 
1

>  <s_m_source_file>  (133) 
/var/tmp/pbs.5076255.sched01/tmp2pvlagj1/41_74nrqse.sdf

>  <i_m_source_file_index>  (133) 
12

>  <i_lp_mmshare_version>  (133) 
48012

>  <i_f3d_flags>  (133) 
0

>  <s_epik_input>  (133) 
W0NIM11DKD1PKU9bQ0BIXShbQ0gyXUMoPU8pTzEpW0NAXTIoW0NAQEhdKE8yKVtDQEhdM080KVtDQEBdMShbT0hdKVtDSDJdW0NIMl1bQ0BdKFtDQEBdMzQ1KShbQ0gzXSlbQ0BASF02QyhbQ0hdPVtDSF01KT1bQ0hdQyg9TylbQ0hdPVtDSF02

>  <s_epik_cmdline>  (133) 
J2VwaWtfcHl0aG9uJywgJy1waHQnLCAnMi4wJywgJy1waCcsICc3LjAnLCAnLXRuJywgJzgnLCAnLW1hJywgJzIwMCcsICctaW1hZScsICc8aW5maWxlLm1hZT4nLCAnLW9tYWUnLCAnPG91dGZpbGUubWFlPic=

>  <r_lp_tautomer_probability>  (133) 
1

>  <r_epik_Ionization_Penalty>  (133) 
5.73865e-05

>  <r_epik_Ionization_Penalty_Charging>  (133) 
0

>  <r_epik_Ionization_Penalty_Neutral>  (133) 
5.73865e-05

>  <r_epik_State_Penalty>  (133) 
-0

>  <r_epik_Charging_Adjusted_Penalty>  (133) 
0

>  <i_epik_Tot_Q>  (133) 
0

>  <i_epik_Tot_abs_Q>  (133) 
0

>  <s_epik_Chemistry_Notes>  (133) 
This compound has an ester and may undergo hydrolysis at high or low pH.

>  <s_lp_Force_Field>  (133) 
OPLS3e

>  <r_lp_Energy>  (133) 
58.8059

>  <b_lp_Chiralities_Consistent>  (133) 
1

>  <s_lp_Variant>  (133) 
39:0-1

>  <s_i_glide_gridfile>  (133) 
pfpi4k_grid

>  <i_i_glide_lignum>  (133) 
12

>  <i_i_glide_rotatable_bonds>  (133) 
3

>  <r_i_docking_score>  (133) 
-3.80913

>  <r_i_glide_ligand_efficiency>  (133) 
-0.126971

>  <r_i_glide_ligand_efficiency_sa>  (133) 
-0.394528

>  <r_i_glide_ligand_efficiency_ln>  (133) 
-0.865475

>  <r_i_glide_gscore>  (133) 
-3.80913

>  <r_i_glide_lipo>  (133) 
-0.226369

>  <r_i_glide_hbond>  (133) 
-0.146666

>  <r_i_glide_metal>  (133) 
-0

>  <r_i_glide_rewards>  (133) 
-0.698919

>  <r_i_glide_evdw>  (133) 
-26.5481

>  <r_i_glide_ecoul>  (133) 
-9.77337

>  <r_i_glide_erotb>  (133) 
0.114931

>  <r_i_glide_esite>  (133) 
-0.058692

>  <r_i_glide_emodel>  (133) 
-45.6737

>  <r_i_glide_energy>  (133) 
-36.3215

>  <r_i_glide_einternal>  (133) 
0.268454

>  <r_i_glide_intrahb_reward>  (133) 
-0

>  <i_i_glide_confnum>  (133) 
6

>  <i_i_glide_posenum>  (133) 
4

>  <r_i_glide_eff_state_penalty>  (133) 
0

>  <ligand_id>  (133) 
39

>  <original_smiles>  (133) 
CC(=O)OC1CC(=O)OC2(O)CCC3(C)C4C=CC(=O)C=C4C=CC34OC4C3OC132

>  <smiles>  (133) 
[H]OC12OC(=O)C([H])([H])C([H])(OC(=O)C([H])([H])[H])C13OC3([H])C1([H])OC13C([H])=C([H])C1=C([H])C(=O)C([H])=C([H])C1([H])C3(C([H])([H])[H])C([H])([H])C2([H])[H]

$$$$
39:0:1
     RDKit          3D

 52 57  0  0  1  0  0  0  0  0999 V2000
    6.4602   -7.3087    2.3122 C   0  0  0  0  0  0  0  0  0  0  0  0
    6.2698   -6.0491    1.4896 C   0  0  0  0  0  0  0  0  0  0  0  0
    7.2387   -5.3605    1.1665 O   0  0  0  0  0  0  0  0  0  0  0  0
    4.9599   -5.7968    1.2127 O   0  0  0  0  0  0  0  0  0  0  0  0
    4.5241   -4.6498    0.4578 C   0  0  2  0  0  0  0  0  0  0  0  0
    5.1555   -4.5953   -0.9317 C   0  0  0  0  0  0  0  0  0  0  0  0
    4.7994   -3.3491   -1.7303 C   0  0  0  0  0  0  0  0  0  0  0  0
    4.8619   -3.3725   -2.9556 O   0  0  0  0  0  0  0  0  0  0  0  0
    4.5982   -2.2028   -1.0189 O   0  0  0  0  0  0  0  0  0  0  0  0
    3.9533   -2.2553    0.2422 C   0  0  2  0  0  0  0  0  0  0  0  0
    2.6069   -2.6362    0.0571 O   0  0  0  0  0  0  0  0  0  0  0  0
    4.0034   -0.8072    0.7706 C   0  0  0  0  0  0  0  0  0  0  0  0
    2.8773   -0.3609    1.7471 C   0  0  0  0  0  0  0  0  0  0  0  0
    2.6324   -0.9675    3.1759 C   0  0  2  0  0  0  0  0  0  0  0  0
    1.8984   -2.3317    3.1028 C   0  0  0  0  0  0  0  0  0  0  0  0
    1.6723    0.0320    3.9164 C   0  0  1  0  0  0  0  0  0  0  0  0
    0.2997    0.2220    3.2769 C   0  0  0  0  0  0  0  0  0  0  0  0
   -0.8671    0.1557    3.9507 C   0  0  0  0  0  0  0  0  0  0  0  0
   -0.8962   -0.1319    5.3894 C   0  0  0  0  0  0  0  0  0  0  0  0
   -1.9573   -0.2072    6.0184 O   0  0  0  0  0  0  0  0  0  0  0  0
    0.3846   -0.3329    6.0732 C   0  0  0  0  0  0  0  0  0  0  0  0
    1.5561   -0.2895    5.4049 C   0  0  0  0  0  0  0  0  0  0  0  0
    2.7799   -0.5000    6.1365 C   0  0  0  0  0  0  0  0  0  0  0  0
    3.8920   -0.8353    5.4658 C   0  0  0  0  0  0  0  0  0  0  0  0
    3.9372   -1.1332    4.0075 C   0  0  2  0  0  0  0  0  0  0  0  0
    5.1453   -0.7189    3.3432 O   0  0  0  0  0  0  0  0  0  0  0  0
    5.0499   -2.1059    3.6865 C   0  0  2  0  0  0  0  0  0  0  0  0
    5.0475   -3.1851    2.6300 C   0  0  2  0  0  0  0  0  0  0  0  0
    5.9516   -2.9021    1.5516 O   0  0  0  0  0  0  0  0  0  0  0  0
    4.6335   -3.2899    1.1547 C   0  0  1  0  0  0  0  0  0  0  0  0
    6.0698   -8.1773    1.7789 H   0  0  0  0  0  0  0  0  0  0  0  0
    5.9708   -7.2107    3.2838 H   0  0  0  0  0  0  0  0  0  0  0  0
    7.5293   -7.4423    2.4736 H   0  0  0  0  0  0  0  0  0  0  0  0
    3.4601   -4.8486    0.3040 H   0  0  0  0  0  0  0  0  0  0  0  0
    6.2330   -4.5361   -0.8251 H   0  0  0  0  0  0  0  0  0  0  0  0
    4.9207   -5.4917   -1.5025 H   0  0  0  0  0  0  0  0  0  0  0  0
    2.1037   -1.9114   -0.3201 H   0  0  0  0  0  0  0  0  0  0  0  0
    5.0187   -0.5343    1.0677 H   0  0  0  0  0  0  0  0  0  0  0  0
    3.8444   -0.1808   -0.1056 H   0  0  0  0  0  0  0  0  0  0  0  0
    3.0767    0.7051    1.8902 H   0  0  0  0  0  0  0  0  0  0  0  0
    1.9448   -0.3805    1.1887 H   0  0  0  0  0  0  0  0  0  0  0  0
    1.6104   -2.6706    4.0978 H   0  0  0  0  0  0  0  0  0  0  0  0
    2.4975   -3.1289    2.6741 H   0  0  0  0  0  0  0  0  0  0  0  0
    0.9965   -2.2608    2.4965 H   0  0  0  0  0  0  0  0  0  0  0  0
    2.1277    1.0202    3.8869 H   0  0  0  0  0  0  0  0  0  0  0  0
    0.2647    0.4578    2.2227 H   0  0  0  0  0  0  0  0  0  0  0  0
   -1.7976    0.3248    3.4415 H   0  0  0  0  0  0  0  0  0  0  0  0
    0.3628   -0.5415    7.1291 H   0  0  0  0  0  0  0  0  0  0  0  0
    2.8208   -0.3482    7.2032 H   0  0  0  0  0  0  0  0  0  0  0  0
    4.8144   -0.9563    6.0117 H   0  0  0  0  0  0  0  0  0  0  0  0
    5.7397   -2.3370    4.4889 H   0  0  0  0  0  0  0  0  0  0  0  0
    5.1820   -4.1539    3.0854 H   0  0  0  0  0  0  0  0  0  0  0  0
  1  2  1  0
  1 31  1  0
  1 32  1  0
  1 33  1  0
  2  3  2  0
  2  4  1  0
  4  5  1  0
  5 30  1  0
  5  6  1  0
  5 34  1  6
  6  7  1  0
  6 35  1  0
  6 36  1  0
  7  8  2  0
  7  9  1  0
  9 10  1  0
 10 30  1  0
 10 11  1  6
 10 12  1  0
 11 37  1  0
 12 13  1  0
 12 38  1  0
 12 39  1  0
 13 14  1  0
 13 40  1  0
 13 41  1  0
 14 25  1  0
 14 15  1  6
 14 16  1  0
 15 42  1  0
 15 43  1  0
 15 44  1  0
 16 22  1  0
 16 17  1  0
 16 45  1  1
 17 18  2  0
 17 46  1  0
 18 19  1  0
 18 47  1  0
 19 20  2  0
 19 21  1  0
 21 22  2  0
 21 48  1  0
 22 23  1  0
 23 24  2  0
 23 49  1  0
 24 25  1  0
 24 50  1  0
 25 27  1  0
 25 26  1  6
 26 27  1  0
 27 28  1  0
 27 51  1  1
 28 30  1  0
 28 29  1  0
 28 52  1  1
 30 29  1  6
M  END
>  <i_m_ct_stereo_status>  (134) 
1

>  <s_m_source_file>  (134) 
/var/tmp/pbs.5076255.sched01/tmp2pvlagj1/41_74nrqse.sdf

>  <i_m_source_file_index>  (134) 
12

>  <i_lp_mmshare_version>  (134) 
48012

>  <i_f3d_flags>  (134) 
0

>  <s_epik_input>  (134) 
W0NIM11DKD1PKU9bQ0BIXShbQ0gyXUMoPU8pTzEpW0NAXTIoW0NAQEhdKE8yKVtDQEhdM080KVtDQEBdMShbT0hdKVtDSDJdW0NIMl1bQ0BdKFtDQEBdMzQ1KShbQ0gzXSlbQ0BASF02QyhbQ0hdPVtDSF01KT1bQ0hdQyg9TylbQ0hdPVtDSF02

>  <s_epik_cmdline>  (134) 
J2VwaWtfcHl0aG9uJywgJy1waHQnLCAnMi4wJywgJy1waCcsICc3LjAnLCAnLXRuJywgJzgnLCAnLW1hJywgJzIwMCcsICctaW1hZScsICc8aW5maWxlLm1hZT4nLCAnLW9tYWUnLCAnPG91dGZpbGUubWFlPic=

>  <r_lp_tautomer_probability>  (134) 
1

>  <r_epik_Ionization_Penalty>  (134) 
5.73865e-05

>  <r_epik_Ionization_Penalty_Charging>  (134) 
0

>  <r_epik_Ionization_Penalty_Neutral>  (134) 
5.73865e-05

>  <r_epik_State_Penalty>  (134) 
-0

>  <r_epik_Charging_Adjusted_Penalty>  (134) 
0

>  <i_epik_Tot_Q>  (134) 
0

>  <i_epik_Tot_abs_Q>  (134) 
0

>  <s_epik_Chemistry_Notes>  (134) 
This compound has an ester and may undergo hydrolysis at high or low pH.

>  <s_lp_Force_Field>  (134) 
OPLS3e

>  <r_lp_Energy>  (134) 
58.8059

>  <b_lp_Chiralities_Consistent>  (134) 
1

>  <s_lp_Variant>  (134) 
39:0-1

>  <s_i_glide_gridfile>  (134) 
pfpi4k_grid

>  <i_i_glide_lignum>  (134) 
12

>  <i_i_glide_rotatable_bonds>  (134) 
3

>  <r_i_docking_score>  (134) 
-3.78076

>  <r_i_glide_ligand_efficiency>  (134) 
-0.126025

>  <r_i_glide_ligand_efficiency_sa>  (134) 
-0.39159

>  <r_i_glide_ligand_efficiency_ln>  (134) 
-0.85903

>  <r_i_glide_gscore>  (134) 
-3.78076

>  <r_i_glide_lipo>  (134) 
-0.222953

>  <r_i_glide_hbond>  (134) 
-0.149235

>  <r_i_glide_metal>  (134) 
-0

>  <r_i_glide_rewards>  (134) 
-0.768228

>  <r_i_glide_evdw>  (134) 
-27.3001

>  <r_i_glide_ecoul>  (134) 
-8.92671

>  <r_i_glide_erotb>  (134) 
0.114931

>  <r_i_glide_esite>  (134) 
-0.0512669

>  <r_i_glide_emodel>  (134) 
-42.8966

>  <r_i_glide_energy>  (134) 
-36.2268

>  <r_i_glide_einternal>  (134) 
5.11152

>  <r_i_glide_intrahb_reward>  (134) 
-0

>  <i_i_glide_confnum>  (134) 
3

>  <i_i_glide_posenum>  (134) 
22

>  <r_i_glide_eff_state_penalty>  (134) 
0

>  <ligand_id>  (134) 
39

>  <original_smiles>  (134) 
CC(=O)OC1CC(=O)OC2(O)CCC3(C)C4C=CC(=O)C=C4C=CC34OC4C3OC132

>  <smiles>  (134) 
[H]OC12OC(=O)C([H])([H])C([H])(OC(=O)C([H])([H])[H])C13OC3([H])C1([H])OC13C([H])=C([H])C1=C([H])C(=O)C([H])=C([H])C1([H])C3(C([H])([H])[H])C([H])([H])C2([H])[H]

$$$$
39:0:2
     RDKit          3D

 52 57  0  0  1  0  0  0  0  0999 V2000
    3.8579   -7.5941    2.5852 C   0  0  0  0  0  0  0  0  0  0  0  0
    3.4625   -6.4317    1.6776 C   0  0  0  0  0  0  0  0  0  0  0  0
    2.2931   -6.2621    1.3279 O   0  0  0  0  0  0  0  0  0  0  0  0
    4.5160   -5.6525    1.3437 O   0  0  0  0  0  0  0  0  0  0  0  0
    4.3665   -4.5180    0.4844 C   0  0  2  0  0  0  0  0  0  0  0  0
    5.2869   -4.6721   -0.7158 C   0  0  0  0  0  0  0  0  0  0  0  0
    5.2887   -3.4400   -1.6223 C   0  0  0  0  0  0  0  0  0  0  0  0
    5.4743   -3.5520   -2.8315 O   0  0  0  0  0  0  0  0  0  0  0  0
    5.1970   -2.2262   -1.0051 O   0  0  0  0  0  0  0  0  0  0  0  0
    4.3573   -2.0836    0.1236 C   0  0  2  0  0  0  0  0  0  0  0  0
    3.0120   -2.2344   -0.2765 O   0  0  0  0  0  0  0  0  0  0  0  0
    4.5774   -0.6339    0.5875 C   0  0  0  0  0  0  0  0  0  0  0  0
    3.4084    0.0459    1.3534 C   0  0  0  0  0  0  0  0  0  0  0  0
    2.8618   -0.4188    2.7472 C   0  0  2  0  0  0  0  0  0  0  0  0
    1.9145   -1.6357    2.6120 C   0  0  0  0  0  0  0  0  0  0  0  0
    1.9888    0.7795    3.2821 C   0  0  1  0  0  0  0  0  0  0  0  0
    0.7690    1.1524    2.4284 C   0  0  0  0  0  0  0  0  0  0  0  0
   -0.4779    1.3229    2.9087 C   0  0  0  0  0  0  0  0  0  0  0  0
   -0.7527    1.1499    4.3420 C   0  0  0  0  0  0  0  0  0  0  0  0
   -1.8747    1.3137    4.8090 O   0  0  0  0  0  0  0  0  0  0  0  0
    0.3586    0.7774    5.2216 C   0  0  0  0  0  0  0  0  0  0  0  0
    1.6018    0.5802    4.7486 C   0  0  0  0  0  0  0  0  0  0  0  0
    2.6507    0.2128    5.6645 C   0  0  0  0  0  0  0  0  0  0  0  0
    3.7705   -0.3480    5.1971 C   0  0  0  0  0  0  0  0  0  0  0  0
    3.9894   -0.7602    3.7724 C   0  0  2  0  0  0  0  0  0  0  0  0
    5.3291   -0.5873    3.2855 O   0  0  0  0  0  0  0  0  0  0  0  0
    4.9684   -1.9147    3.6634 C   0  0  2  0  0  0  0  0  0  0  0  0
    4.9248   -3.0774    2.6692 C   0  0  2  0  0  0  0  0  0  0  0  0
    5.9888   -3.0780    1.7162 O   0  0  0  0  0  0  0  0  0  0  0  0
    4.6711   -3.1783    1.1616 C   0  0  1  0  0  0  0  0  0  0  0  0
    4.3407   -7.2278    3.4918 H   0  0  0  0  0  0  0  0  0  0  0  0
    4.5501   -8.2628    2.0731 H   0  0  0  0  0  0  0  0  0  0  0  0
    2.9829   -8.1761    2.8793 H   0  0  0  0  0  0  0  0  0  0  0  0
    3.3446   -4.5053    0.1021 H   0  0  0  0  0  0  0  0  0  0  0  0
    6.3052   -4.8323   -0.3650 H   0  0  0  0  0  0  0  0  0  0  0  0
    5.0013   -5.5446   -1.3026 H   0  0  0  0  0  0  0  0  0  0  0  0
    2.6816   -1.4209   -0.6349 H   0  0  0  0  0  0  0  0  0  0  0  0
    5.5710   -0.5093    1.0211 H   0  0  0  0  0  0  0  0  0  0  0  0
    4.6416   -0.0445   -0.3271 H   0  0  0  0  0  0  0  0  0  0  0  0
    3.7600    1.0701    1.4813 H   0  0  0  0  0  0  0  0  0  0  0  0
    2.5741    0.1371    0.6625 H   0  0  0  0  0  0  0  0  0  0  0  0
    1.4262   -1.8543    3.5613 H   0  0  0  0  0  0  0  0  0  0  0  0
    2.4194   -2.5485    2.3150 H   0  0  0  0  0  0  0  0  0  0  0  0
    1.1352   -1.4539    1.8724 H   0  0  0  0  0  0  0  0  0  0  0  0
    2.6062    1.6774    3.2886 H   0  0  0  0  0  0  0  0  0  0  0  0
    0.9250    1.3237    1.3732 H   0  0  0  0  0  0  0  0  0  0  0  0
   -1.2970    1.6064    2.2604 H   0  0  0  0  0  0  0  0  0  0  0  0
    0.1357    0.6455    6.2710 H   0  0  0  0  0  0  0  0  0  0  0  0
    2.5508    0.4272    6.7202 H   0  0  0  0  0  0  0  0  0  0  0  0
    4.5612   -0.5802    5.8935 H   0  0  0  0  0  0  0  0  0  0  0  0
    5.4739   -2.1989    4.5843 H   0  0  0  0  0  0  0  0  0  0  0  0
    4.7991   -4.0243    3.1834 H   0  0  0  0  0  0  0  0  0  0  0  0
  1  2  1  0
  1 31  1  0
  1 32  1  0
  1 33  1  0
  2  3  2  0
  2  4  1  0
  4  5  1  0
  5 30  1  0
  5  6  1  0
  5 34  1  6
  6  7  1  0
  6 35  1  0
  6 36  1  0
  7  8  2  0
  7  9  1  0
  9 10  1  0
 10 30  1  0
 10 11  1  6
 10 12  1  0
 11 37  1  0
 12 13  1  0
 12 38  1  0
 12 39  1  0
 13 14  1  0
 13 40  1  0
 13 41  1  0
 14 25  1  0
 14 15  1  6
 14 16  1  0
 15 42  1  0
 15 43  1  0
 15 44  1  0
 16 22  1  0
 16 17  1  0
 16 45  1  1
 17 18  2  0
 17 46  1  0
 18 19  1  0
 18 47  1  0
 19 20  2  0
 19 21  1  0
 21 22  2  0
 21 48  1  0
 22 23  1  0
 23 24  2  0
 23 49  1  0
 24 25  1  0
 24 50  1  0
 25 27  1  0
 25 26  1  6
 26 27  1  0
 27 28  1  0
 27 51  1  1
 28 30  1  0
 28 29  1  0
 28 52  1  1
 30 29  1  6
M  END
>  <i_m_ct_stereo_status>  (135) 
1

>  <s_m_source_file>  (135) 
/var/tmp/pbs.5076255.sched01/tmp2pvlagj1/41_74nrqse.sdf

>  <i_m_source_file_index>  (135) 
12

>  <i_lp_mmshare_version>  (135) 
48012

>  <i_f3d_flags>  (135) 
0

>  <s_epik_input>  (135) 
W0NIM11DKD1PKU9bQ0BIXShbQ0gyXUMoPU8pTzEpW0NAXTIoW0NAQEhdKE8yKVtDQEhdM080KVtDQEBdMShbT0hdKVtDSDJdW0NIMl1bQ0BdKFtDQEBdMzQ1KShbQ0gzXSlbQ0BASF02QyhbQ0hdPVtDSF01KT1bQ0hdQyg9TylbQ0hdPVtDSF02

>  <s_epik_cmdline>  (135) 
J2VwaWtfcHl0aG9uJywgJy1waHQnLCAnMi4wJywgJy1waCcsICc3LjAnLCAnLXRuJywgJzgnLCAnLW1hJywgJzIwMCcsICctaW1hZScsICc8aW5maWxlLm1hZT4nLCAnLW9tYWUnLCAnPG91dGZpbGUubWFlPic=

>  <r_lp_tautomer_probability>  (135) 
1

>  <r_epik_Ionization_Penalty>  (135) 
5.73865e-05

>  <r_epik_Ionization_Penalty_Charging>  (135) 
0

>  <r_epik_Ionization_Penalty_Neutral>  (135) 
5.73865e-05

>  <r_epik_State_Penalty>  (135) 
-0

>  <r_epik_Charging_Adjusted_Penalty>  (135) 
0

>  <i_epik_Tot_Q>  (135) 
0

>  <i_epik_Tot_abs_Q>  (135) 
0

>  <s_epik_Chemistry_Notes>  (135) 
This compound has an ester and may undergo hydrolysis at high or low pH.

>  <s_lp_Force_Field>  (135) 
OPLS3e

>  <r_lp_Energy>  (135) 
58.8059

>  <b_lp_Chiralities_Consistent>  (135) 
1

>  <s_lp_Variant>  (135) 
39:0-1

>  <s_i_glide_gridfile>  (135) 
pfpi4k_grid

>  <i_i_glide_lignum>  (135) 
12

>  <i_i_glide_rotatable_bonds>  (135) 
3

>  <r_i_docking_score>  (135) 
-3.13725

>  <r_i_glide_ligand_efficiency>  (135) 
-0.104575

>  <r_i_glide_ligand_efficiency_sa>  (135) 
-0.324939

>  <r_i_glide_ligand_efficiency_ln>  (135) 
-0.712817

>  <r_i_glide_gscore>  (135) 
-3.13725

>  <r_i_glide_lipo>  (135) 
-0.309394

>  <r_i_glide_hbond>  (135) 
0

>  <r_i_glide_metal>  (135) 
-0

>  <r_i_glide_rewards>  (135) 
-0.764447

>  <r_i_glide_evdw>  (135) 
-30.4865

>  <r_i_glide_ecoul>  (135) 
-4.15555

>  <r_i_glide_erotb>  (135) 
0.114931

>  <r_i_glide_esite>  (135) 
-0.0306813

>  <r_i_glide_emodel>  (135) 
-42.0895

>  <r_i_glide_energy>  (135) 
-34.642

>  <r_i_glide_einternal>  (135) 
0.507686

>  <r_i_glide_intrahb_reward>  (135) 
-0

>  <i_i_glide_confnum>  (135) 
2

>  <i_i_glide_posenum>  (135) 
9

>  <r_i_glide_eff_state_penalty>  (135) 
0

>  <ligand_id>  (135) 
39

>  <original_smiles>  (135) 
CC(=O)OC1CC(=O)OC2(O)CCC3(C)C4C=CC(=O)C=C4C=CC34OC4C3OC132

>  <smiles>  (135) 
[H]OC12OC(=O)C([H])([H])C([H])(OC(=O)C([H])([H])[H])C13OC3([H])C1([H])OC13C([H])=C([H])C1=C([H])C(=O)C([H])=C([H])C1([H])C3(C([H])([H])[H])C([H])([H])C2([H])[H]

$$$$
40:0:0
     RDKit          3D

 72 78  0  0  1  0  0  0  0  0999 V2000
    3.5695   -2.0646   -0.4488 C   0  0  0  0  0  0  0  0  0  0  0  0
    3.2928   -3.3058    0.3726 C   0  0  0  0  0  0  0  0  0  0  0  0
    2.7333   -4.2853   -0.1154 O   0  0  0  0  0  0  0  0  0  0  0  0
    3.7062   -3.1846    1.6272 O   0  0  0  0  0  0  0  0  0  0  0  0
    3.5325   -4.2797    2.5396 C   0  0  0  0  0  0  0  0  0  0  0  0
    3.5158   -3.8712    3.9894 C   0  0  1  0  0  0  0  0  0  0  0  0
    4.2110   -4.6458    5.0286 C   0  0  0  0  0  0  0  0  0  0  0  0
    4.1475   -5.9425    5.4016 C   0  0  0  0  0  0  0  0  0  0  0  0
    3.3812   -6.9957    4.7410 C   0  0  0  0  0  0  0  0  0  0  0  0
    1.9899   -6.8619    4.5468 C   0  0  0  0  0  0  0  0  0  0  0  0
    1.2173   -5.9459    4.9362 O   0  0  0  0  0  0  0  0  0  0  0  0
    1.2874   -7.9805    3.7985 C   0  0  0  0  0  0  0  0  0  0  0  0
   -0.0069   -7.8576    3.2108 C   0  0  0  0  0  0  0  0  0  0  0  0
   -0.6657   -6.6567    3.2322 O   0  0  0  0  0  0  0  0  0  0  0  0
   -0.6431   -8.9144    2.5822 C   0  0  0  0  0  0  0  0  0  0  0  0
   -0.0155  -10.1494    2.4921 C   0  0  0  0  0  0  0  0  0  0  0  0
    1.2727  -10.2971    3.0015 C   0  0  0  0  0  0  0  0  0  0  0  0
    1.9636   -9.2233    3.6088 C   0  0  0  0  0  0  0  0  0  0  0  0
    3.4109   -9.4741    4.0705 C   0  0  0  0  0  0  0  0  0  0  0  0
    3.3740  -10.1735    5.4315 C   0  0  0  0  0  0  0  0  0  0  0  0
    4.2056  -10.3184    3.0561 C   0  0  0  0  0  0  0  0  0  0  0  0
    4.1579   -8.1519    4.2632 C   0  0  0  0  0  0  0  0  0  0  0  0
    5.3805   -8.0759    4.0753 O   0  0  0  0  0  0  0  0  0  0  0  0
    4.8152   -3.5697    5.4850 C   0  0  0  0  0  0  0  0  0  0  0  0
    5.6141   -3.4155    6.4281 O   0  0  0  0  0  0  0  0  0  0  0  0
    4.1746   -2.6334    4.5822 C   0  0  1  0  0  0  0  0  0  0  0  0
    4.7640   -1.3381    4.0886 C   0  0  1  0  0  0  0  0  0  0  0  0
    3.9346   -0.0434    3.8821 C   0  0  1  0  0  0  0  0  0  0  0  0
    2.6009    0.3156    4.4680 C   0  0  1  0  0  0  0  0  0  0  0  0
    1.4384   -0.0392    3.7309 O   0  0  0  0  0  0  0  0  0  0  0  0
    0.9197    0.7146    2.7139 C   0  0  0  0  0  0  0  0  0  0  0  0
    1.8383    1.7831    2.1153 C   0  0  0  0  0  0  0  0  0  0  0  0
   -0.2138    0.5445    2.2723 O   0  0  0  0  0  0  0  0  0  0  0  0
    2.6283   -0.1582    5.9262 C   0  0  1  0  0  0  0  0  0  0  0  0
    2.1588    0.9713    6.8388 C   0  0  0  0  0  0  0  0  0  0  0  0
    1.7630   -1.4232    6.2228 C   0  0  0  0  0  0  0  0  0  0  0  0
    2.1889   -2.6878    5.7389 O   0  0  0  0  0  0  0  0  0  0  0  0
    2.6697   -2.7302    4.4163 C   0  0  2  0  0  0  0  0  0  0  0  0
    4.0154   -0.3856    6.2309 O   0  0  0  0  0  0  0  0  0  0  0  0
    4.8232   -0.1671    5.0622 C   0  0  1  0  0  0  0  0  0  0  0  0
    6.0385    0.7397    5.2798 C   0  0  0  0  0  0  0  0  0  0  0  0
    3.0842   -1.2071    0.0112 H   0  0  0  0  0  0  0  0  0  0  0  0
    3.1821   -2.1423   -1.4648 H   0  0  0  0  0  0  0  0  0  0  0  0
    4.6373   -1.8686   -0.5162 H   0  0  0  0  0  0  0  0  0  0  0  0
    2.5623   -4.7780    2.3858 H   0  0  0  0  0  0  0  0  0  0  0  0
    4.3074   -5.0558    2.4081 H   0  0  0  0  0  0  0  0  0  0  0  0
    4.6959   -6.2226    6.2831 H   0  0  0  0  0  0  0  0  0  0  0  0
   -0.1288   -6.1556    3.8374 H   0  0  0  0  0  0  0  0  0  0  0  0
   -1.6317   -8.7767    2.1689 H   0  0  0  0  0  0  0  0  0  0  0  0
   -0.5153  -10.9611    2.0026 H   0  0  0  0  0  0  0  0  0  0  0  0
    1.7178  -11.2676    2.9054 H   0  0  0  0  0  0  0  0  0  0  0  0
    2.8112   -9.5910    6.1629 H   0  0  0  0  0  0  0  0  0  0  0  0
    4.3748  -10.3307    5.8423 H   0  0  0  0  0  0  0  0  0  0  0  0
    2.8857  -11.1544    5.3693 H   0  0  0  0  0  0  0  0  0  0  0  0
    4.1956   -9.8573    2.0676 H   0  0  0  0  0  0  0  0  0  0  0  0
    3.8200  -11.3351    2.9432 H   0  0  0  0  0  0  0  0  0  0  0  0
    5.2520  -10.4395    3.3417 H   0  0  0  0  0  0  0  0  0  0  0  0
    5.6417   -1.4248    3.4447 H   0  0  0  0  0  0  0  0  0  0  0  0
    4.2647    0.6148    3.0803 H   0  0  0  0  0  0  0  0  0  0  0  0
    2.5925    1.3843    4.5733 H   0  0  0  0  0  0  0  0  0  0  0  0
    2.6909    1.3092    1.6387 H   0  0  0  0  0  0  0  0  0  0  0  0
    2.1818    2.4926    2.8676 H   0  0  0  0  0  0  0  0  0  0  0  0
    1.3035    2.3521    1.3523 H   0  0  0  0  0  0  0  0  0  0  0  0
    1.1130    1.2177    6.6503 H   0  0  0  0  0  0  0  0  0  0  0  0
    2.7464    1.8689    6.6769 H   0  0  0  0  0  0  0  0  0  0  0  0
    2.2605    0.6926    7.8891 H   0  0  0  0  0  0  0  0  0  0  0  0
    1.6612   -1.5545    7.3088 H   0  0  0  0  0  0  0  0  0  0  0  0
    0.7440   -1.3061    5.8388 H   0  0  0  0  0  0  0  0  0  0  0  0
    2.0759   -2.2675    3.5901 H   0  0  0  0  0  0  0  0  0  0  0  0
    6.5851    0.9112    4.3531 H   0  0  0  0  0  0  0  0  0  0  0  0
    6.7057    0.2782    6.0059 H   0  0  0  0  0  0  0  0  0  0  0  0
    5.7127    1.7004    5.6787 H   0  0  0  0  0  0  0  0  0  0  0  0
  1  2  1  0
  1 42  1  0
  1 43  1  0
  1 44  1  0
  2  3  2  0
  2  4  1  0
  4  5  1  0
  6  5  1  6
  5 45  1  0
  5 46  1  0
  6 26  1  0
  6 38  1  0
  6  7  1  0
  7  8  2  3
  7 24  1  0
  8  9  1  0
  8 47  1  0
  9 22  1  0
  9 10  2  0
 10 11  1  0
 10 12  1  0
 12 18  2  0
 12 13  1  0
 13 14  1  0
 13 15  2  0
 14 48  1  0
 15 16  1  0
 15 49  1  0
 16 17  2  0
 16 50  1  0
 17 18  1  0
 17 51  1  0
 18 19  1  0
 19 20  1  0
 19 21  1  0
 19 22  1  0
 20 52  1  0
 20 53  1  0
 20 54  1  0
 21 55  1  0
 21 56  1  0
 21 57  1  0
 22 23  2  0
 24 25  2  0
 26 24  1  1
 26 38  1  0
 26 27  1  0
 27 40  1  0
 27 28  1  0
 27 58  1  6
 28 40  1  0
 28 29  1  0
 28 59  1  6
 29 30  1  0
 29 34  1  0
 29 60  1  1
 30 31  1  0
 31 32  1  0
 31 33  2  0
 32 61  1  0
 32 62  1  0
 32 63  1  0
 34 35  1  1
 34 36  1  0
 34 39  1  0
 35 64  1  0
 35 65  1  0
 35 66  1  0
 36 37  1  0
 36 67  1  0
 36 68  1  0
 37 38  1  0
 38 69  1  6
 39 40  1  0
 40 41  1  1
 41 70  1  0
 41 71  1  0
 41 72  1  0
M  CHG  1  11  -1
M  END
>  <i_m_ct_stereo_status>  (136) 
1

>  <s_m_source_file>  (136) 
/var/tmp/pbs.5076255.sched01/tmp2pvlagj1/41_74nrqse.sdf

>  <i_m_source_file_index>  (136) 
13

>  <i_lp_mmshare_version>  (136) 
48012

>  <i_f3d_flags>  (136) 
0

>  <s_epik_input>  (136) 
TzFbQ0BAXTIoW0NIM10pW0NAQEhdM1tDQEhdMltDQEBIXShPQyg9TylbQ0gzXSlbQ0BAXTEoW0NIM10pW0NIMl1PW0NAQEhdNFtDQF0oW0NAQF0zNDUpKFtDSDJdT0MoPU8pW0NIM10pL0MoQzU9Tyk9W0NIXVxbQ0BIXShDNj1PKUMoPU8pQyhbQ0gzXSkoW0NIM10pYyhjNjcpW2NIXVtjSF1bY0hdYzdbT0hd

>  <s_epik_cmdline>  (136) 
J2VwaWtfcHl0aG9uJywgJy1waHQnLCAnMi4wJywgJy1waCcsICc3LjAnLCAnLXRuJywgJzgnLCAnLW1hJywgJzIwMCcsICctaW1hZScsICc8aW5maWxlLm1hZT4nLCAnLW9tYWUnLCAnPG91dGZpbGUubWFlPic=

>  <r_epik_Ionization_Penalty>  (136) 
0.119352

>  <r_epik_Ionization_Penalty_Charging>  (136) 
0.00832755

>  <r_epik_Ionization_Penalty_Neutral>  (136) 
0.111024

>  <r_epik_State_Penalty>  (136) 
0.0229307

>  <r_epik_Charging_Adjusted_Penalty>  (136) 
0.0312582

>  <i_epik_Tot_Q>  (136) 
-1

>  <i_epik_Tot_abs_Q>  (136) 
1

>  <s_epik_Chemistry_Notes>  (136) 
This compound has an ester and may undergo hydrolysis at high or low pH.

>  <s_lp_Force_Field>  (136) 
OPLS3e

>  <r_lp_Energy>  (136) 
56.1397

>  <b_lp_Chiralities_Consistent>  (136) 
1

>  <s_lp_Variant>  (136) 
40:0-1

>  <s_i_glide_gridfile>  (136) 
pfpi4k_grid

>  <i_i_glide_lignum>  (136) 
13

>  <i_i_glide_rotatable_bonds>  (136) 
7

>  <r_i_docking_score>  (136) 
-2.53051

>  <r_i_glide_ligand_efficiency>  (136) 
-0.0617198

>  <r_i_glide_ligand_efficiency_sa>  (136) 
-0.212823

>  <r_i_glide_ligand_efficiency_ln>  (136) 
-0.536857

>  <r_i_glide_gscore>  (136) 
-2.53051

>  <r_i_glide_lipo>  (136) 
-0.505717

>  <r_i_glide_hbond>  (136) 
0

>  <r_i_glide_metal>  (136) 
-0

>  <r_i_glide_rewards>  (136) 
-0.510071

>  <r_i_glide_evdw>  (136) 
-29.8518

>  <r_i_glide_ecoul>  (136) 
-1.06693

>  <r_i_glide_erotb>  (136) 
0.178757

>  <r_i_glide_esite>  (136) 
-0.0408513

>  <r_i_glide_emodel>  (136) 
-37.6029

>  <r_i_glide_energy>  (136) 
-30.9187

>  <r_i_glide_einternal>  (136) 
7.26784

>  <r_i_glide_intrahb_reward>  (136) 
-0.5

>  <i_i_glide_confnum>  (136) 
4

>  <i_i_glide_posenum>  (136) 
10

>  <r_i_glide_eff_state_penalty>  (136) 
0

>  <ligand_id>  (136) 
40

>  <original_smiles>  (136) 
CC(=O)OCC12C(=CC3C(=O)c4c(O)cccc4C(C)(C)C3=O)C(=O)C13C1C4C(OC(C)=O)C(C)(COC23)OC41C

>  <smiles>  (136) 
[H]Oc1c([H])c([H])c([H])c2c1C([O-])=C(C([H])=C1C(=O)C34C([H])(OC([H])([H])C5(C([H])([H])[H])OC6(C([H])([H])[H])C([H])(C5([H])OC(=O)C([H])([H])[H])C63[H])C14C([H])([H])OC(=O)C([H])([H])[H])C(=O)C2(C([H])([H])[H])C([H])([H])[H]

$$$$
40:0:1
     RDKit          3D

 72 78  0  0  1  0  0  0  0  0999 V2000
    5.7338   -5.3192    6.5264 C   0  0  0  0  0  0  0  0  0  0  0  0
    5.7397   -3.7960    6.3123 C   0  0  0  0  0  0  0  0  0  0  0  0
    6.7122   -3.1400    6.6811 O   0  0  0  0  0  0  0  0  0  0  0  0
    4.6216   -3.2503    5.7535 O   0  0  0  0  0  0  0  0  0  0  0  0
    3.5825   -4.0822    5.2947 C   0  0  0  0  0  0  0  0  0  0  0  0
    2.3127   -3.3779    4.8850 C   0  0  1  0  0  0  0  0  0  0  0  0
    0.9707   -3.8525    5.3316 C   0  0  0  0  0  0  0  0  0  0  0  0
    0.3619   -5.0653    5.2445 C   0  0  0  0  0  0  0  0  0  0  0  0
    0.9486   -6.2913    4.6625 C   0  0  0  0  0  0  0  0  0  0  0  0
    1.0083   -7.4307    5.4428 C   0  0  0  0  0  0  0  0  0  0  0  0
    0.6891   -7.4913    6.6560 O   0  0  0  0  0  0  0  0  0  0  0  0
    1.6230   -8.6902    4.8550 C   0  0  0  0  0  0  0  0  0  0  0  0
    1.4442   -9.9929    5.4156 C   0  0  0  0  0  0  0  0  0  0  0  0
    0.6263  -10.2621    6.4768 O   0  0  0  0  0  0  0  0  0  0  0  0
    2.1259  -11.0971    4.8750 C   0  0  0  0  0  0  0  0  0  0  0  0
    2.9811  -10.9651    3.7812 C   0  0  0  0  0  0  0  0  0  0  0  0
    3.1130   -9.7150    3.1809 C   0  0  0  0  0  0  0  0  0  0  0  0
    2.4062   -8.5841    3.6556 C   0  0  0  0  0  0  0  0  0  0  0  0
    2.5659   -7.2504    2.9112 C   0  0  0  0  0  0  0  0  0  0  0  0
    3.9221   -6.6492    3.3145 C   0  0  0  0  0  0  0  0  0  0  0  0
    2.5559   -7.4408    1.3741 C   0  0  0  0  0  0  0  0  0  0  0  0
    1.4456   -6.2514    3.2847 C   0  0  0  0  0  0  0  0  0  0  0  0
    1.0100   -5.4645    2.4396 O   0  0  0  0  0  0  0  0  0  0  0  0
    0.6163   -2.6118    5.7393 C   0  0  0  0  0  0  0  0  0  0  0  0
   -0.4203   -2.1455    6.2314 O   0  0  0  0  0  0  0  0  0  0  0  0
    1.8921   -1.9713    5.2722 C   0  0  1  0  0  0  0  0  0  0  0  0
    2.5513   -0.7495    5.8808 C   0  0  1  0  0  0  0  0  0  0  0  0
    3.2468    0.3419    5.0456 C   0  0  1  0  0  0  0  0  0  0  0  0
    3.1116    0.6306    3.5686 C   0  0  1  0  0  0  0  0  0  0  0  0
    3.9621   -0.0985    2.6840 O   0  0  0  0  0  0  0  0  0  0  0  0
    5.2810   -0.2701    2.9235 C   0  0  0  0  0  0  0  0  0  0  0  0
    5.9776   -1.0680    1.8227 C   0  0  0  0  0  0  0  0  0  0  0  0
    5.9169    0.1404    3.8901 O   0  0  0  0  0  0  0  0  0  0  0  0
    1.6002    0.4862    3.2603 C   0  0  1  0  0  0  0  0  0  0  0  0
    1.0799    1.7210    2.5175 C   0  0  0  0  0  0  0  0  0  0  0  0
    1.2034   -0.7800    2.4337 C   0  0  0  0  0  0  0  0  0  0  0  0
    1.1988   -2.0638    3.0430 O   0  0  0  0  0  0  0  0  0  0  0  0
    2.3301   -2.3140    3.8627 C   0  0  2  0  0  0  0  0  0  0  0  0
    0.9450    0.4947    4.5403 O   0  0  0  0  0  0  0  0  0  0  0  0
    1.8920    0.5768    5.6160 C   0  0  1  0  0  0  0  0  0  0  0  0
    1.6232    1.6283    6.6786 C   0  0  0  0  0  0  0  0  0  0  0  0
    4.8592   -5.6233    7.1051 H   0  0  0  0  0  0  0  0  0  0  0  0
    6.6103   -5.6567    7.0910 H   0  0  0  0  0  0  0  0  0  0  0  0
    5.7326   -5.8528    5.5745 H   0  0  0  0  0  0  0  0  0  0  0  0
    3.9466   -4.4846    4.3613 H   0  0  0  0  0  0  0  0  0  0  0  0
    3.3173   -4.8917    5.9613 H   0  0  0  0  0  0  0  0  0  0  0  0
   -0.6855   -5.1337    5.5522 H   0  0  0  0  0  0  0  0  0  0  0  0
    0.8197  -11.1093    6.8706 H   0  0  0  0  0  0  0  0  0  0  0  0
    2.0005  -12.0740    5.3011 H   0  0  0  0  0  0  0  0  0  0  0  0
    3.5097  -11.8202    3.3907 H   0  0  0  0  0  0  0  0  0  0  0  0
    3.7779   -9.6432    2.3339 H   0  0  0  0  0  0  0  0  0  0  0  0
    3.9412   -6.5259    4.3939 H   0  0  0  0  0  0  0  0  0  0  0  0
    4.0719   -5.6889    2.8276 H   0  0  0  0  0  0  0  0  0  0  0  0
    4.7828   -7.2839    3.0611 H   0  0  0  0  0  0  0  0  0  0  0  0
    1.6405   -7.9497    1.0631 H   0  0  0  0  0  0  0  0  0  0  0  0
    3.4107   -8.0189    1.0123 H   0  0  0  0  0  0  0  0  0  0  0  0
    2.6051   -6.4885    0.8418 H   0  0  0  0  0  0  0  0  0  0  0  0
    2.9499   -0.8930    6.8792 H   0  0  0  0  0  0  0  0  0  0  0  0
    4.0827    0.8470    5.5238 H   0  0  0  0  0  0  0  0  0  0  0  0
    3.3782    1.6759    3.4262 H   0  0  0  0  0  0  0  0  0  0  0  0
    5.9184   -0.5109    0.8797 H   0  0  0  0  0  0  0  0  0  0  0  0
    5.4867   -2.0359    1.6998 H   0  0  0  0  0  0  0  0  0  0  0  0
    7.0227   -1.2115    2.0747 H   0  0  0  0  0  0  0  0  0  0  0  0
    1.5274    1.8097    1.5295 H   0  0  0  0  0  0  0  0  0  0  0  0
    1.3047    2.6296    3.0691 H   0  0  0  0  0  0  0  0  0  0  0  0
   -0.0015    1.6824    2.3826 H   0  0  0  0  0  0  0  0  0  0  0  0
    0.1924   -0.6611    2.0744 H   0  0  0  0  0  0  0  0  0  0  0  0
    1.8020   -0.8825    1.5353 H   0  0  0  0  0  0  0  0  0  0  0  0
    3.3181   -2.1740    3.4492 H   0  0  0  0  0  0  0  0  0  0  0  0
    2.4243    1.6493    7.4196 H   0  0  0  0  0  0  0  0  0  0  0  0
    0.6866    1.4105    7.1875 H   0  0  0  0  0  0  0  0  0  0  0  0
    1.5527    2.6159    6.2248 H   0  0  0  0  0  0  0  0  0  0  0  0
  1  2  1  0
  1 42  1  0
  1 43  1  0
  1 44  1  0
  2  3  2  0
  2  4  1  0
  4  5  1  0
  6  5  1  1
  5 45  1  0
  5 46  1  0
  6 26  1  0
  6 38  1  0
  6  7  1  0
  7  8  2  3
  7 24  1  0
  8  9  1  0
  8 47  1  0
  9 22  1  0
  9 10  2  0
 10 11  1  0
 10 12  1  0
 12 18  2  0
 12 13  1  0
 13 14  1  0
 13 15  2  0
 14 48  1  0
 15 16  1  0
 15 49  1  0
 16 17  2  0
 16 50  1  0
 17 18  1  0
 17 51  1  0
 18 19  1  0
 19 20  1  0
 19 21  1  0
 19 22  1  0
 20 52  1  0
 20 53  1  0
 20 54  1  0
 21 55  1  0
 21 56  1  0
 21 57  1  0
 22 23  2  0
 24 25  2  0
 26 24  1  6
 26 38  1  0
 26 27  1  0
 27 40  1  0
 27 28  1  0
 27 58  1  1
 28 40  1  0
 28 29  1  0
 28 59  1  1
 29 30  1  0
 29 34  1  0
 29 60  1  1
 30 31  1  0
 31 32  1  0
 31 33  2  0
 32 61  1  0
 32 62  1  0
 32 63  1  0
 34 35  1  6
 34 36  1  0
 34 39  1  0
 35 64  1  0
 35 65  1  0
 35 66  1  0
 36 37  1  0
 36 67  1  0
 36 68  1  0
 37 38  1  0
 38 69  1  6
 39 40  1  0
 40 41  1  1
 41 70  1  0
 41 71  1  0
 41 72  1  0
M  CHG  1  11  -1
M  END
>  <i_m_ct_stereo_status>  (137) 
1

>  <s_m_source_file>  (137) 
/var/tmp/pbs.5076255.sched01/tmp2pvlagj1/41_74nrqse.sdf

>  <i_m_source_file_index>  (137) 
13

>  <i_lp_mmshare_version>  (137) 
48012

>  <i_f3d_flags>  (137) 
0

>  <s_epik_input>  (137) 
TzFbQ0BAXTIoW0NIM10pW0NAQEhdM1tDQEhdMltDQEBIXShPQyg9TylbQ0gzXSlbQ0BAXTEoW0NIM10pW0NIMl1PW0NAQEhdNFtDQF0oW0NAQF0zNDUpKFtDSDJdT0MoPU8pW0NIM10pL0MoQzU9Tyk9W0NIXVxbQ0BIXShDNj1PKUMoPU8pQyhbQ0gzXSkoW0NIM10pYyhjNjcpW2NIXVtjSF1bY0hdYzdbT0hd

>  <s_epik_cmdline>  (137) 
J2VwaWtfcHl0aG9uJywgJy1waHQnLCAnMi4wJywgJy1waCcsICc3LjAnLCAnLXRuJywgJzgnLCAnLW1hJywgJzIwMCcsICctaW1hZScsICc8aW5maWxlLm1hZT4nLCAnLW9tYWUnLCAnPG91dGZpbGUubWFlPic=

>  <r_epik_Ionization_Penalty>  (137) 
0.119352

>  <r_epik_Ionization_Penalty_Charging>  (137) 
0.00832755

>  <r_epik_Ionization_Penalty_Neutral>  (137) 
0.111024

>  <r_epik_State_Penalty>  (137) 
0.0229307

>  <r_epik_Charging_Adjusted_Penalty>  (137) 
0.0312582

>  <i_epik_Tot_Q>  (137) 
-1

>  <i_epik_Tot_abs_Q>  (137) 
1

>  <s_epik_Chemistry_Notes>  (137) 
This compound has an ester and may undergo hydrolysis at high or low pH.

>  <s_lp_Force_Field>  (137) 
OPLS3e

>  <r_lp_Energy>  (137) 
56.1397

>  <b_lp_Chiralities_Consistent>  (137) 
1

>  <s_lp_Variant>  (137) 
40:0-1

>  <s_i_glide_gridfile>  (137) 
pfpi4k_grid

>  <i_i_glide_lignum>  (137) 
13

>  <i_i_glide_rotatable_bonds>  (137) 
7

>  <r_i_docking_score>  (137) 
-2.31679

>  <r_i_glide_ligand_efficiency>  (137) 
-0.0565071

>  <r_i_glide_ligand_efficiency_sa>  (137) 
-0.194849

>  <r_i_glide_ligand_efficiency_ln>  (137) 
-0.491515

>  <r_i_glide_gscore>  (137) 
-2.31679

>  <r_i_glide_lipo>  (137) 
-0.12407

>  <r_i_glide_hbond>  (137) 
-0.0435582

>  <r_i_glide_metal>  (137) 
-0

>  <r_i_glide_rewards>  (137) 
-0.186846

>  <r_i_glide_evdw>  (137) 
-25.0196

>  <r_i_glide_ecoul>  (137) 
-5.77437

>  <r_i_glide_erotb>  (137) 
0.178757

>  <r_i_glide_esite>  (137) 
-0.0239351

>  <r_i_glide_emodel>  (137) 
-29.7875

>  <r_i_glide_energy>  (137) 
-30.794

>  <r_i_glide_einternal>  (137) 
10.992

>  <r_i_glide_intrahb_reward>  (137) 
-0

>  <i_i_glide_confnum>  (137) 
3

>  <i_i_glide_posenum>  (137) 
15

>  <r_i_glide_eff_state_penalty>  (137) 
0

>  <ligand_id>  (137) 
40

>  <original_smiles>  (137) 
CC(=O)OCC12C(=CC3C(=O)c4c(O)cccc4C(C)(C)C3=O)C(=O)C13C1C4C(OC(C)=O)C(C)(COC23)OC41C

>  <smiles>  (137) 
[H]Oc1c([H])c([H])c([H])c2c1C([O-])=C(C([H])=C1C(=O)C34C([H])(OC([H])([H])C5(C([H])([H])[H])OC6(C([H])([H])[H])C([H])(C5([H])OC(=O)C([H])([H])[H])C63[H])C14C([H])([H])OC(=O)C([H])([H])[H])C(=O)C2(C([H])([H])[H])C([H])([H])[H]

$$$$
40:0:2
     RDKit          3D

 72 78  0  0  1  0  0  0  0  0999 V2000
    6.4889   -2.9172    6.9112 C   0  0  0  0  0  0  0  0  0  0  0  0
    5.6034   -3.9250    6.1978 C   0  0  0  0  0  0  0  0  0  0  0  0
    6.0843   -4.9373    5.6741 O   0  0  0  0  0  0  0  0  0  0  0  0
    4.2882   -3.5481    6.2462 O   0  0  0  0  0  0  0  0  0  0  0  0
    3.3079   -4.3725    5.6600 C   0  0  0  0  0  0  0  0  0  0  0  0
    2.0342   -3.6655    5.2208 C   0  0  1  0  0  0  0  0  0  0  0  0
    0.6698   -4.2134    5.5079 C   0  0  0  0  0  0  0  0  0  0  0  0
    0.0977   -5.4102    5.2325 C   0  0  0  0  0  0  0  0  0  0  0  0
    0.7697   -6.5447    4.5848 C   0  0  0  0  0  0  0  0  0  0  0  0
    0.8801   -7.7325    5.2853 C   0  0  0  0  0  0  0  0  0  0  0  0
    0.5412   -7.9105    6.4799 O   0  0  0  0  0  0  0  0  0  0  0  0
    1.5800   -8.9106    4.6245 C   0  0  0  0  0  0  0  0  0  0  0  0
    1.4582  -10.2570    5.0834 C   0  0  0  0  0  0  0  0  0  0  0  0
    0.6249  -10.6333    6.0960 O   0  0  0  0  0  0  0  0  0  0  0  0
    2.2156  -11.3056    4.4983 C   0  0  0  0  0  0  0  0  0  0  0  0
    3.0927  -11.0435    3.4438 C   0  0  0  0  0  0  0  0  0  0  0  0
    3.1763   -9.7421    2.9371 C   0  0  0  0  0  0  0  0  0  0  0  0
    2.3925   -8.6841    3.4700 C   0  0  0  0  0  0  0  0  0  0  0  0
    2.4999   -7.2905    2.8281 C   0  0  0  0  0  0  0  0  0  0  0  0
    3.8042   -6.6543    3.3302 C   0  0  0  0  0  0  0  0  0  0  0  0
    2.5470   -7.3699    1.2808 C   0  0  0  0  0  0  0  0  0  0  0  0
    1.3131   -6.3720    3.2281 C   0  0  0  0  0  0  0  0  0  0  0  0
    0.9028   -5.5175    2.4367 O   0  0  0  0  0  0  0  0  0  0  0  0
    0.2593   -3.0128    6.0037 C   0  0  0  0  0  0  0  0  0  0  0  0
   -0.8281   -2.6120    6.4059 O   0  0  0  0  0  0  0  0  0  0  0  0
    1.5346   -2.2972    5.6965 C   0  0  1  0  0  0  0  0  0  0  0  0
    2.1080   -1.1260    6.4898 C   0  0  1  0  0  0  0  0  0  0  0  0
    2.8381    0.0529    5.8202 C   0  0  1  0  0  0  0  0  0  0  0  0
    2.8050    0.4937    4.3739 C   0  0  1  0  0  0  0  0  0  0  0  0
    3.7559   -0.1204    3.5069 O   0  0  0  0  0  0  0  0  0  0  0  0
    5.0790   -0.0209    3.7183 C   0  0  0  0  0  0  0  0  0  0  0  0
    5.8774   -0.6857    2.6097 C   0  0  0  0  0  0  0  0  0  0  0  0
    5.6304    0.5417    4.6646 O   0  0  0  0  0  0  0  0  0  0  0  0
    1.3300    0.3378    3.9254 C   0  0  1  0  0  0  0  0  0  0  0  0
    0.8397    1.6355    3.2664 C   0  0  0  0  0  0  0  0  0  0  0  0
    1.0396   -0.8511    2.9461 C   0  0  0  0  0  0  0  0  0  0  0  0
    1.0321   -2.1850    3.4366 O   0  0  0  0  0  0  0  0  0  0  0  0
    2.1079   -2.4880    4.3159 C   0  0  2  0  0  0  0  0  0  0  0  0
    0.5827    0.2061    5.1472 O   0  0  0  0  0  0  0  0  0  0  0  0
    1.4333    0.2032    6.3010 C   0  0  1  0  0  0  0  0  0  0  0  0
    1.0304    1.1375    7.4292 C   0  0  0  0  0  0  0  0  0  0  0  0
    6.3523   -1.9332    6.4659 H   0  0  0  0  0  0  0  0  0  0  0  0
    7.5443   -3.1848    6.8586 H   0  0  0  0  0  0  0  0  0  0  0  0
    6.1975   -2.8653    7.9586 H   0  0  0  0  0  0  0  0  0  0  0  0
    3.7344   -4.6612    4.7330 H   0  0  0  0  0  0  0  0  0  0  0  0
    3.1077   -5.2708    6.2416 H   0  0  0  0  0  0  0  0  0  0  0  0
   -0.9703   -5.5177    5.4109 H   0  0  0  0  0  0  0  0  0  0  0  0
    0.9495  -11.3271    6.6534 H   0  0  0  0  0  0  0  0  0  0  0  0
    2.1167  -12.3114    4.8688 H   0  0  0  0  0  0  0  0  0  0  0  0
    3.6747  -11.8439    3.0114 H   0  0  0  0  0  0  0  0  0  0  0  0
    3.8615   -9.5813    2.1196 H   0  0  0  0  0  0  0  0  0  0  0  0
    3.7939   -6.6689    4.4187 H   0  0  0  0  0  0  0  0  0  0  0  0
    3.9059   -5.6323    2.9552 H   0  0  0  0  0  0  0  0  0  0  0  0
    4.7110   -7.1854    3.0514 H   0  0  0  0  0  0  0  0  0  0  0  0
    1.6701   -7.9022    0.9103 H   0  0  0  0  0  0  0  0  0  0  0  0
    3.4343   -7.8805    0.9098 H   0  0  0  0  0  0  0  0  0  0  0  0
    2.5563   -6.3829    0.8147 H   0  0  0  0  0  0  0  0  0  0  0  0
    2.4157   -1.3446    7.5086 H   0  0  0  0  0  0  0  0  0  0  0  0
    3.6172    0.5253    6.4086 H   0  0  0  0  0  0  0  0  0  0  0  0
    3.0432    1.5596    4.3642 H   0  0  0  0  0  0  0  0  0  0  0  0
    5.7060   -0.1821    1.6590 H   0  0  0  0  0  0  0  0  0  0  0  0
    5.6003   -1.7341    2.5132 H   0  0  0  0  0  0  0  0  0  0  0  0
    6.9422   -0.6337    2.8341 H   0  0  0  0  0  0  0  0  0  0  0  0
    1.3666    1.8428    2.3349 H   0  0  0  0  0  0  0  0  0  0  0  0
    0.9891    2.4881    3.9254 H   0  0  0  0  0  0  0  0  0  0  0  0
   -0.2242    1.5925    3.0352 H   0  0  0  0  0  0  0  0  0  0  0  0
    0.0571   -0.7173    2.5136 H   0  0  0  0  0  0  0  0  0  0  0  0
    1.7119   -0.8385    2.0941 H   0  0  0  0  0  0  0  0  0  0  0  0
    3.1162   -2.2710    4.0054 H   0  0  0  0  0  0  0  0  0  0  0  0
    1.7595    1.1025    8.2398 H   0  0  0  0  0  0  0  0  0  0  0  0
    0.0614    0.8468    7.8308 H   0  0  0  0  0  0  0  0  0  0  0  0
    0.9638    2.1686    7.0801 H   0  0  0  0  0  0  0  0  0  0  0  0
  1  2  1  0
  1 42  1  0
  1 43  1  0
  1 44  1  0
  2  3  2  0
  2  4  1  0
  4  5  1  0
  6  5  1  1
  5 45  1  0
  5 46  1  0
  6 26  1  0
  6 38  1  0
  6  7  1  0
  7  8  2  3
  7 24  1  0
  8  9  1  0
  8 47  1  0
  9 22  1  0
  9 10  2  0
 10 11  1  0
 10 12  1  0
 12 18  2  0
 12 13  1  0
 13 14  1  0
 13 15  2  0
 14 48  1  0
 15 16  1  0
 15 49  1  0
 16 17  2  0
 16 50  1  0
 17 18  1  0
 17 51  1  0
 18 19  1  0
 19 20  1  0
 19 21  1  0
 19 22  1  0
 20 52  1  0
 20 53  1  0
 20 54  1  0
 21 55  1  0
 21 56  1  0
 21 57  1  0
 22 23  2  0
 24 25  2  0
 26 24  1  6
 26 38  1  0
 26 27  1  0
 27 40  1  0
 27 28  1  0
 27 58  1  1
 28 40  1  0
 28 29  1  0
 28 59  1  1
 29 30  1  0
 29 34  1  0
 29 60  1  1
 30 31  1  0
 31 32  1  0
 31 33  2  0
 32 61  1  0
 32 62  1  0
 32 63  1  0
 34 35  1  6
 34 36  1  0
 34 39  1  0
 35 64  1  0
 35 65  1  0
 35 66  1  0
 36 37  1  0
 36 67  1  0
 36 68  1  0
 37 38  1  0
 38 69  1  6
 39 40  1  0
 40 41  1  1
 41 70  1  0
 41 71  1  0
 41 72  1  0
M  CHG  1  11  -1
M  END
>  <i_m_ct_stereo_status>  (138) 
1

>  <s_m_source_file>  (138) 
/var/tmp/pbs.5076255.sched01/tmp2pvlagj1/41_74nrqse.sdf

>  <i_m_source_file_index>  (138) 
13

>  <i_lp_mmshare_version>  (138) 
48012

>  <i_f3d_flags>  (138) 
0

>  <s_epik_input>  (138) 
TzFbQ0BAXTIoW0NIM10pW0NAQEhdM1tDQEhdMltDQEBIXShPQyg9TylbQ0gzXSlbQ0BAXTEoW0NIM10pW0NIMl1PW0NAQEhdNFtDQF0oW0NAQF0zNDUpKFtDSDJdT0MoPU8pW0NIM10pL0MoQzU9Tyk9W0NIXVxbQ0BIXShDNj1PKUMoPU8pQyhbQ0gzXSkoW0NIM10pYyhjNjcpW2NIXVtjSF1bY0hdYzdbT0hd

>  <s_epik_cmdline>  (138) 
J2VwaWtfcHl0aG9uJywgJy1waHQnLCAnMi4wJywgJy1waCcsICc3LjAnLCAnLXRuJywgJzgnLCAnLW1hJywgJzIwMCcsICctaW1hZScsICc8aW5maWxlLm1hZT4nLCAnLW9tYWUnLCAnPG91dGZpbGUubWFlPic=

>  <r_epik_Ionization_Penalty>  (138) 
0.119352

>  <r_epik_Ionization_Penalty_Charging>  (138) 
0.00832755

>  <r_epik_Ionization_Penalty_Neutral>  (138) 
0.111024

>  <r_epik_State_Penalty>  (138) 
0.0229307

>  <r_epik_Charging_Adjusted_Penalty>  (138) 
0.0312582

>  <i_epik_Tot_Q>  (138) 
-1

>  <i_epik_Tot_abs_Q>  (138) 
1

>  <s_epik_Chemistry_Notes>  (138) 
This compound has an ester and may undergo hydrolysis at high or low pH.

>  <s_lp_Force_Field>  (138) 
OPLS3e

>  <r_lp_Energy>  (138) 
56.1397

>  <b_lp_Chiralities_Consistent>  (138) 
1

>  <s_lp_Variant>  (138) 
40:0-1

>  <s_i_glide_gridfile>  (138) 
pfpi4k_grid

>  <i_i_glide_lignum>  (138) 
13

>  <i_i_glide_rotatable_bonds>  (138) 
7

>  <r_i_docking_score>  (138) 
-2.17443

>  <r_i_glide_ligand_efficiency>  (138) 
-0.0530349

>  <r_i_glide_ligand_efficiency_sa>  (138) 
-0.182876

>  <r_i_glide_ligand_efficiency_ln>  (138) 
-0.461313

>  <r_i_glide_gscore>  (138) 
-2.17443

>  <r_i_glide_lipo>  (138) 
-0.0856901

>  <r_i_glide_hbond>  (138) 
-0.0616434

>  <r_i_glide_metal>  (138) 
-0

>  <r_i_glide_rewards>  (138) 
-0.139187

>  <r_i_glide_evdw>  (138) 
-21.2588

>  <r_i_glide_ecoul>  (138) 
-6.47688

>  <r_i_glide_erotb>  (138) 
0.178757

>  <r_i_glide_esite>  (138) 
-0.0321944

>  <r_i_glide_emodel>  (138) 
-28.4185

>  <r_i_glide_energy>  (138) 
-27.7357

>  <r_i_glide_einternal>  (138) 
5.29354

>  <r_i_glide_intrahb_reward>  (138) 
-0

>  <i_i_glide_confnum>  (138) 
3

>  <i_i_glide_posenum>  (138) 
1

>  <r_i_glide_eff_state_penalty>  (138) 
0

>  <ligand_id>  (138) 
40

>  <original_smiles>  (138) 
CC(=O)OCC12C(=CC3C(=O)c4c(O)cccc4C(C)(C)C3=O)C(=O)C13C1C4C(OC(C)=O)C(C)(COC23)OC41C

>  <smiles>  (138) 
[H]Oc1c([H])c([H])c([H])c2c1C([O-])=C(C([H])=C1C(=O)C34C([H])(OC([H])([H])C5(C([H])([H])[H])OC6(C([H])([H])[H])C([H])(C5([H])OC(=O)C([H])([H])[H])C63[H])C14C([H])([H])OC(=O)C([H])([H])[H])C(=O)C2(C([H])([H])[H])C([H])([H])[H]

$$$$
40:2:0
     RDKit          3D

 73 79  0  0  1  0  0  0  0  0999 V2000
    5.6762   -0.7273    2.4379 C   0  0  0  0  0  0  0  0  0  0  0  0
    5.0519   -0.2793    3.7628 C   0  0  0  0  0  0  0  0  0  0  0  0
    5.6401    0.5030    4.5083 O   0  0  0  0  0  0  0  0  0  0  0  0
    3.8290   -0.8298    3.9550 O   0  0  0  0  0  0  0  0  0  0  0  0
    2.9721   -0.4404    5.0253 C   0  0  0  0  0  0  0  0  0  0  0  0
    1.5250   -0.4956    4.5475 C   0  0  1  0  0  0  0  0  0  0  0  0
    0.7154   -1.7532    4.5685 C   0  0  0  0  0  0  0  0  0  0  0  0
    0.9043   -2.9830    4.0246 C   0  0  0  0  0  0  0  0  0  0  0  0
    2.1732   -3.4318    3.2690 C   0  0  2  0  0  0  0  0  0  0  0  0
    2.4398   -2.6200    1.9673 C   0  0  0  0  0  0  0  0  0  0  0  0
    1.9514   -1.4955    1.8532 O   0  0  0  0  0  0  0  0  0  0  0  0
    3.3421   -3.1959    0.9119 C   0  0  0  0  0  0  0  0  0  0  0  0
    3.7730   -2.4067   -0.1952 C   0  0  0  0  0  0  0  0  0  0  0  0
    3.4280   -1.1044   -0.3888 O   0  0  0  0  0  0  0  0  0  0  0  0
    4.6072   -2.9357   -1.1805 C   0  0  0  0  0  0  0  0  0  0  0  0
    5.0429   -4.2639   -1.0801 C   0  0  0  0  0  0  0  0  0  0  0  0
    4.6526   -5.0578    0.0093 C   0  0  0  0  0  0  0  0  0  0  0  0
    3.7880   -4.5568    1.0062 C   0  0  0  0  0  0  0  0  0  0  0  0
    3.3828   -5.4783    2.1719 C   0  0  0  0  0  0  0  0  0  0  0  0
    3.0350   -6.8993    1.6554 C   0  0  0  0  0  0  0  0  0  0  0  0
    4.5420   -5.5642    3.1830 C   0  0  0  0  0  0  0  0  0  0  0  0
    2.1436   -4.9259    2.9194 C   0  0  0  0  0  0  0  0  0  0  0  0
    1.1872   -5.6284    3.2291 O   0  0  0  0  0  0  0  0  0  0  0  0
   -0.3035   -1.1432    5.1509 C   0  0  0  0  0  0  0  0  0  0  0  0
   -1.4435   -1.5393    5.4744 O   0  0  0  0  0  0  0  0  0  0  0  0
    0.3084    0.2016    5.1682 C   0  0  1  0  0  0  0  0  0  0  0  0
    0.0285    1.2912    6.1900 C   0  0  1  0  0  0  0  0  0  0  0  0
   -0.0899    2.7908    5.8313 C   0  0  1  0  0  0  0  0  0  0  0  0
   -0.3473    3.4226    4.4921 C   0  0  1  0  0  0  0  0  0  0  0  0
    0.8244    3.6664    3.7238 O   0  0  0  0  0  0  0  0  0  0  0  0
    1.4931    4.8236    3.8102 C   0  0  0  0  0  0  0  0  0  0  0  0
    2.7032    4.8689    2.8797 C   0  0  0  0  0  0  0  0  0  0  0  0
    1.1987    5.7693    4.5398 O   0  0  0  0  0  0  0  0  0  0  0  0
   -1.4146    2.5377    3.8078 C   0  0  1  0  0  0  0  0  0  0  0  0
   -2.5597    3.4031    3.2826 C   0  0  0  0  0  0  0  0  0  0  0  0
   -0.9062    1.6441    2.6295 C   0  0  0  0  0  0  0  0  0  0  0  0
   -0.1135    0.5054    2.9212 O   0  0  0  0  0  0  0  0  0  0  0  0
    0.9248    0.6952    3.8776 C   0  0  2  0  0  0  0  0  0  0  0  0
   -1.9692    1.7371    4.8640 O   0  0  0  0  0  0  0  0  0  0  0  0
   -1.3122    1.9879    6.1129 C   0  0  1  0  0  0  0  0  0  0  0  0
   -2.2270    2.2395    7.3004 C   0  0  0  0  0  0  0  0  0  0  0  0
    4.9784   -1.2999    1.8371 H   0  0  0  0  0  0  0  0  0  0  0  0
    6.5521   -1.3542    2.5906 H   0  0  0  0  0  0  0  0  0  0  0  0
    5.9772    0.1209    1.8246 H   0  0  0  0  0  0  0  0  0  0  0  0
    3.1118   -1.1104    5.8724 H   0  0  0  0  0  0  0  0  0  0  0  0
    3.1701    0.5813    5.3450 H   0  0  0  0  0  0  0  0  0  0  0  0
    0.0470   -3.6528    4.0387 H   0  0  0  0  0  0  0  0  0  0  0  0
    2.9757   -3.2714    3.9870 H   0  0  0  0  0  0  0  0  0  0  0  0
    2.4719   -0.9721   -0.3129 H   0  0  0  0  0  0  0  0  0  0  0  0
    4.9013   -2.3268   -2.0197 H   0  0  0  0  0  0  0  0  0  0  0  0
    5.6681   -4.6560   -1.8517 H   0  0  0  0  0  0  0  0  0  0  0  0
    5.0220   -6.0760    0.0536 H   0  0  0  0  0  0  0  0  0  0  0  0
    2.2603   -6.8535    0.8909 H   0  0  0  0  0  0  0  0  0  0  0  0
    2.6697   -7.5579    2.4427 H   0  0  0  0  0  0  0  0  0  0  0  0
    3.8879   -7.4117    1.2193 H   0  0  0  0  0  0  0  0  0  0  0  0
    4.8507   -4.5745    3.5225 H   0  0  0  0  0  0  0  0  0  0  0  0
    5.4169   -6.0349    2.7377 H   0  0  0  0  0  0  0  0  0  0  0  0
    4.2702   -6.1426    4.0677 H   0  0  0  0  0  0  0  0  0  0  0  0
    0.3636    1.0655    7.1959 H   0  0  0  0  0  0  0  0  0  0  0  0
    0.2468    3.4849    6.5947 H   0  0  0  0  0  0  0  0  0  0  0  0
   -0.8243    4.3776    4.6997 H   0  0  0  0  0  0  0  0  0  0  0  0
    2.3893    4.7192    1.8477 H   0  0  0  0  0  0  0  0  0  0  0  0
    3.4089    4.0788    3.1422 H   0  0  0  0  0  0  0  0  0  0  0  0
    3.2148    5.8310    2.9531 H   0  0  0  0  0  0  0  0  0  0  0  0
   -2.2157    4.0740    2.4964 H   0  0  0  0  0  0  0  0  0  0  0  0
   -2.9692    3.9995    4.0900 H   0  0  0  0  0  0  0  0  0  0  0  0
   -3.3698    2.7953    2.8797 H   0  0  0  0  0  0  0  0  0  0  0  0
   -1.7519    1.2416    2.0709 H   0  0  0  0  0  0  0  0  0  0  0  0
   -0.3388    2.2212    1.9065 H   0  0  0  0  0  0  0  0  0  0  0  0
    1.6088    1.5302    3.7809 H   0  0  0  0  0  0  0  0  0  0  0  0
   -1.6534    2.4746    8.1999 H   0  0  0  0  0  0  0  0  0  0  0  0
   -2.8337    1.3574    7.4969 H   0  0  0  0  0  0  0  0  0  0  0  0
   -2.8965    3.0741    7.0930 H   0  0  0  0  0  0  0  0  0  0  0  0
  1  2  1  0
  1 42  1  0
  1 43  1  0
  1 44  1  0
  2  3  2  0
  2  4  1  0
  4  5  1  0
  6  5  1  1
  5 45  1  0
  5 46  1  0
  6 26  1  0
  6 38  1  0
  6  7  1  0
  7  8  2  3
  7 24  1  0
  8  9  1  0
  8 47  1  0
  9 22  1  0
  9 10  1  0
  9 48  1  1
 10 11  2  0
 10 12  1  0
 12 18  2  0
 12 13  1  0
 13 14  1  0
 13 15  2  0
 14 49  1  0
 15 16  1  0
 15 50  1  0
 16 17  2  0
 16 51  1  0
 17 18  1  0
 17 52  1  0
 18 19  1  0
 19 20  1  0
 19 21  1  0
 19 22  1  0
 20 53  1  0
 20 54  1  0
 20 55  1  0
 21 56  1  0
 21 57  1  0
 21 58  1  0
 22 23  2  0
 24 25  2  0
 26 24  1  6
 26 38  1  0
 26 27  1  0
 27 40  1  0
 27 28  1  0
 27 59  1  1
 28 40  1  0
 28 29  1  0
 28 60  1  1
 29 30  1  0
 29 34  1  0
 29 61  1  1
 30 31  1  0
 31 32  1  0
 31 33  2  0
 32 62  1  0
 32 63  1  0
 32 64  1  0
 34 35  1  6
 34 36  1  0
 34 39  1  0
 35 65  1  0
 35 66  1  0
 35 67  1  0
 36 37  1  0
 36 68  1  0
 36 69  1  0
 37 38  1  0
 38 70  1  1
 39 40  1  0
 40 41  1  1
 41 71  1  0
 41 72  1  0
 41 73  1  0
M  END
>  <i_m_ct_stereo_status>  (139) 
1

>  <s_m_source_file>  (139) 
/var/tmp/pbs.5076255.sched01/tmp2pvlagj1/41_74nrqse.sdf

>  <i_m_source_file_index>  (139) 
15

>  <i_lp_mmshare_version>  (139) 
48012

>  <i_f3d_flags>  (139) 
0

>  <s_epik_input>  (139) 
TzFbQ0BAXTIoW0NIM10pW0NAQEhdM1tDQEhdMltDQEBIXShPQyg9TylbQ0gzXSlbQ0BAXTEoW0NIM10pW0NIMl1PW0NAQEhdNFtDQF0oW0NAQF0zNDUpKFtDSDJdT0MoPU8pW0NIM10pL0MoQzU9Tyk9W0NIXVxbQ0BIXShDNj1PKUMoPU8pQyhbQ0gzXSkoW0NIM10pYyhjNjcpW2NIXVtjSF1bY0hdYzdbT0hd

>  <s_epik_cmdline>  (139) 
J2VwaWtfcHl0aG9uJywgJy1waHQnLCAnMi4wJywgJy1waCcsICc3LjAnLCAnLXRuJywgJzgnLCAnLW1hJywgJzIwMCcsICctaW1hZScsICc8aW5maWxlLm1hZT4nLCAnLW9tYWUnLCAnPG91dGZpbGUubWFlPic=

>  <r_epik_Ionization_Penalty>  (139) 
0.438051

>  <r_epik_Ionization_Penalty_Charging>  (139) 
0

>  <r_epik_Ionization_Penalty_Neutral>  (139) 
0.438051

>  <r_epik_State_Penalty>  (139) 
1.94098

>  <r_epik_Charging_Adjusted_Penalty>  (139) 
1.94098

>  <i_epik_Tot_Q>  (139) 
0

>  <i_epik_Tot_abs_Q>  (139) 
0

>  <s_epik_Chemistry_Notes>  (139) 
This compound has an ester and may undergo hydrolysis at high or low pH.

>  <s_lp_Force_Field>  (139) 
OPLS3e

>  <r_lp_Energy>  (139) 
51.2997

>  <b_lp_Chiralities_Consistent>  (139) 
1

>  <s_lp_Variant>  (139) 
40:0-3

>  <s_i_glide_gridfile>  (139) 
pfpi4k_grid

>  <i_i_glide_lignum>  (139) 
15

>  <i_i_glide_rotatable_bonds>  (139) 
7

>  <r_i_docking_score>  (139) 
-2.79433

>  <r_i_glide_ligand_efficiency>  (139) 
-0.0681544

>  <r_i_glide_ligand_efficiency_sa>  (139) 
-0.235011

>  <r_i_glide_ligand_efficiency_ln>  (139) 
-0.592827

>  <r_i_glide_gscore>  (139) 
-2.79433

>  <r_i_glide_lipo>  (139) 
-0.161993

>  <r_i_glide_hbond>  (139) 
0

>  <r_i_glide_metal>  (139) 
-0

>  <r_i_glide_rewards>  (139) 
-0.154605

>  <r_i_glide_evdw>  (139) 
-40.4667

>  <r_i_glide_ecoul>  (139) 
-3.53767

>  <r_i_glide_erotb>  (139) 
0.176851

>  <r_i_glide_esite>  (139) 
-0.100599

>  <r_i_glide_emodel>  (139) 
-45.2822

>  <r_i_glide_energy>  (139) 
-44.0044

>  <r_i_glide_einternal>  (139) 
8.40036

>  <r_i_glide_intrahb_reward>  (139) 
-0

>  <i_i_glide_confnum>  (139) 
1

>  <i_i_glide_posenum>  (139) 
1

>  <r_i_glide_eff_state_penalty>  (139) 
0

>  <ligand_id>  (139) 
40

>  <original_smiles>  (139) 
CC(=O)OCC12C(=CC3C(=O)c4c(O)cccc4C(C)(C)C3=O)C(=O)C13C1C4C(OC(C)=O)C(C)(COC23)OC41C

>  <smiles>  (139) 
[H]Oc1c([H])c([H])c([H])c2c1C(=O)C([H])(C([H])=C1C(=O)C34C([H])(OC([H])([H])C5(C([H])([H])[H])OC6(C([H])([H])[H])C([H])(C5([H])OC(=O)C([H])([H])[H])C63[H])C14C([H])([H])OC(=O)C([H])([H])[H])C(=O)C2(C([H])([H])[H])C([H])([H])[H]

$$$$
40:2:1
     RDKit          3D

 73 79  0  0  1  0  0  0  0  0999 V2000
    1.9543    0.3311    8.2103 C   0  0  0  0  0  0  0  0  0  0  0  0
    2.6605    1.3326    7.2568 C   0  0  0  0  0  0  0  0  0  0  0  0
    2.8958    2.4823    7.6033 O   0  0  0  0  0  0  0  0  0  0  0  0
    3.0055    0.9426    6.0236 O   0  0  0  0  0  0  0  0  0  0  0  0
    2.6973   -0.3235    5.4725 C   0  0  0  0  0  0  0  0  0  0  0  0
    1.2929   -0.3599    4.8981 C   0  0  1  0  0  0  0  0  0  0  0  0
    0.4583   -1.6038    4.9073 C   0  0  0  0  0  0  0  0  0  0  0  0
    0.6702   -2.8718    4.5311 C   0  0  0  0  0  0  0  0  0  0  0  0
    2.0213   -3.4120    4.0092 C   0  0  2  0  0  0  0  0  0  0  0  0
    2.2690   -3.0526    2.5291 C   0  0  0  0  0  0  0  0  0  0  0  0
    1.7856   -2.0169    2.0898 O   0  0  0  0  0  0  0  0  0  0  0  0
    3.1908   -3.9510    1.7188 C   0  0  0  0  0  0  0  0  0  0  0  0
    3.5247   -3.6374    0.3781 C   0  0  0  0  0  0  0  0  0  0  0  0
    3.0125   -2.5505   -0.2934 O   0  0  0  0  0  0  0  0  0  0  0  0
    4.4234   -4.4320   -0.3501 C   0  0  0  0  0  0  0  0  0  0  0  0
    5.0150   -5.5648    0.2372 C   0  0  0  0  0  0  0  0  0  0  0  0
    4.6837   -5.9055    1.5543 C   0  0  0  0  0  0  0  0  0  0  0  0
    3.7604   -5.1316    2.3029 C   0  0  0  0  0  0  0  0  0  0  0  0
    3.4475   -5.5798    3.7371 C   0  0  0  0  0  0  0  0  0  0  0  0
    3.2604   -7.1163    3.8257 C   0  0  0  0  0  0  0  0  0  0  0  0
    4.5901   -5.1414    4.6667 C   0  0  0  0  0  0  0  0  0  0  0  0
    2.1386   -4.9197    4.2549 C   0  0  0  0  0  0  0  0  0  0  0  0
    1.2677   -5.5258    4.8441 O   0  0  0  0  0  0  0  0  0  0  0  0
   -0.6153   -0.9274    5.3296 C   0  0  0  0  0  0  0  0  0  0  0  0
   -1.7659   -1.3018    5.5877 O   0  0  0  0  0  0  0  0  0  0  0  0
    0.0319    0.4112    5.3283 C   0  0  1  0  0  0  0  0  0  0  0  0
   -0.3856    1.5995    6.2083 C   0  0  1  0  0  0  0  0  0  0  0  0
   -0.3804    3.0697    5.7167 C   0  0  1  0  0  0  0  0  0  0  0  0
   -0.4442    3.5918    4.3128 C   0  0  1  0  0  0  0  0  0  0  0  0
    0.8150    3.7454    3.6732 O   0  0  0  0  0  0  0  0  0  0  0  0
    1.5211    4.8781    3.7789 C   0  0  0  0  0  0  0  0  0  0  0  0
    2.7656    4.8709    2.8974 C   0  0  0  0  0  0  0  0  0  0  0  0
    1.2180    5.8471    4.4748 O   0  0  0  0  0  0  0  0  0  0  0  0
   -1.4485    2.6730    3.5810 C   0  0  1  0  0  0  0  0  0  0  0  0
   -2.4991    3.5115    2.8771 C   0  0  0  0  0  0  0  0  0  0  0  0
   -0.8304    1.6690    2.5534 C   0  0  0  0  0  0  0  0  0  0  0  0
   -0.1073    0.5378    3.0084 O   0  0  0  0  0  0  0  0  0  0  0  0
    0.8136    0.7853    4.0716 C   0  0  2  0  0  0  0  0  0  0  0  0
   -2.1786    1.9850    4.5982 O   0  0  0  0  0  0  0  0  0  0  0  0
   -1.6690    2.3400    5.8914 C   0  0  1  0  0  0  0  0  0  0  0  0
   -2.6800    2.6757    6.9719 C   0  0  0  0  0  0  0  0  0  0  0  0
    1.8107   -0.6424    7.7359 H   0  0  0  0  0  0  0  0  0  0  0  0
    0.9930    0.7513    8.5343 H   0  0  0  0  0  0  0  0  0  0  0  0
    2.5835    0.2140    9.1145 H   0  0  0  0  0  0  0  0  0  0  0  0
    3.3645   -0.5244    4.6238 H   0  0  0  0  0  0  0  0  0  0  0  0
    2.8132   -1.1200    6.2013 H   0  0  0  0  0  0  0  0  0  0  0  0
   -0.1870   -3.5486    4.4960 H   0  0  0  0  0  0  0  0  0  0  0  0
    2.7680   -2.8900    4.5970 H   0  0  0  0  0  0  0  0  0  0  0  0
    2.3439   -2.0434    0.1409 H   0  0  0  0  0  0  0  0  0  0  0  0
    4.6603   -4.1894   -1.3734 H   0  0  0  0  0  0  0  0  0  0  0  0
    5.7073   -6.1780   -0.3156 H   0  0  0  0  0  0  0  0  0  0  0  0
    5.1596   -6.7790    1.9790 H   0  0  0  0  0  0  0  0  0  0  0  0
    2.5020   -7.4611    3.1243 H   0  0  0  0  0  0  0  0  0  0  0  0
    2.9573   -7.4411    4.8191 H   0  0  0  0  0  0  0  0  0  0  0  0
    4.1733   -7.6601    3.6090 H   0  0  0  0  0  0  0  0  0  0  0  0
    4.7866   -4.0708    4.5835 H   0  0  0  0  0  0  0  0  0  0  0  0
    5.5141   -5.6560    4.4130 H   0  0  0  0  0  0  0  0  0  0  0  0
    4.3667   -5.3550    5.7125 H   0  0  0  0  0  0  0  0  0  0  0  0
   -0.3038    1.4305    7.2731 H   0  0  0  0  0  0  0  0  0  0  0  0
   -0.0753    3.8007    6.4586 H   0  0  0  0  0  0  0  0  0  0  0  0
   -0.9045    4.5749    4.4010 H   0  0  0  0  0  0  0  0  0  0  0  0
    2.4788    4.6967    1.8582 H   0  0  0  0  0  0  0  0  0  0  0  0
    3.4423    4.0718    3.2017 H   0  0  0  0  0  0  0  0  0  0  0  0
    3.2919    5.8253    2.9568 H   0  0  0  0  0  0  0  0  0  0  0  0
   -2.0251    4.1046    2.1025 H   0  0  0  0  0  0  0  0  0  0  0  0
   -2.9806    4.1731    3.5890 H   0  0  0  0  0  0  0  0  0  0  0  0
   -3.2607    2.8762    2.4312 H   0  0  0  0  0  0  0  0  0  0  0  0
   -1.6190    1.2318    1.9463 H   0  0  0  0  0  0  0  0  0  0  0  0
   -0.1495    2.1650    1.8730 H   0  0  0  0  0  0  0  0  0  0  0  0
    1.5114    1.6068    3.9962 H   0  0  0  0  0  0  0  0  0  0  0  0
   -2.1829    2.9600    7.9079 H   0  0  0  0  0  0  0  0  0  0  0  0
   -3.3094    1.8116    7.1776 H   0  0  0  0  0  0  0  0  0  0  0  0
   -3.3033    3.5032    6.6466 H   0  0  0  0  0  0  0  0  0  0  0  0
  1  2  1  0
  1 42  1  0
  1 43  1  0
  1 44  1  0
  2  3  2  0
  2  4  1  0
  4  5  1  0
  6  5  1  1
  5 45  1  0
  5 46  1  0
  6 26  1  0
  6 38  1  0
  6  7  1  0
  7  8  2  3
  7 24  1  0
  8  9  1  0
  8 47  1  0
  9 22  1  0
  9 10  1  0
  9 48  1  1
 10 11  2  0
 10 12  1  0
 12 18  2  0
 12 13  1  0
 13 14  1  0
 13 15  2  0
 14 49  1  0
 15 16  1  0
 15 50  1  0
 16 17  2  0
 16 51  1  0
 17 18  1  0
 17 52  1  0
 18 19  1  0
 19 20  1  0
 19 21  1  0
 19 22  1  0
 20 53  1  0
 20 54  1  0
 20 55  1  0
 21 56  1  0
 21 57  1  0
 21 58  1  0
 22 23  2  0
 24 25  2  0
 26 24  1  6
 26 38  1  0
 26 27  1  0
 27 40  1  0
 27 28  1  0
 27 59  1  1
 28 40  1  0
 28 29  1  0
 28 60  1  1
 29 30  1  0
 29 34  1  0
 29 61  1  1
 30 31  1  0
 31 32  1  0
 31 33  2  0
 32 62  1  0
 32 63  1  0
 32 64  1  0
 34 35  1  6
 34 36  1  0
 34 39  1  0
 35 65  1  0
 35 66  1  0
 35 67  1  0
 36 37  1  0
 36 68  1  0
 36 69  1  0
 37 38  1  0
 38 70  1  1
 39 40  1  0
 40 41  1  1
 41 71  1  0
 41 72  1  0
 41 73  1  0
M  END
>  <i_m_ct_stereo_status>  (140) 
1

>  <s_m_source_file>  (140) 
/var/tmp/pbs.5076255.sched01/tmp2pvlagj1/41_74nrqse.sdf

>  <i_m_source_file_index>  (140) 
15

>  <i_lp_mmshare_version>  (140) 
48012

>  <i_f3d_flags>  (140) 
0

>  <s_epik_input>  (140) 
TzFbQ0BAXTIoW0NIM10pW0NAQEhdM1tDQEhdMltDQEBIXShPQyg9TylbQ0gzXSlbQ0BAXTEoW0NIM10pW0NIMl1PW0NAQEhdNFtDQF0oW0NAQF0zNDUpKFtDSDJdT0MoPU8pW0NIM10pL0MoQzU9Tyk9W0NIXVxbQ0BIXShDNj1PKUMoPU8pQyhbQ0gzXSkoW0NIM10pYyhjNjcpW2NIXVtjSF1bY0hdYzdbT0hd

>  <s_epik_cmdline>  (140) 
J2VwaWtfcHl0aG9uJywgJy1waHQnLCAnMi4wJywgJy1waCcsICc3LjAnLCAnLXRuJywgJzgnLCAnLW1hJywgJzIwMCcsICctaW1hZScsICc8aW5maWxlLm1hZT4nLCAnLW9tYWUnLCAnPG91dGZpbGUubWFlPic=

>  <r_epik_Ionization_Penalty>  (140) 
0.438051

>  <r_epik_Ionization_Penalty_Charging>  (140) 
0

>  <r_epik_Ionization_Penalty_Neutral>  (140) 
0.438051

>  <r_epik_State_Penalty>  (140) 
1.94098

>  <r_epik_Charging_Adjusted_Penalty>  (140) 
1.94098

>  <i_epik_Tot_Q>  (140) 
0

>  <i_epik_Tot_abs_Q>  (140) 
0

>  <s_epik_Chemistry_Notes>  (140) 
This compound has an ester and may undergo hydrolysis at high or low pH.

>  <s_lp_Force_Field>  (140) 
OPLS3e

>  <r_lp_Energy>  (140) 
51.2997

>  <b_lp_Chiralities_Consistent>  (140) 
1

>  <s_lp_Variant>  (140) 
40:0-3

>  <s_i_glide_gridfile>  (140) 
pfpi4k_grid

>  <i_i_glide_lignum>  (140) 
15

>  <i_i_glide_rotatable_bonds>  (140) 
7

>  <r_i_docking_score>  (140) 
-2.66634

>  <r_i_glide_ligand_efficiency>  (140) 
-0.0650327

>  <r_i_glide_ligand_efficiency_sa>  (140) 
-0.224247

>  <r_i_glide_ligand_efficiency_ln>  (140) 
-0.565673

>  <r_i_glide_gscore>  (140) 
-2.66634

>  <r_i_glide_lipo>  (140) 
-0.355094

>  <r_i_glide_hbond>  (140) 
0

>  <r_i_glide_metal>  (140) 
-0

>  <r_i_glide_rewards>  (140) 
-0.5

>  <r_i_glide_evdw>  (140) 
-35.9627

>  <r_i_glide_ecoul>  (140) 
-0.676507

>  <r_i_glide_erotb>  (140) 
0.176851

>  <r_i_glide_esite>  (140) 
-0.0884863

>  <r_i_glide_emodel>  (140) 
-44.2667

>  <r_i_glide_energy>  (140) 
-36.6392

>  <r_i_glide_einternal>  (140) 
7.07269

>  <r_i_glide_intrahb_reward>  (140) 
-0.5

>  <i_i_glide_confnum>  (140) 
1

>  <i_i_glide_posenum>  (140) 
29

>  <r_i_glide_eff_state_penalty>  (140) 
0

>  <ligand_id>  (140) 
40

>  <original_smiles>  (140) 
CC(=O)OCC12C(=CC3C(=O)c4c(O)cccc4C(C)(C)C3=O)C(=O)C13C1C4C(OC(C)=O)C(C)(COC23)OC41C

>  <smiles>  (140) 
[H]Oc1c([H])c([H])c([H])c2c1C(=O)C([H])(C([H])=C1C(=O)C34C([H])(OC([H])([H])C5(C([H])([H])[H])OC6(C([H])([H])[H])C([H])(C5([H])OC(=O)C([H])([H])[H])C63[H])C14C([H])([H])OC(=O)C([H])([H])[H])C(=O)C2(C([H])([H])[H])C([H])([H])[H]

$$$$
40:2:2
     RDKit          3D

 73 79  0  0  1  0  0  0  0  0999 V2000
    2.5584    0.2194    7.6375 C   0  0  0  0  0  0  0  0  0  0  0  0
    3.1356    1.2807    6.6701 C   0  0  0  0  0  0  0  0  0  0  0  0
    3.3616    2.4344    7.0449 O   0  0  0  0  0  0  0  0  0  0  0  0
    3.3593    0.8875    5.3817 O   0  0  0  0  0  0  0  0  0  0  0  0
    3.0045   -0.3945    4.9126 C   0  0  0  0  0  0  0  0  0  0  0  0
    1.5216   -0.4484    4.4928 C   0  0  1  0  0  0  0  0  0  0  0  0
    0.7117   -1.7108    4.4554 C   0  0  0  0  0  0  0  0  0  0  0  0
    0.9492   -2.9312    3.8829 C   0  0  0  0  0  0  0  0  0  0  0  0
    2.2580   -3.3610    3.1960 C   0  0  2  0  0  0  0  0  0  0  0  0
    2.5822   -2.5327    1.9240 C   0  0  0  0  0  0  0  0  0  0  0  0
    2.2070   -1.3621    1.8614 O   0  0  0  0  0  0  0  0  0  0  0  0
    3.4377   -3.1473    0.8502 C   0  0  0  0  0  0  0  0  0  0  0  0
    3.8253   -2.3793   -0.2957 C   0  0  0  0  0  0  0  0  0  0  0  0
    3.4323   -1.1129   -0.5394 O   0  0  0  0  0  0  0  0  0  0  0  0
    4.6675   -2.9422   -1.2755 C   0  0  0  0  0  0  0  0  0  0  0  0
    5.1428   -4.2441   -1.1229 C   0  0  0  0  0  0  0  0  0  0  0  0
    4.7747   -5.0088   -0.0109 C   0  0  0  0  0  0  0  0  0  0  0  0
    3.8992   -4.4931    0.9739 C   0  0  0  0  0  0  0  0  0  0  0  0
    3.5201   -5.3979    2.1632 C   0  0  0  0  0  0  0  0  0  0  0  0
    3.2222   -6.8505    1.6846 C   0  0  0  0  0  0  0  0  0  0  0  0
    4.6857   -5.4066    3.1786 C   0  0  0  0  0  0  0  0  0  0  0  0
    2.2690   -4.8581    2.8820 C   0  0  0  0  0  0  0  0  0  0  0  0
    1.3477   -5.5943    3.2439 O   0  0  0  0  0  0  0  0  0  0  0  0
   -0.3272   -1.1109    5.0340 C   0  0  0  0  0  0  0  0  0  0  0  0
   -1.4893   -1.5107    5.3274 O   0  0  0  0  0  0  0  0  0  0  0  0
    0.2670    0.2382    5.1014 C   0  0  1  0  0  0  0  0  0  0  0  0
   -0.0737    1.3367    6.1261 C   0  0  1  0  0  0  0  0  0  0  0  0
   -0.1348    2.8286    5.7802 C   0  0  1  0  0  0  0  0  0  0  0  0
   -0.3552    3.4672    4.4342 C   0  0  1  0  0  0  0  0  0  0  0  0
    0.8409    3.7301    3.7026 O   0  0  0  0  0  0  0  0  0  0  0  0
    1.4704    4.9088    3.7870 C   0  0  0  0  0  0  0  0  0  0  0  0
    2.6898    4.9755    2.8825 C   0  0  0  0  0  0  0  0  0  0  0  0
    1.1359    5.8534    4.5014 O   0  0  0  0  0  0  0  0  0  0  0  0
   -1.4007    2.5758    3.7107 C   0  0  1  0  0  0  0  0  0  0  0  0
   -2.5445    3.4474    3.1998 C   0  0  0  0  0  0  0  0  0  0  0  0
   -0.8601    1.6941    2.5366 C   0  0  0  0  0  0  0  0  0  0  0  0
   -0.0751    0.5432    2.8153 O   0  0  0  0  0  0  0  0  0  0  0  0
    0.9128    0.7317    3.8213 C   0  0  2  0  0  0  0  0  0  0  0  0
   -1.9897    1.7710    4.7411 O   0  0  0  0  0  0  0  0  0  0  0  0
   -1.3825    2.0442    6.0112 C   0  0  1  0  0  0  0  0  0  0  0  0
   -2.2988    2.2343    7.2065 C   0  0  0  0  0  0  0  0  0  0  0  0
    2.3460   -0.7347    7.1874 H   0  0  0  0  0  0  0  0  0  0  0  0
    1.6277    0.5357    8.0473 H   0  0  0  0  0  0  0  0  0  0  0  0
    3.2239    0.0896    8.4851 H   0  0  0  0  0  0  0  0  0  0  0  0
    3.6146   -0.6391    4.0581 H   0  0  0  0  0  0  0  0  0  0  0  0
    3.2775   -1.1691    5.6074 H   0  0  0  0  0  0  0  0  0  0  0  0
    0.1108   -3.6305    3.8474 H   0  0  0  0  0  0  0  0  0  0  0  0
    3.0511   -3.1693    3.9066 H   0  0  0  0  0  0  0  0  0  0  0  0
    2.4735   -1.0135   -0.5094 H   0  0  0  0  0  0  0  0  0  0  0  0
    4.9393   -2.3581   -2.1390 H   0  0  0  0  0  0  0  0  0  0  0  0
    5.7871   -4.6523   -1.8729 H   0  0  0  0  0  0  0  0  0  0  0  0
    5.1791   -6.0050    0.0658 H   0  0  0  0  0  0  0  0  0  0  0  0
    2.4501   -6.8629    0.9139 H   0  0  0  0  0  0  0  0  0  0  0  0
    2.8748   -7.4998    2.4917 H   0  0  0  0  0  0  0  0  0  0  0  0
    4.0926   -7.3557    1.2704 H   0  0  0  0  0  0  0  0  0  0  0  0
    4.9619   -4.3956    3.4776 H   0  0  0  0  0  0  0  0  0  0  0  0
    5.5811   -5.8611    2.7575 H   0  0  0  0  0  0  0  0  0  0  0  0
    4.4400   -5.9561    4.0887 H   0  0  0  0  0  0  0  0  0  0  0  0
    0.0698    1.1079    7.1529 H   0  0  0  0  0  0  0  0  0  0  0  0
    0.1990    3.5053    6.5553 H   0  0  0  0  0  0  0  0  0  0  0  0
   -0.8362    4.4265    4.6461 H   0  0  0  0  0  0  0  0  0  0  0  0
    2.3946    4.8031    1.8432 H   0  0  0  0  0  0  0  0  0  0  0  0
    3.4127    4.2126    3.1657 H   0  0  0  0  0  0  0  0  0  0  0  0
    3.1661    5.9530    2.9467 H   0  0  0  0  0  0  0  0  0  0  0  0
   -2.1943    4.1390    2.4376 H   0  0  0  0  0  0  0  0  0  0  0  0
   -2.9750    4.0297    4.0092 H   0  0  0  0  0  0  0  0  0  0  0  0
   -3.3428    2.8431    2.7741 H   0  0  0  0  0  0  0  0  0  0  0  0
   -1.6886    1.3022    1.9615 H   0  0  0  0  0  0  0  0  0  0  0  0
   -0.2873    2.2948    1.8435 H   0  0  0  0  0  0  0  0  0  0  0  0
    1.5854    1.5650    3.7312 H   0  0  0  0  0  0  0  0  0  0  0  0
   -1.7260    2.4482    8.1121 H   0  0  0  0  0  0  0  0  0  0  0  0
   -2.8862    1.3369    7.3889 H   0  0  0  0  0  0  0  0  0  0  0  0
   -2.9744    3.0645    7.0291 H   0  0  0  0  0  0  0  0  0  0  0  0
  1  2  1  0
  1 42  1  0
  1 43  1  0
  1 44  1  0
  2  3  2  0
  2  4  1  0
  4  5  1  0
  6  5  1  1
  5 45  1  0
  5 46  1  0
  6 26  1  0
  6 38  1  0
  6  7  1  0
  7  8  2  3
  7 24  1  0
  8  9  1  0
  8 47  1  0
  9 22  1  0
  9 10  1  0
  9 48  1  1
 10 11  2  0
 10 12  1  0
 12 18  2  0
 12 13  1  0
 13 14  1  0
 13 15  2  0
 14 49  1  0
 15 16  1  0
 15 50  1  0
 16 17  2  0
 16 51  1  0
 17 18  1  0
 17 52  1  0
 18 19  1  0
 19 20  1  0
 19 21  1  0
 19 22  1  0
 20 53  1  0
 20 54  1  0
 20 55  1  0
 21 56  1  0
 21 57  1  0
 21 58  1  0
 22 23  2  0
 24 25  2  0
 26 24  1  6
 26 38  1  0
 26 27  1  0
 27 40  1  0
 27 28  1  0
 27 59  1  1
 28 40  1  0
 28 29  1  0
 28 60  1  1
 29 30  1  0
 29 34  1  0
 29 61  1  1
 30 31  1  0
 31 32  1  0
 31 33  2  0
 32 62  1  0
 32 63  1  0
 32 64  1  0
 34 35  1  6
 34 36  1  0
 34 39  1  0
 35 65  1  0
 35 66  1  0
 35 67  1  0
 36 37  1  0
 36 68  1  0
 36 69  1  0
 37 38  1  0
 38 70  1  1
 39 40  1  0
 40 41  1  1
 41 71  1  0
 41 72  1  0
 41 73  1  0
M  END
>  <i_m_ct_stereo_status>  (141) 
1

>  <s_m_source_file>  (141) 
/var/tmp/pbs.5076255.sched01/tmp2pvlagj1/41_74nrqse.sdf

>  <i_m_source_file_index>  (141) 
15

>  <i_lp_mmshare_version>  (141) 
48012

>  <i_f3d_flags>  (141) 
0

>  <s_epik_input>  (141) 
TzFbQ0BAXTIoW0NIM10pW0NAQEhdM1tDQEhdMltDQEBIXShPQyg9TylbQ0gzXSlbQ0BAXTEoW0NIM10pW0NIMl1PW0NAQEhdNFtDQF0oW0NAQF0zNDUpKFtDSDJdT0MoPU8pW0NIM10pL0MoQzU9Tyk9W0NIXVxbQ0BIXShDNj1PKUMoPU8pQyhbQ0gzXSkoW0NIM10pYyhjNjcpW2NIXVtjSF1bY0hdYzdbT0hd

>  <s_epik_cmdline>  (141) 
J2VwaWtfcHl0aG9uJywgJy1waHQnLCAnMi4wJywgJy1waCcsICc3LjAnLCAnLXRuJywgJzgnLCAnLW1hJywgJzIwMCcsICctaW1hZScsICc8aW5maWxlLm1hZT4nLCAnLW9tYWUnLCAnPG91dGZpbGUubWFlPic=

>  <r_epik_Ionization_Penalty>  (141) 
0.438051

>  <r_epik_Ionization_Penalty_Charging>  (141) 
0

>  <r_epik_Ionization_Penalty_Neutral>  (141) 
0.438051

>  <r_epik_State_Penalty>  (141) 
1.94098

>  <r_epik_Charging_Adjusted_Penalty>  (141) 
1.94098

>  <i_epik_Tot_Q>  (141) 
0

>  <i_epik_Tot_abs_Q>  (141) 
0

>  <s_epik_Chemistry_Notes>  (141) 
This compound has an ester and may undergo hydrolysis at high or low pH.

>  <s_lp_Force_Field>  (141) 
OPLS3e

>  <r_lp_Energy>  (141) 
51.2997

>  <b_lp_Chiralities_Consistent>  (141) 
1

>  <s_lp_Variant>  (141) 
40:0-3

>  <s_i_glide_gridfile>  (141) 
pfpi4k_grid

>  <i_i_glide_lignum>  (141) 
15

>  <i_i_glide_rotatable_bonds>  (141) 
7

>  <r_i_docking_score>  (141) 
-2.49042

>  <r_i_glide_ligand_efficiency>  (141) 
-0.0607419

>  <r_i_glide_ligand_efficiency_sa>  (141) 
-0.209451

>  <r_i_glide_ligand_efficiency_ln>  (141) 
-0.528351

>  <r_i_glide_gscore>  (141) 
-2.49042

>  <r_i_glide_lipo>  (141) 
-0.113373

>  <r_i_glide_hbond>  (141) 
0

>  <r_i_glide_metal>  (141) 
-0

>  <r_i_glide_rewards>  (141) 
0

>  <r_i_glide_evdw>  (141) 
-37.8175

>  <r_i_glide_ecoul>  (141) 
-3.75048

>  <r_i_glide_erotb>  (141) 
0.176851

>  <r_i_glide_esite>  (141) 
-0.100447

>  <r_i_glide_emodel>  (141) 
-39.7058

>  <r_i_glide_energy>  (141) 
-41.568

>  <r_i_glide_einternal>  (141) 
11.3814

>  <r_i_glide_intrahb_reward>  (141) 
-0

>  <i_i_glide_confnum>  (141) 
1

>  <i_i_glide_posenum>  (141) 
14

>  <r_i_glide_eff_state_penalty>  (141) 
0

>  <ligand_id>  (141) 
40

>  <original_smiles>  (141) 
CC(=O)OCC12C(=CC3C(=O)c4c(O)cccc4C(C)(C)C3=O)C(=O)C13C1C4C(OC(C)=O)C(C)(COC23)OC41C

>  <smiles>  (141) 
[H]Oc1c([H])c([H])c([H])c2c1C(=O)C([H])(C([H])=C1C(=O)C34C([H])(OC([H])([H])C5(C([H])([H])[H])OC6(C([H])([H])[H])C([H])(C5([H])OC(=O)C([H])([H])[H])C63[H])C14C([H])([H])OC(=O)C([H])([H])[H])C(=O)C2(C([H])([H])[H])C([H])([H])[H]

$$$$
41:0:0
     RDKit          3D

 93 99  0  0  1  0  0  0  0  0999 V2000
    1.8316    2.2303    2.5290 C   0  0  0  0  0  0  0  0  0  0  0  0
    0.8434    1.0593    2.3726 C   0  0  2  0  0  0  0  0  0  0  0  0
   -0.6193    1.5377    2.4058 C   0  0  0  0  0  0  0  0  0  0  0  0
   -1.0483    1.9864    3.8014 C   0  0  1  0  0  0  0  0  0  0  0  0
   -2.4108    2.3549    3.7732 O   0  0  0  0  0  0  0  0  0  0  0  0
   -0.8463    0.8724    4.8338 C   0  0  0  0  0  0  0  0  0  0  0  0
    0.5973    0.3188    4.8176 C   0  0  2  0  0  0  0  0  0  0  0  0
    1.0494   -0.0840    3.3894 C   0  0  2  0  0  0  0  0  0  0  0  0
    2.4835   -0.6644    3.3557 C   0  0  0  0  0  0  0  0  0  0  0  0
    2.7084   -1.8143    4.3709 C   0  0  2  0  0  0  0  0  0  0  0  0
    2.0076   -3.1625    3.9163 C   0  0  1  0  0  0  0  0  0  0  0  0
    2.7559   -4.0086    2.8274 C   0  0  1  0  0  0  0  0  0  0  0  0
    3.5609   -3.2317    1.9666 O   0  0  0  0  0  0  0  0  0  0  0  0
    3.6353   -5.1596    3.3533 C   0  0  0  0  0  0  0  0  0  0  0  0
    2.8340   -6.0964    4.2906 C   0  0  2  0  0  0  0  0  0  0  0  0
    2.2770   -5.2880    5.5115 C   0  0  2  0  0  0  0  0  0  0  0  0
    3.4078   -4.6921    6.3868 C   0  0  0  0  0  0  0  0  0  0  0  0
    1.4072   -6.2428    6.3724 C   0  0  0  0  0  0  0  0  0  0  0  0
    2.0896   -7.5725    6.7057 C   0  0  1  0  0  0  0  0  0  0  0  0
    1.3115   -8.2771    7.6514 O   0  0  0  0  0  0  0  0  0  0  0  0
    2.5413   -8.4009    5.4616 C   0  0  1  0  0  0  0  0  0  0  0  0
    1.5056   -9.3039    4.6733 C   0  0  0  0  0  0  0  0  0  0  0  0
    0.6302  -10.1495    5.6164 C   0  0  0  0  0  0  0  0  0  0  0  0
    0.5058   -8.5389    3.7600 C   0  0  0  0  0  0  0  0  0  0  0  0
    2.3558  -10.3325    3.8619 C   0  0  1  0  0  0  0  0  0  0  0  0
    1.5570  -11.0086    2.9343 O   0  0  0  0  0  0  0  0  0  0  0  0
    3.6050   -9.7570    3.1695 C   0  0  0  0  0  0  0  0  0  0  0  0
    3.6760   -8.2235    3.1585 C   0  0  0  0  0  0  0  0  0  0  0  0
    3.4744   -7.5282    4.5444 C   0  0  1  0  0  0  0  0  0  0  0  0
    4.8855   -7.4429    5.1903 C   0  0  0  0  0  0  0  0  0  0  0  0
    1.3633   -4.1158    4.9796 C   0  0  1  0  0  0  0  0  0  0  0  0
    0.4981   -3.4092    6.0621 C   0  0  0  0  0  0  0  0  0  0  0  0
   -0.0920   -2.0415    5.6571 C   0  0  0  0  0  0  0  0  0  0  0  0
    0.8530   -0.8156    5.8571 C   0  0  2  0  0  0  0  0  0  0  0  0
    0.5591   -0.2524    7.2848 C   0  0  0  0  0  0  0  0  0  0  0  0
    2.3513   -1.2291    5.7417 C   0  0  1  0  0  0  0  0  0  0  0  0
    2.9883   -1.8089    6.8849 O   0  0  0  0  0  0  0  0  0  0  0  0
    3.4173   -0.4751    6.5428 C   0  0  1  0  0  0  0  0  0  0  0  0
    4.7023   -0.3730    5.9718 O   0  0  0  0  0  0  0  0  0  0  0  0
    1.7832    2.6910    3.5171 H   0  0  0  0  0  0  0  0  0  0  0  0
    1.6174    3.0069    1.7978 H   0  0  0  0  0  0  0  0  0  0  0  0
    2.8646    1.9290    2.3520 H   0  0  0  0  0  0  0  0  0  0  0  0
    1.0183    0.6556    1.3722 H   0  0  0  0  0  0  0  0  0  0  0  0
   -0.7514    2.3621    1.7132 H   0  0  0  0  0  0  0  0  0  0  0  0
   -1.2682    0.7343    2.0536 H   0  0  0  0  0  0  0  0  0  0  0  0
   -0.4760    2.8676    4.0885 H   0  0  0  0  0  0  0  0  0  0  0  0
   -2.9104    1.6471    3.3822 H   0  0  0  0  0  0  0  0  0  0  0  0
   -1.0734    1.2979    5.8108 H   0  0  0  0  0  0  0  0  0  0  0  0
   -1.5599    0.0735    4.6565 H   0  0  0  0  0  0  0  0  0  0  0  0
    1.2429    1.1442    5.1282 H   0  0  0  0  0  0  0  0  0  0  0  0
    0.3730   -0.8599    3.0376 H   0  0  0  0  0  0  0  0  0  0  0  0
    2.7347   -0.9482    2.3363 H   0  0  0  0  0  0  0  0  0  0  0  0
    3.1886    0.1193    3.6173 H   0  0  0  0  0  0  0  0  0  0  0  0
    3.7681   -2.0514    4.3879 H   0  0  0  0  0  0  0  0  0  0  0  0
    1.1476   -2.8230    3.3454 H   0  0  0  0  0  0  0  0  0  0  0  0
    1.9956   -4.4646    2.1933 H   0  0  0  0  0  0  0  0  0  0  0  0
    3.0067   -2.6427    1.4800 H   0  0  0  0  0  0  0  0  0  0  0  0
    4.0051   -5.7100    2.4902 H   0  0  0  0  0  0  0  0  0  0  0  0
    4.5200   -4.7576    3.8463 H   0  0  0  0  0  0  0  0  0  0  0  0
    1.9435   -6.3249    3.7048 H   0  0  0  0  0  0  0  0  0  0  0  0
    3.0170   -4.2142    7.2834 H   0  0  0  0  0  0  0  0  0  0  0  0
    3.9905   -3.9447    5.8507 H   0  0  0  0  0  0  0  0  0  0  0  0
    4.1141   -5.4290    6.7499 H   0  0  0  0  0  0  0  0  0  0  0  0
    1.1601   -5.7574    7.3174 H   0  0  0  0  0  0  0  0  0  0  0  0
    0.4527   -6.4383    5.8964 H   0  0  0  0  0  0  0  0  0  0  0  0
    2.9829   -7.3377    7.2804 H   0  0  0  0  0  0  0  0  0  0  0  0
    1.6724   -9.1470    7.7500 H   0  0  0  0  0  0  0  0  0  0  0  0
    3.1923   -9.1530    5.9084 H   0  0  0  0  0  0  0  0  0  0  0  0
    0.1315  -10.9521    5.0753 H   0  0  0  0  0  0  0  0  0  0  0  0
   -0.1555   -9.5653    6.0984 H   0  0  0  0  0  0  0  0  0  0  0  0
    1.2361  -10.6322    6.3819 H   0  0  0  0  0  0  0  0  0  0  0  0
   -0.2805   -9.2047    3.4027 H   0  0  0  0  0  0  0  0  0  0  0  0
    0.9608   -8.1331    2.8593 H   0  0  0  0  0  0  0  0  0  0  0  0
   -0.0008   -7.7284    4.2750 H   0  0  0  0  0  0  0  0  0  0  0  0
    2.7121  -11.0976    4.5574 H   0  0  0  0  0  0  0  0  0  0  0  0
    2.0544  -11.7373    2.5752 H   0  0  0  0  0  0  0  0  0  0  0  0
    4.4904  -10.1543    3.6623 H   0  0  0  0  0  0  0  0  0  0  0  0
    3.6744  -10.1287    2.1466 H   0  0  0  0  0  0  0  0  0  0  0  0
    4.6590   -7.9583    2.7627 H   0  0  0  0  0  0  0  0  0  0  0  0
    2.9948   -7.8453    2.4077 H   0  0  0  0  0  0  0  0  0  0  0  0
    5.4514   -8.3576    5.0301 H   0  0  0  0  0  0  0  0  0  0  0  0
    4.8667   -7.3218    6.2692 H   0  0  0  0  0  0  0  0  0  0  0  0
    5.4817   -6.6254    4.7883 H   0  0  0  0  0  0  0  0  0  0  0  0
    0.6048   -4.6364    4.3918 H   0  0  0  0  0  0  0  0  0  0  0  0
   -0.3442   -4.0690    6.2818 H   0  0  0  0  0  0  0  0  0  0  0  0
    1.0197   -3.3147    7.0098 H   0  0  0  0  0  0  0  0  0  0  0  0
   -0.4635   -2.1034    4.6394 H   0  0  0  0  0  0  0  0  0  0  0  0
   -0.9987   -1.8868    6.2343 H   0  0  0  0  0  0  0  0  0  0  0  0
    0.9234   -0.9161    8.0737 H   0  0  0  0  0  0  0  0  0  0  0  0
   -0.5035   -0.1120    7.4670 H   0  0  0  0  0  0  0  0  0  0  0  0
    1.0107    0.7283    7.4412 H   0  0  0  0  0  0  0  0  0  0  0  0
    3.1772    0.3154    7.2557 H   0  0  0  0  0  0  0  0  0  0  0  0
    4.7391   -0.9222    5.2033 H   0  0  0  0  0  0  0  0  0  0  0  0
  1  2  1  0
  1 40  1  0
  1 41  1  0
  1 42  1  0
  2  8  1  0
  2  3  1  0
  2 43  1  6
  3  4  1  0
  3 44  1  0
  3 45  1  0
  4  5  1  0
  4  6  1  0
  4 46  1  1
  5 47  1  0
  6  7  1  0
  6 48  1  0
  6 49  1  0
  7 34  1  0
  7  8  1  0
  7 50  1  1
  8  9  1  0
  8 51  1  6
  9 10  1  0
  9 52  1  0
  9 53  1  0
 10 36  1  0
 10 11  1  0
 10 54  1  1
 11 31  1  0
 11 12  1  0
 11 55  1  6
 12 13  1  0
 12 14  1  0
 12 56  1  6
 13 57  1  0
 14 15  1  0
 14 58  1  0
 14 59  1  0
 15 29  1  0
 15 16  1  0
 15 60  1  6
 16 17  1  1
 16 18  1  0
 16 31  1  0
 17 61  1  0
 17 62  1  0
 17 63  1  0
 18 19  1  0
 18 64  1  0
 18 65  1  0
 19 20  1  0
 19 21  1  0
 19 66  1  1
 20 67  1  0
 21 29  1  0
 21 22  1  0
 21 68  1  1
 22 23  1  0
 22 24  1  0
 22 25  1  0
 23 69  1  0
 23 70  1  0
 23 71  1  0
 24 72  1  0
 24 73  1  0
 24 74  1  0
 25 26  1  0
 25 27  1  0
 25 75  1  1
 26 76  1  0
 27 28  1  0
 27 77  1  0
 27 78  1  0
 28 29  1  0
 28 79  1  0
 28 80  1  0
 29 30  1  1
 30 81  1  0
 30 82  1  0
 30 83  1  0
 31 32  1  0
 31 84  1  6
 32 33  1  0
 32 85  1  0
 32 86  1  0
 33 34  1  0
 33 87  1  0
 33 88  1  0
 34 35  1  1
 34 36  1  0
 35 89  1  0
 35 90  1  0
 35 91  1  0
 36 38  1  0
 36 37  1  1
 37 38  1  0
 38 39  1  0
 38 92  1  1
 39 93  1  0
M  END
>  <i_m_ct_stereo_status>  (142) 
1

>  <s_m_source_file>  (142) 
/var/tmp/pbs.5076255.sched01/tmp2pvlagj1/41_74nrqse.sdf

>  <i_m_source_file_index>  (142) 
17

>  <i_lp_mmshare_version>  (142) 
48012

>  <i_f3d_flags>  (142) 
0

>  <s_epik_input>  (142) 
W09IXVtDQEBIXShbQ0gyXTEpW0NIMl1bQ0BASF0oW0NIM10pW0NAQEhdKFtDSDJdMilbQ0BASF0xW0NAQF0zKFtDSDNdKVtDSDJdW0NIMl1bQ0BASF0oW0NASF00W0NAQEhdMltDQF0zNU9bQ0BIXTVbT0hdKVtDQF02KFtDSDNdKVtDQEBIXShbQ0gyXVtDQEBIXTRbT0hdKVtDQEBdNyhbQ0gzXSlbQ0BASF0oW0NAQEhdKFtDSDJdNilbT0hdKUMoW0NIM10pKFtDSDNdKVtDQEBIXShbT0hdKVtDSDJdW0NIMl03

>  <s_epik_cmdline>  (142) 
J2VwaWtfcHl0aG9uJywgJy1waHQnLCAnMi4wJywgJy1waCcsICc3LjAnLCAnLXRuJywgJzgnLCAnLW1hJywgJzIwMCcsICctaW1hZScsICc8aW5maWxlLm1hZT4nLCAnLW9tYWUnLCAnPG91dGZpbGUubWFlPic=

>  <r_lp_tautomer_probability>  (142) 
1

>  <r_epik_Ionization_Penalty>  (142) 
7.90985e-06

>  <r_epik_Ionization_Penalty_Charging>  (142) 
0

>  <r_epik_Ionization_Penalty_Neutral>  (142) 
7.90985e-06

>  <r_epik_State_Penalty>  (142) 
-0

>  <r_epik_Charging_Adjusted_Penalty>  (142) 
0

>  <i_epik_Tot_Q>  (142) 
0

>  <i_epik_Tot_abs_Q>  (142) 
0

>  <s_epik_Chemistry_Notes>  (142) 
This compound contains an acetal/aminal-like group ( X-CH(R)-Y where X, Y are N, S, or O) that may be acid/base labile, releasing an aldehyde.

>  <s_lp_Force_Field>  (142) 
OPLS3e

>  <r_lp_Energy>  (142) 
114.745

>  <b_lp_Chiralities_Consistent>  (142) 
1

>  <s_lp_Variant>  (142) 
41:0-1

>  <s_i_glide_gridfile>  (142) 
pfpi4k_grid

>  <i_i_glide_lignum>  (142) 
17

>  <i_i_glide_rotatable_bonds>  (142) 
5

>  <r_i_docking_score>  (142) 
-2.82485

>  <r_i_glide_ligand_efficiency>  (142) 
-0.0724321

>  <r_i_glide_ligand_efficiency_sa>  (142) 
-0.245633

>  <r_i_glide_ligand_efficiency_ln>  (142) 
-0.605728

>  <r_i_glide_gscore>  (142) 
-2.82485

>  <r_i_glide_lipo>  (142) 
-0.00872892

>  <r_i_glide_hbond>  (142) 
-0.32

>  <r_i_glide_metal>  (142) 
-0

>  <r_i_glide_rewards>  (142) 
0

>  <r_i_glide_evdw>  (142) 
-29.7313

>  <r_i_glide_ecoul>  (142) 
-6.73039

>  <r_i_glide_erotb>  (142) 
0

>  <r_i_glide_esite>  (142) 
0

>  <r_i_glide_emodel>  (142) 
-41.6337

>  <r_i_glide_energy>  (142) 
-36.4617

>  <r_i_glide_einternal>  (142) 
1.51276

>  <r_i_glide_intrahb_reward>  (142) 
-0

>  <i_i_glide_confnum>  (142) 
1

>  <i_i_glide_posenum>  (142) 
35

>  <r_i_glide_eff_state_penalty>  (142) 
0

>  <ligand_id>  (142) 
41

>  <original_smiles>  (142) 
CC1CC(O)CC2C1CC1C3C(O)CC4C(C)(CC(O)C5C(C)(C)C(O)CCC54C)C3CCC2(C)C12OC2O

>  <smiles>  (142) 
[H]OC1([H])OC12C1([H])C([H])([H])C3([H])C([H])(C([H])([H])[H])C([H])([H])C([H])(O[H])C([H])([H])C3([H])C2(C([H])([H])[H])C([H])([H])C([H])([H])C2([H])C1([H])C([H])(O[H])C([H])([H])C1([H])C2(C([H])([H])[H])C([H])([H])C([H])(O[H])C2([H])C(C([H])([H])[H])(C([H])([H])[H])C([H])(O[H])C([H])([H])C([H])([H])C21C([H])([H])[H]

$$$$
41:0:1
     RDKit          3D

 93 99  0  0  1  0  0  0  0  0999 V2000
    1.7545    2.1805    2.4181 C   0  0  0  0  0  0  0  0  0  0  0  0
    0.7478    1.0228    2.3163 C   0  0  2  0  0  0  0  0  0  0  0  0
   -0.7089    1.5157    2.4183 C   0  0  0  0  0  0  0  0  0  0  0  0
   -1.0593    1.9832    3.8341 C   0  0  1  0  0  0  0  0  0  0  0  0
   -2.4188    2.3616    3.8822 O   0  0  0  0  0  0  0  0  0  0  0  0
   -0.8055    0.8775    4.8663 C   0  0  0  0  0  0  0  0  0  0  0  0
    0.6337    0.3056    4.7812 C   0  0  2  0  0  0  0  0  0  0  0  0
    0.9924   -0.1173    3.3266 C   0  0  2  0  0  0  0  0  0  0  0  0
    2.4239   -0.7026    3.2254 C   0  0  0  0  0  0  0  0  0  0  0  0
    2.6943   -1.8528    4.2296 C   0  0  2  0  0  0  0  0  0  0  0  0
    1.9625   -3.1969    3.8228 C   0  0  1  0  0  0  0  0  0  0  0  0
    2.6421   -4.0503    2.7024 C   0  0  1  0  0  0  0  0  0  0  0  0
    3.3985   -3.2920    1.7836 O   0  0  0  0  0  0  0  0  0  0  0  0
    3.5380   -5.2025    3.1916 C   0  0  0  0  0  0  0  0  0  0  0  0
    2.7792   -6.1289    4.1736 C   0  0  2  0  0  0  0  0  0  0  0  0
    2.3044   -5.3067    5.4234 C   0  0  2  0  0  0  0  0  0  0  0  0
    3.4881   -4.7132    6.2275 C   0  0  0  0  0  0  0  0  0  0  0  0
    1.4785   -6.2500    6.3396 C   0  0  0  0  0  0  0  0  0  0  0  0
    2.1668   -7.5839    6.6423 C   0  0  1  0  0  0  0  0  0  0  0  0
    1.4433   -8.2730    7.6393 O   0  0  0  0  0  0  0  0  0  0  0  0
    2.5379   -8.4228    5.3792 C   0  0  1  0  0  0  0  0  0  0  0  0
    1.4515   -9.3222    4.6564 C   0  0  0  0  0  0  0  0  0  0  0  0
    0.6282  -10.1568    5.6568 C   0  0  0  0  0  0  0  0  0  0  0  0
    0.4095   -8.5536    3.7925 C   0  0  0  0  0  0  0  0  0  0  0  0
    2.2414  -10.3600    3.8005 C   0  0  1  0  0  0  0  0  0  0  0  0
    1.3921  -11.0357    2.8923 O   0  0  0  0  0  0  0  0  0  0  0  0
    3.4615   -9.8034    3.0400 C   0  0  0  0  0  0  0  0  0  0  0  0
    3.5562   -8.2712    3.0164 C   0  0  0  0  0  0  0  0  0  0  0  0
    3.4258   -7.5617    4.4023 C   0  0  1  0  0  0  0  0  0  0  0  0
    4.8722   -7.4848    4.9716 C   0  0  0  0  0  0  0  0  0  0  0  0
    1.3688   -4.1319    4.9316 C   0  0  1  0  0  0  0  0  0  0  0  0
    0.5694   -3.4114    6.0557 C   0  0  0  0  0  0  0  0  0  0  0  0
   -0.0301   -2.0425    5.6729 C   0  0  0  0  0  0  0  0  0  0  0  0
    0.9387   -0.8244    5.8227 C   0  0  2  0  0  0  0  0  0  0  0  0
    0.7259   -0.2431    7.2504 C   0  0  0  0  0  0  0  0  0  0  0  0
    2.4182   -1.2436    5.6164 C   0  0  1  0  0  0  0  0  0  0  0  0
    3.0961   -1.8180    6.7431 O   0  0  0  0  0  0  0  0  0  0  0  0
    3.5223   -0.4975    6.3510 C   0  0  1  0  0  0  0  0  0  0  0  0
    4.7904   -0.4395    5.7364 O   0  0  0  0  0  0  0  0  0  0  0  0
    1.7598    2.6581    3.3983 H   0  0  0  0  0  0  0  0  0  0  0  0
    1.4966    2.9391    1.6786 H   0  0  0  0  0  0  0  0  0  0  0  0
    2.7729    1.8689    2.1877 H   0  0  0  0  0  0  0  0  0  0  0  0
    0.8645    0.6103    1.3132 H   0  0  0  0  0  0  0  0  0  0  0  0
   -0.8771    2.3196    1.7049 H   0  0  0  0  0  0  0  0  0  0  0  0
   -1.3826    0.7094    2.1224 H   0  0  0  0  0  0  0  0  0  0  0  0
   -0.4671    2.8628    4.0856 H   0  0  0  0  0  0  0  0  0  0  0  0
   -2.9382    1.6624    3.5037 H   0  0  0  0  0  0  0  0  0  0  0  0
   -0.9778    1.3068    5.8523 H   0  0  0  0  0  0  0  0  0  0  0  0
   -1.5357    0.0810    4.7375 H   0  0  0  0  0  0  0  0  0  0  0  0
    1.3002    1.1322    5.0423 H   0  0  0  0  0  0  0  0  0  0  0  0
    0.2904   -0.8909    3.0242 H   0  0  0  0  0  0  0  0  0  0  0  0
    2.6157   -0.9934    2.1957 H   0  0  0  0  0  0  0  0  0  0  0  0
    3.1507    0.0775    3.4391 H   0  0  0  0  0  0  0  0  0  0  0  0
    3.7583   -2.0813    4.1923 H   0  0  0  0  0  0  0  0  0  0  0  0
    1.0751   -2.8489    3.3056 H   0  0  0  0  0  0  0  0  0  0  0  0
    1.8407   -4.5053    2.1208 H   0  0  0  0  0  0  0  0  0  0  0  0
    2.8317   -2.6582    1.3742 H   0  0  0  0  0  0  0  0  0  0  0  0
    3.8547   -5.7637    2.3132 H   0  0  0  0  0  0  0  0  0  0  0  0
    4.4555   -4.8091    3.6283 H   0  0  0  0  0  0  0  0  0  0  0  0
    1.8553   -6.3564    3.6441 H   0  0  0  0  0  0  0  0  0  0  0  0
    3.1488   -4.2274    7.1401 H   0  0  0  0  0  0  0  0  0  0  0  0
    4.0419   -3.9739    5.6533 H   0  0  0  0  0  0  0  0  0  0  0  0
    4.2060   -5.4534    6.5558 H   0  0  0  0  0  0  0  0  0  0  0  0
    1.2835   -5.7535    7.2900 H   0  0  0  0  0  0  0  0  0  0  0  0
    0.4956   -6.4408    5.9163 H   0  0  0  0  0  0  0  0  0  0  0  0
    3.0916   -7.3482    7.1609 H   0  0  0  0  0  0  0  0  0  0  0  0
    1.8133   -9.1395    7.7334 H   0  0  0  0  0  0  0  0  0  0  0  0
    3.2117   -9.1776    5.7931 H   0  0  0  0  0  0  0  0  0  0  0  0
    0.0924  -10.9574    5.1497 H   0  0  0  0  0  0  0  0  0  0  0  0
   -0.1229   -9.5603    6.1753 H   0  0  0  0  0  0  0  0  0  0  0  0
    1.2750  -10.6348    6.3910 H   0  0  0  0  0  0  0  0  0  0  0  0
   -0.3996   -9.2176    3.4892 H   0  0  0  0  0  0  0  0  0  0  0  0
    0.8167   -8.1599    2.8671 H   0  0  0  0  0  0  0  0  0  0  0  0
   -0.0597   -7.7385    4.3334 H   0  0  0  0  0  0  0  0  0  0  0  0
    2.6260  -11.1316    4.4730 H   0  0  0  0  0  0  0  0  0  0  0  0
    1.8327  -11.8207    2.6076 H   0  0  0  0  0  0  0  0  0  0  0  0
    4.3678  -10.2055    3.4919 H   0  0  0  0  0  0  0  0  0  0  0  0
    3.4776  -10.1836    2.0179 H   0  0  0  0  0  0  0  0  0  0  0  0
    4.5113   -8.0140    2.5588 H   0  0  0  0  0  0  0  0  0  0  0  0
    2.8257   -7.8989    2.3040 H   0  0  0  0  0  0  0  0  0  0  0  0
    5.4229   -8.4058    4.7863 H   0  0  0  0  0  0  0  0  0  0  0  0
    4.9161   -7.3565    6.0481 H   0  0  0  0  0  0  0  0  0  0  0  0
    5.4514   -6.6766    4.5295 H   0  0  0  0  0  0  0  0  0  0  0  0
    0.5759   -4.6501    4.3890 H   0  0  0  0  0  0  0  0  0  0  0  0
   -0.2630   -4.0622    6.3284 H   0  0  0  0  0  0  0  0  0  0  0  0
    1.1457   -3.3123    6.9726 H   0  0  0  0  0  0  0  0  0  0  0  0
   -0.4594   -2.1076    4.6772 H   0  0  0  0  0  0  0  0  0  0  0  0
   -0.9031   -1.8754    6.2994 H   0  0  0  0  0  0  0  0  0  0  0  0
    1.1261   -0.9061    8.0189 H   0  0  0  0  0  0  0  0  0  0  0  0
   -0.3251   -0.0968    7.4886 H   0  0  0  0  0  0  0  0  0  0  0  0
    1.1975    0.7319    7.3708 H   0  0  0  0  0  0  0  0  0  0  0  0
    3.3189    0.3010    7.0555 H   0  0  0  0  0  0  0  0  0  0  0  0
    5.4396   -0.4039    6.4224 H   0  0  0  0  0  0  0  0  0  0  0  0
  1  2  1  0
  1 40  1  0
  1 41  1  0
  1 42  1  0
  2  8  1  0
  2  3  1  0
  2 43  1  6
  3  4  1  0
  3 44  1  0
  3 45  1  0
  4  5  1  0
  4  6  1  0
  4 46  1  1
  5 47  1  0
  6  7  1  0
  6 48  1  0
  6 49  1  0
  7 34  1  0
  7  8  1  0
  7 50  1  1
  8  9  1  0
  8 51  1  6
  9 10  1  0
  9 52  1  0
  9 53  1  0
 10 36  1  0
 10 11  1  0
 10 54  1  1
 11 31  1  0
 11 12  1  0
 11 55  1  6
 12 13  1  0
 12 14  1  0
 12 56  1  6
 13 57  1  0
 14 15  1  0
 14 58  1  0
 14 59  1  0
 15 29  1  0
 15 16  1  0
 15 60  1  6
 16 17  1  1
 16 18  1  0
 16 31  1  0
 17 61  1  0
 17 62  1  0
 17 63  1  0
 18 19  1  0
 18 64  1  0
 18 65  1  0
 19 20  1  0
 19 21  1  0
 19 66  1  1
 20 67  1  0
 21 29  1  0
 21 22  1  0
 21 68  1  1
 22 23  1  0
 22 24  1  0
 22 25  1  0
 23 69  1  0
 23 70  1  0
 23 71  1  0
 24 72  1  0
 24 73  1  0
 24 74  1  0
 25 26  1  0
 25 27  1  0
 25 75  1  1
 26 76  1  0
 27 28  1  0
 27 77  1  0
 27 78  1  0
 28 29  1  0
 28 79  1  0
 28 80  1  0
 29 30  1  1
 30 81  1  0
 30 82  1  0
 30 83  1  0
 31 32  1  0
 31 84  1  6
 32 33  1  0
 32 85  1  0
 32 86  1  0
 33 34  1  0
 33 87  1  0
 33 88  1  0
 34 35  1  1
 34 36  1  0
 35 89  1  0
 35 90  1  0
 35 91  1  0
 36 38  1  0
 36 37  1  1
 37 38  1  0
 38 39  1  0
 38 92  1  1
 39 93  1  0
M  END
>  <i_m_ct_stereo_status>  (143) 
1

>  <s_m_source_file>  (143) 
/var/tmp/pbs.5076255.sched01/tmp2pvlagj1/41_74nrqse.sdf

>  <i_m_source_file_index>  (143) 
17

>  <i_lp_mmshare_version>  (143) 
48012

>  <i_f3d_flags>  (143) 
0

>  <s_epik_input>  (143) 
W09IXVtDQEBIXShbQ0gyXTEpW0NIMl1bQ0BASF0oW0NIM10pW0NAQEhdKFtDSDJdMilbQ0BASF0xW0NAQF0zKFtDSDNdKVtDSDJdW0NIMl1bQ0BASF0oW0NASF00W0NAQEhdMltDQF0zNU9bQ0BIXTVbT0hdKVtDQF02KFtDSDNdKVtDQEBIXShbQ0gyXVtDQEBIXTRbT0hdKVtDQEBdNyhbQ0gzXSlbQ0BASF0oW0NAQEhdKFtDSDJdNilbT0hdKUMoW0NIM10pKFtDSDNdKVtDQEBIXShbT0hdKVtDSDJdW0NIMl03

>  <s_epik_cmdline>  (143) 
J2VwaWtfcHl0aG9uJywgJy1waHQnLCAnMi4wJywgJy1waCcsICc3LjAnLCAnLXRuJywgJzgnLCAnLW1hJywgJzIwMCcsICctaW1hZScsICc8aW5maWxlLm1hZT4nLCAnLW9tYWUnLCAnPG91dGZpbGUubWFlPic=

>  <r_lp_tautomer_probability>  (143) 
1

>  <r_epik_Ionization_Penalty>  (143) 
7.90985e-06

>  <r_epik_Ionization_Penalty_Charging>  (143) 
0

>  <r_epik_Ionization_Penalty_Neutral>  (143) 
7.90985e-06

>  <r_epik_State_Penalty>  (143) 
-0

>  <r_epik_Charging_Adjusted_Penalty>  (143) 
0

>  <i_epik_Tot_Q>  (143) 
0

>  <i_epik_Tot_abs_Q>  (143) 
0

>  <s_epik_Chemistry_Notes>  (143) 
This compound contains an acetal/aminal-like group ( X-CH(R)-Y where X, Y are N, S, or O) that may be acid/base labile, releasing an aldehyde.

>  <s_lp_Force_Field>  (143) 
OPLS3e

>  <r_lp_Energy>  (143) 
114.745

>  <b_lp_Chiralities_Consistent>  (143) 
1

>  <s_lp_Variant>  (143) 
41:0-1

>  <s_i_glide_gridfile>  (143) 
pfpi4k_grid

>  <i_i_glide_lignum>  (143) 
17

>  <i_i_glide_rotatable_bonds>  (143) 
5

>  <r_i_docking_score>  (143) 
-2.77318

>  <r_i_glide_ligand_efficiency>  (143) 
-0.0711073

>  <r_i_glide_ligand_efficiency_sa>  (143) 
-0.24114

>  <r_i_glide_ligand_efficiency_ln>  (143) 
-0.59465

>  <r_i_glide_gscore>  (143) 
-2.77318

>  <r_i_glide_lipo>  (143) 
-0.0115675

>  <r_i_glide_hbond>  (143) 
-0.32

>  <r_i_glide_metal>  (143) 
-0

>  <r_i_glide_rewards>  (143) 
0

>  <r_i_glide_evdw>  (143) 
-30.0675

>  <r_i_glide_ecoul>  (143) 
-6.25496

>  <r_i_glide_erotb>  (143) 
0

>  <r_i_glide_esite>  (143) 
0

>  <r_i_glide_emodel>  (143) 
-41.4669

>  <r_i_glide_energy>  (143) 
-36.3224

>  <r_i_glide_einternal>  (143) 
1.40816

>  <r_i_glide_intrahb_reward>  (143) 
-0

>  <i_i_glide_confnum>  (143) 
1

>  <i_i_glide_posenum>  (143) 
1

>  <r_i_glide_eff_state_penalty>  (143) 
0

>  <ligand_id>  (143) 
41

>  <original_smiles>  (143) 
CC1CC(O)CC2C1CC1C3C(O)CC4C(C)(CC(O)C5C(C)(C)C(O)CCC54C)C3CCC2(C)C12OC2O

>  <smiles>  (143) 
[H]OC1([H])OC12C1([H])C([H])([H])C3([H])C([H])(C([H])([H])[H])C([H])([H])C([H])(O[H])C([H])([H])C3([H])C2(C([H])([H])[H])C([H])([H])C([H])([H])C2([H])C1([H])C([H])(O[H])C([H])([H])C1([H])C2(C([H])([H])[H])C([H])([H])C([H])(O[H])C2([H])C(C([H])([H])[H])(C([H])([H])[H])C([H])(O[H])C([H])([H])C([H])([H])C21C([H])([H])[H]

$$$$
41:0:2
     RDKit          3D

 93 99  0  0  1  0  0  0  0  0999 V2000
    1.8194    2.1417    2.2737 C   0  0  0  0  0  0  0  0  0  0  0  0
    0.7909    0.9942    2.2391 C   0  0  2  0  0  0  0  0  0  0  0  0
   -0.6465    1.5146    2.4249 C   0  0  0  0  0  0  0  0  0  0  0  0
   -0.8963    2.0016    3.8559 C   0  0  1  0  0  0  0  0  0  0  0  0
   -2.2407    2.4090    3.9854 O   0  0  0  0  0  0  0  0  0  0  0  0
   -0.6015    0.8996    4.8802 C   0  0  0  0  0  0  0  0  0  0  0  0
    0.8166    0.2958    4.7153 C   0  0  2  0  0  0  0  0  0  0  0  0
    1.0764   -0.1456    3.2430 C   0  0  2  0  0  0  0  0  0  0  0  0
    2.4831   -0.7674    3.0595 C   0  0  0  0  0  0  0  0  0  0  0  0
    2.7908   -1.9128    4.0586 C   0  0  2  0  0  0  0  0  0  0  0  0
    2.0097   -3.2452    3.7145 C   0  0  1  0  0  0  0  0  0  0  0  0
    2.6043   -4.1241    2.5666 C   0  0  1  0  0  0  0  0  0  0  0  0
    3.2952   -3.3912    1.5772 O   0  0  0  0  0  0  0  0  0  0  0  0
    3.5023   -5.2927    3.0110 C   0  0  0  0  0  0  0  0  0  0  0  0
    2.7782   -6.1921    4.0428 C   0  0  2  0  0  0  0  0  0  0  0  0
    2.3990   -5.3486    5.3118 C   0  0  2  0  0  0  0  0  0  0  0  0
    3.6430   -4.7747    6.0352 C   0  0  0  0  0  0  0  0  0  0  0  0
    1.6089   -6.2638    6.2861 C   0  0  0  0  0  0  0  0  0  0  0  0
    2.2831   -7.6103    6.5592 C   0  0  1  0  0  0  0  0  0  0  0  0
    1.6044   -8.2699    7.6048 O   0  0  0  0  0  0  0  0  0  0  0  0
    2.5579   -8.4680    5.2839 C   0  0  1  0  0  0  0  0  0  0  0  0
    1.4070   -9.3476    4.6349 C   0  0  0  0  0  0  0  0  0  0  0  0
    0.6314  -10.1514    5.6938 C   0  0  0  0  0  0  0  0  0  0  0  0
    0.3326   -8.5636    3.8327 C   0  0  0  0  0  0  0  0  0  0  0  0
    2.1162  -10.4123    3.7400 C   0  0  1  0  0  0  0  0  0  0  0  0
    1.1977  -11.0715    2.8921 O   0  0  0  0  0  0  0  0  0  0  0  0
    3.3034   -9.8905    2.9059 C   0  0  0  0  0  0  0  0  0  0  0  0
    3.4331   -8.3617    2.8609 C   0  0  0  0  0  0  0  0  0  0  0  0
    3.4045   -7.6355    4.2460 C   0  0  1  0  0  0  0  0  0  0  0  0
    4.8835   -7.5902    4.7256 C   0  0  0  0  0  0  0  0  0  0  0  0
    1.4617   -4.1553    4.8663 C   0  0  1  0  0  0  0  0  0  0  0  0
    0.7494   -3.4067    6.0307 C   0  0  0  0  0  0  0  0  0  0  0  0
    0.1587   -2.0286    5.6702 C   0  0  0  0  0  0  0  0  0  0  0  0
    1.1634   -0.8309    5.7468 C   0  0  2  0  0  0  0  0  0  0  0  0
    1.0499   -0.2317    7.1787 C   0  0  0  0  0  0  0  0  0  0  0  0
    2.6192   -1.2786    5.4539 C   0  0  1  0  0  0  0  0  0  0  0  0
    3.3631   -1.8658    6.5296 O   0  0  0  0  0  0  0  0  0  0  0  0
    3.7892   -0.5527    6.1108 C   0  0  1  0  0  0  0  0  0  0  0  0
    5.0078   -0.5089    5.3973 O   0  0  0  0  0  0  0  0  0  0  0  0
    1.9085    2.6022    3.2547 H   0  0  0  0  0  0  0  0  0  0  0  0
    1.5466    2.9303    1.5761 H   0  0  0  0  0  0  0  0  0  0  0  0
    2.8104    1.7951    1.9773 H   0  0  0  0  0  0  0  0  0  0  0  0
    0.8410    0.5659    1.2364 H   0  0  0  0  0  0  0  0  0  0  0  0
   -0.8403    2.3170    1.7145 H   0  0  0  0  0  0  0  0  0  0  0  0
   -1.3540    0.7201    2.1771 H   0  0  0  0  0  0  0  0  0  0  0  0
   -0.2687    2.8681    4.0593 H   0  0  0  0  0  0  0  0  0  0  0  0
   -2.7944    1.7420    3.6007 H   0  0  0  0  0  0  0  0  0  0  0  0
   -0.7032    1.3429    5.8696 H   0  0  0  0  0  0  0  0  0  0  0  0
   -1.3560    0.1180    4.8060 H   0  0  0  0  0  0  0  0  0  0  0  0
    1.5144    1.1099    4.9274 H   0  0  0  0  0  0  0  0  0  0  0  0
    0.3415   -0.9080    2.9928 H   0  0  0  0  0  0  0  0  0  0  0  0
    2.5973   -1.0800    2.0232 H   0  0  0  0  0  0  0  0  0  0  0  0
    3.2372    0.0009    3.2130 H   0  0  0  0  0  0  0  0  0  0  0  0
    3.8413   -2.1744    3.9644 H   0  0  0  0  0  0  0  0  0  0  0  0
    1.1011   -2.8850    3.2434 H   0  0  0  0  0  0  0  0  0  0  0  0
    1.7598   -4.5725    2.0457 H   0  0  0  0  0  0  0  0  0  0  0  0
    4.0424   -2.9779    1.9786 H   0  0  0  0  0  0  0  0  0  0  0  0
    3.7467   -5.8717    2.1198 H   0  0  0  0  0  0  0  0  0  0  0  0
    4.4561   -4.9280    3.3892 H   0  0  0  0  0  0  0  0  0  0  0  0
    1.8202   -6.4021    3.5729 H   0  0  0  0  0  0  0  0  0  0  0  0
    3.3707   -4.2717    6.9617 H   0  0  0  0  0  0  0  0  0  0  0  0
    4.1782   -4.0552    5.4210 H   0  0  0  0  0  0  0  0  0  0  0  0
    4.3620   -5.5296    6.3280 H   0  0  0  0  0  0  0  0  0  0  0  0
    1.4854   -5.7548    7.2414 H   0  0  0  0  0  0  0  0  0  0  0  0
    0.5972   -6.4343    5.9261 H   0  0  0  0  0  0  0  0  0  0  0  0
    3.2447   -7.3906    7.0163 H   0  0  0  0  0  0  0  0  0  0  0  0
    1.9575   -9.1446    7.6863 H   0  0  0  0  0  0  0  0  0  0  0  0
    3.2376   -9.2362    5.6641 H   0  0  0  0  0  0  0  0  0  0  0  0
    0.0523  -10.9504    5.2345 H   0  0  0  0  0  0  0  0  0  0  0  0
   -0.0730   -9.5287    6.2446 H   0  0  0  0  0  0  0  0  0  0  0  0
    1.3146  -10.6339    6.3949 H   0  0  0  0  0  0  0  0  0  0  0  0
   -0.5084   -9.2122    3.5863 H   0  0  0  0  0  0  0  0  0  0  0  0
    0.6880   -8.1853    2.8783 H   0  0  0  0  0  0  0  0  0  0  0  0
   -0.0850   -7.7352    4.3948 H   0  0  0  0  0  0  0  0  0  0  0  0
    2.5197  -11.1918    4.3942 H   0  0  0  0  0  0  0  0  0  0  0  0
    1.5949  -11.8835    2.6114 H   0  0  0  0  0  0  0  0  0  0  0  0
    4.2251  -10.3110    3.3073 H   0  0  0  0  0  0  0  0  0  0  0  0
    3.2520  -10.2728    1.8875 H   0  0  0  0  0  0  0  0  0  0  0  0
    4.3628   -8.1315    2.3453 H   0  0  0  0  0  0  0  0  0  0  0  0
    2.6668   -7.9768    2.1911 H   0  0  0  0  0  0  0  0  0  0  0  0
    5.4005   -8.5261    4.5159 H   0  0  0  0  0  0  0  0  0  0  0  0
    4.9991   -7.4520    5.7952 H   0  0  0  0  0  0  0  0  0  0  0  0
    5.4529   -6.8007    4.2397 H   0  0  0  0  0  0  0  0  0  0  0  0
    0.6239   -4.6599    4.3801 H   0  0  0  0  0  0  0  0  0  0  0  0
   -0.0800   -4.0364    6.3611 H   0  0  0  0  0  0  0  0  0  0  0  0
    1.3832   -3.3119    6.9098 H   0  0  0  0  0  0  0  0  0  0  0  0
   -0.3366   -2.0942    4.7041 H   0  0  0  0  0  0  0  0  0  0  0  0
   -0.6685   -1.8353    6.3501 H   0  0  0  0  0  0  0  0  0  0  0  0
    1.4816   -0.8969    7.9271 H   0  0  0  0  0  0  0  0  0  0  0  0
    0.0174   -0.0597    7.4796 H   0  0  0  0  0  0  0  0  0  0  0  0
    1.5495    0.7335    7.2589 H   0  0  0  0  0  0  0  0  0  0  0  0
    3.6461    0.2437    6.8385 H   0  0  0  0  0  0  0  0  0  0  0  0
    4.8964   -0.9648    4.5763 H   0  0  0  0  0  0  0  0  0  0  0  0
  1  2  1  0
  1 40  1  0
  1 41  1  0
  1 42  1  0
  2  8  1  0
  2  3  1  0
  2 43  1  6
  3  4  1  0
  3 44  1  0
  3 45  1  0
  4  5  1  0
  4  6  1  0
  4 46  1  1
  5 47  1  0
  6  7  1  0
  6 48  1  0
  6 49  1  0
  7 34  1  0
  7  8  1  0
  7 50  1  1
  8  9  1  0
  8 51  1  6
  9 10  1  0
  9 52  1  0
  9 53  1  0
 10 36  1  0
 10 11  1  0
 10 54  1  1
 11 31  1  0
 11 12  1  0
 11 55  1  6
 12 13  1  0
 12 14  1  0
 12 56  1  6
 13 57  1  0
 14 15  1  0
 14 58  1  0
 14 59  1  0
 15 29  1  0
 15 16  1  0
 15 60  1  6
 16 17  1  1
 16 18  1  0
 16 31  1  0
 17 61  1  0
 17 62  1  0
 17 63  1  0
 18 19  1  0
 18 64  1  0
 18 65  1  0
 19 20  1  0
 19 21  1  0
 19 66  1  1
 20 67  1  0
 21 29  1  0
 21 22  1  0
 21 68  1  1
 22 23  1  0
 22 24  1  0
 22 25  1  0
 23 69  1  0
 23 70  1  0
 23 71  1  0
 24 72  1  0
 24 73  1  0
 24 74  1  0
 25 26  1  0
 25 27  1  0
 25 75  1  1
 26 76  1  0
 27 28  1  0
 27 77  1  0
 27 78  1  0
 28 29  1  0
 28 79  1  0
 28 80  1  0
 29 30  1  1
 30 81  1  0
 30 82  1  0
 30 83  1  0
 31 32  1  0
 31 84  1  6
 32 33  1  0
 32 85  1  0
 32 86  1  0
 33 34  1  0
 33 87  1  0
 33 88  1  0
 34 35  1  1
 34 36  1  0
 35 89  1  0
 35 90  1  0
 35 91  1  0
 36 38  1  0
 36 37  1  1
 37 38  1  0
 38 39  1  0
 38 92  1  1
 39 93  1  0
M  END
>  <i_m_ct_stereo_status>  (144) 
1

>  <s_m_source_file>  (144) 
/var/tmp/pbs.5076255.sched01/tmp2pvlagj1/41_74nrqse.sdf

>  <i_m_source_file_index>  (144) 
17

>  <i_lp_mmshare_version>  (144) 
48012

>  <i_f3d_flags>  (144) 
0

>  <s_epik_input>  (144) 
W09IXVtDQEBIXShbQ0gyXTEpW0NIMl1bQ0BASF0oW0NIM10pW0NAQEhdKFtDSDJdMilbQ0BASF0xW0NAQF0zKFtDSDNdKVtDSDJdW0NIMl1bQ0BASF0oW0NASF00W0NAQEhdMltDQF0zNU9bQ0BIXTVbT0hdKVtDQF02KFtDSDNdKVtDQEBIXShbQ0gyXVtDQEBIXTRbT0hdKVtDQEBdNyhbQ0gzXSlbQ0BASF0oW0NAQEhdKFtDSDJdNilbT0hdKUMoW0NIM10pKFtDSDNdKVtDQEBIXShbT0hdKVtDSDJdW0NIMl03

>  <s_epik_cmdline>  (144) 
J2VwaWtfcHl0aG9uJywgJy1waHQnLCAnMi4wJywgJy1waCcsICc3LjAnLCAnLXRuJywgJzgnLCAnLW1hJywgJzIwMCcsICctaW1hZScsICc8aW5maWxlLm1hZT4nLCAnLW9tYWUnLCAnPG91dGZpbGUubWFlPic=

>  <r_lp_tautomer_probability>  (144) 
1

>  <r_epik_Ionization_Penalty>  (144) 
7.90985e-06

>  <r_epik_Ionization_Penalty_Charging>  (144) 
0

>  <r_epik_Ionization_Penalty_Neutral>  (144) 
7.90985e-06

>  <r_epik_State_Penalty>  (144) 
-0

>  <r_epik_Charging_Adjusted_Penalty>  (144) 
0

>  <i_epik_Tot_Q>  (144) 
0

>  <i_epik_Tot_abs_Q>  (144) 
0

>  <s_epik_Chemistry_Notes>  (144) 
This compound contains an acetal/aminal-like group ( X-CH(R)-Y where X, Y are N, S, or O) that may be acid/base labile, releasing an aldehyde.

>  <s_lp_Force_Field>  (144) 
OPLS3e

>  <r_lp_Energy>  (144) 
114.745

>  <b_lp_Chiralities_Consistent>  (144) 
1

>  <s_lp_Variant>  (144) 
41:0-1

>  <s_i_glide_gridfile>  (144) 
pfpi4k_grid

>  <i_i_glide_lignum>  (144) 
17

>  <i_i_glide_rotatable_bonds>  (144) 
5

>  <r_i_docking_score>  (144) 
-2.52458

>  <r_i_glide_ligand_efficiency>  (144) 
-0.0647329

>  <r_i_glide_ligand_efficiency_sa>  (144) 
-0.219523

>  <r_i_glide_ligand_efficiency_ln>  (144) 
-0.541343

>  <r_i_glide_gscore>  (144) 
-2.52458

>  <r_i_glide_lipo>  (144) 
-0.0147993

>  <r_i_glide_hbond>  (144) 
-0.256306

>  <r_i_glide_metal>  (144) 
-0

>  <r_i_glide_rewards>  (144) 
0

>  <r_i_glide_evdw>  (144) 
-30.476

>  <r_i_glide_ecoul>  (144) 
-4.86453

>  <r_i_glide_erotb>  (144) 
0

>  <r_i_glide_esite>  (144) 
0

>  <r_i_glide_emodel>  (144) 
-39.9171

>  <r_i_glide_energy>  (144) 
-35.3405

>  <r_i_glide_einternal>  (144) 
1.35818

>  <r_i_glide_intrahb_reward>  (144) 
-0

>  <i_i_glide_confnum>  (144) 
2

>  <i_i_glide_posenum>  (144) 
15

>  <r_i_glide_eff_state_penalty>  (144) 
0

>  <ligand_id>  (144) 
41

>  <original_smiles>  (144) 
CC1CC(O)CC2C1CC1C3C(O)CC4C(C)(CC(O)C5C(C)(C)C(O)CCC54C)C3CCC2(C)C12OC2O

>  <smiles>  (144) 
[H]OC1([H])OC12C1([H])C([H])([H])C3([H])C([H])(C([H])([H])[H])C([H])([H])C([H])(O[H])C([H])([H])C3([H])C2(C([H])([H])[H])C([H])([H])C([H])([H])C2([H])C1([H])C([H])(O[H])C([H])([H])C1([H])C2(C([H])([H])[H])C([H])([H])C([H])(O[H])C2([H])C(C([H])([H])[H])(C([H])([H])[H])C([H])(O[H])C([H])([H])C([H])([H])C21C([H])([H])[H]

$$$$
42:0:0
     RDKit          3D

 89 94  0  0  1  0  0  0  0  0999 V2000
    7.0728   -3.0010   -1.5820 C   0  0  0  0  0  0  0  0  0  0  0  0
    7.7822   -3.5716   -0.3441 C   0  0  0  0  0  0  0  0  0  0  0  0
    8.9910   -3.8508   -0.3754 O   0  0  0  0  0  0  0  0  0  0  0  0
    7.0345   -3.7508    0.7355 O   0  0  0  0  0  0  0  0  0  0  0  0
    5.6287   -3.5191    0.7682 C   0  0  2  0  0  0  0  0  0  0  0  0
    5.3100   -2.0541    1.1998 C   0  0  1  0  0  0  0  0  0  0  0  0
    6.4441   -1.0060    0.9523 C   0  0  0  0  0  0  0  0  0  0  0  0
    3.9544   -1.5782    0.6053 C   0  0  0  0  0  0  0  0  0  0  0  0
    3.3775   -0.3778    1.3884 C   0  0  0  0  0  0  0  0  0  0  0  0
    4.0331   -1.1995   -0.8908 C   0  0  0  0  0  0  0  0  0  0  0  0
    3.0023   -2.6375    0.6108 O   0  0  0  0  0  0  0  0  0  0  0  0
    2.7397   -3.3316    1.8233 C   0  0  0  0  0  0  0  0  0  0  0  0
    3.4687   -4.6916    1.8942 C   0  0  2  0  0  0  0  0  0  0  0  0
    3.0526   -5.4893    3.2320 C   0  0  1  0  0  0  0  0  0  0  0  0
    1.6443   -6.1449    3.2060 C   0  0  0  0  0  0  0  0  0  0  0  0
    1.3166   -7.4905    2.4913 C   0  0  0  0  0  0  0  0  0  0  0  0
    0.1806   -7.9191    2.6202 O   0  0  0  0  0  0  0  0  0  0  0  0
    2.2341   -8.1517    1.6873 O   0  0  0  0  0  0  0  0  0  0  0  0
    3.6660   -8.0240    1.5740 C   0  0  1  0  0  0  0  0  0  0  0  0
    4.1530   -6.6699    0.9918 C   0  0  0  0  0  0  0  0  0  0  0  0
    5.3043   -6.0315    1.3064 C   0  0  0  0  0  0  0  0  0  0  0  0
    5.0346   -4.5938    1.7380 C   0  0  1  0  0  0  0  0  0  0  0  0
    3.2021   -5.5443    0.6542 C   0  0  1  0  0  0  0  0  0  0  0  0
    1.8975   -5.8270    0.1868 O   0  0  0  0  0  0  0  0  0  0  0  0
    4.3696   -8.6363    2.8708 C   0  0  2  0  0  0  0  0  0  0  0  0
    5.9013   -8.7484    2.6067 C   0  0  0  0  0  0  0  0  0  0  0  0
    3.8400  -10.0822    3.0539 C   0  0  0  0  0  0  0  0  0  0  0  0
    4.3709  -10.8085    4.3061 C   0  0  0  0  0  0  0  0  0  0  0  0
    4.0955  -10.0810    5.6504 C   0  0  1  0  0  0  0  0  0  0  0  0
    4.6832  -10.8899    6.8967 C   0  0  0  0  0  0  0  0  0  0  0  0
    3.8325  -10.6838    8.1850 C   0  0  0  0  0  0  0  0  0  0  0  0
    4.6884  -12.4256    6.6542 C   0  0  0  0  0  0  0  0  0  0  0  0
    6.1588  -10.5166    7.1832 C   0  0  0  0  0  0  0  0  0  0  0  0
    6.4595   -9.0134    7.1573 C   0  0  0  0  0  0  0  0  0  0  0  0
    6.0055   -8.4006    5.8215 C   0  0  0  0  0  0  0  0  0  0  0  0
    4.4807   -8.5441    5.5760 C   0  0  2  0  0  0  0  0  0  0  0  0
    3.7441   -7.7737    6.7192 C   0  0  0  0  0  0  0  0  0  0  0  0
    3.9908   -7.8850    4.2041 C   0  0  1  0  0  0  0  0  0  0  0  0
    4.1071   -6.3195    4.0922 C   0  0  0  0  0  0  0  0  0  0  0  0
    6.5805   -2.0893   -1.3957 H   0  0  0  0  0  0  0  0  0  0  0  0
    6.3517   -3.7176   -1.9843 H   0  0  0  0  0  0  0  0  0  0  0  0
    7.7976   -2.8171   -2.3874 H   0  0  0  0  0  0  0  0  0  0  0  0
    5.2160   -3.7249   -0.2132 H   0  0  0  0  0  0  0  0  0  0  0  0
    5.2053   -2.0804    2.2690 H   0  0  0  0  0  0  0  0  0  0  0  0
    6.7399   -0.8344   -0.0642 H   0  0  0  0  0  0  0  0  0  0  0  0
    7.3484   -1.2621    1.5221 H   0  0  0  0  0  0  0  0  0  0  0  0
    6.1455   -0.0337    1.3569 H   0  0  0  0  0  0  0  0  0  0  0  0
    3.9744    0.5214    1.2447 H   0  0  0  0  0  0  0  0  0  0  0  0
    3.3428   -0.5609    2.4638 H   0  0  0  0  0  0  0  0  0  0  0  0
    2.3630   -0.1368    1.0628 H   0  0  0  0  0  0  0  0  0  0  0  0
    4.6589   -0.3267   -1.0585 H   0  0  0  0  0  0  0  0  0  0  0  0
    3.0395   -0.9601   -1.2762 H   0  0  0  0  0  0  0  0  0  0  0  0
    4.3985   -2.0200   -1.5003 H   0  0  0  0  0  0  0  0  0  0  0  0
    2.9230   -2.7139    2.6954 H   0  0  0  0  0  0  0  0  0  0  0  0
    1.6747   -3.5259    1.8321 H   0  0  0  0  0  0  0  0  0  0  0  0
    2.8784   -4.6511    3.9034 H   0  0  0  0  0  0  0  0  0  0  0  0
    1.3314   -6.2867    4.2420 H   0  0  0  0  0  0  0  0  0  0  0  0
    0.9299   -5.4227    2.8096 H   0  0  0  0  0  0  0  0  0  0  0  0
    3.9023   -8.7240    0.7684 H   0  0  0  0  0  0  0  0  0  0  0  0
    6.1972   -6.4695    1.6930 H   0  0  0  0  0  0  0  0  0  0  0  0
    5.4714   -4.3979    2.7201 H   0  0  0  0  0  0  0  0  0  0  0  0
    3.6006   -5.0512   -0.2327 H   0  0  0  0  0  0  0  0  0  0  0  0
    1.9671   -5.9508   -0.7501 H   0  0  0  0  0  0  0  0  0  0  0  0
    6.3604   -9.6573    2.9899 H   0  0  0  0  0  0  0  0  0  0  0  0
    6.4542   -7.9312    3.0709 H   0  0  0  0  0  0  0  0  0  0  0  0
    6.1295   -8.7653    1.5360 H   0  0  0  0  0  0  0  0  0  0  0  0
    2.7536  -10.0934    3.1338 H   0  0  0  0  0  0  0  0  0  0  0  0
    4.0622  -10.6813    2.1672 H   0  0  0  0  0  0  0  0  0  0  0  0
    3.8729  -11.7790    4.3088 H   0  0  0  0  0  0  0  0  0  0  0  0
    5.4303  -11.0424    4.2159 H   0  0  0  0  0  0  0  0  0  0  0  0
    3.0094  -10.1232    5.7433 H   0  0  0  0  0  0  0  0  0  0  0  0
    3.7658  -11.5903    8.7940 H   0  0  0  0  0  0  0  0  0  0  0  0
    2.8004  -10.4069    7.9569 H   0  0  0  0  0  0  0  0  0  0  0  0
    4.2473   -9.9270    8.8517 H   0  0  0  0  0  0  0  0  0  0  0  0
    5.0304  -12.9779    7.5361 H   0  0  0  0  0  0  0  0  0  0  0  0
    5.3646  -12.7158    5.8480 H   0  0  0  0  0  0  0  0  0  0  0  0
    3.6931  -12.7990    6.4043 H   0  0  0  0  0  0  0  0  0  0  0  0
    6.4639  -10.9226    8.1455 H   0  0  0  0  0  0  0  0  0  0  0  0
    6.8061  -10.9958    6.4482 H   0  0  0  0  0  0  0  0  0  0  0  0
    6.0034   -8.4998    8.0063 H   0  0  0  0  0  0  0  0  0  0  0  0
    7.5357   -8.8673    7.2734 H   0  0  0  0  0  0  0  0  0  0  0  0
    6.3170   -7.3530    5.7665 H   0  0  0  0  0  0  0  0  0  0  0  0
    6.5725   -8.9294    5.0646 H   0  0  0  0  0  0  0  0  0  0  0  0
    4.1922   -6.7966    6.9145 H   0  0  0  0  0  0  0  0  0  0  0  0
    3.7840   -8.2549    7.6872 H   0  0  0  0  0  0  0  0  0  0  0  0
    2.6833   -7.6265    6.5017 H   0  0  0  0  0  0  0  0  0  0  0  0
    2.9352   -8.0728    4.3357 H   0  0  0  0  0  0  0  0  0  0  0  0
    5.1431   -6.0731    3.8885 H   0  0  0  0  0  0  0  0  0  0  0  0
    3.9829   -5.8909    5.0781 H   0  0  0  0  0  0  0  0  0  0  0  0
  1  2  1  0
  1 40  1  0
  1 41  1  0
  1 42  1  0
  2  3  2  0
  2  4  1  0
  4  5  1  0
  5 22  1  0
  5  6  1  0
  5 43  1  6
  6  7  1  0
  6  8  1  0
  6 44  1  1
  7 45  1  0
  7 46  1  0
  7 47  1  0
  8  9  1  0
  8 10  1  0
  8 11  1  0
  9 48  1  0
  9 49  1  0
  9 50  1  0
 10 51  1  0
 10 52  1  0
 10 53  1  0
 11 12  1  0
 13 12  1  6
 12 54  1  0
 12 55  1  0
 13 22  1  0
 13 23  1  0
 13 14  1  0
 14 39  1  0
 14 15  1  0
 14 56  1  1
 15 16  1  0
 15 57  1  0
 15 58  1  0
 16 17  2  0
 16 18  1  0
 18 19  1  0
 19 20  1  0
 19 25  1  0
 19 59  1  6
 20 21  2  0
 20 23  1  0
 21 22  1  0
 21 60  1  0
 22 61  1  1
 23 24  1  0
 23 62  1  6
 24 63  1  0
 25 38  1  0
 25 26  1  6
 25 27  1  0
 26 64  1  0
 26 65  1  0
 26 66  1  0
 27 28  1  0
 27 67  1  0
 27 68  1  0
 28 29  1  0
 28 69  1  0
 28 70  1  0
 29 36  1  0
 29 30  1  0
 29 71  1  1
 30 31  1  0
 30 32  1  0
 30 33  1  0
 31 72  1  0
 31 73  1  0
 31 74  1  0
 32 75  1  0
 32 76  1  0
 32 77  1  0
 33 34  1  0
 33 78  1  0
 33 79  1  0
 34 35  1  0
 34 80  1  0
 34 81  1  0
 35 36  1  0
 35 82  1  0
 35 83  1  0
 36 37  1  1
 36 38  1  0
 37 84  1  0
 37 85  1  0
 37 86  1  0
 38 39  1  0
 38 87  1  1
 39 88  1  0
 39 89  1  0
M  END
>  <i_m_ct_stereo_status>  (145) 
1

>  <s_m_source_file>  (145) 
/var/tmp/pbs.5076255.sched01/tmp2pvlagj1/41_74nrqse.sdf

>  <i_m_source_file_index>  (145) 
18

>  <i_lp_mmshare_version>  (145) 
48012

>  <i_f3d_flags>  (145) 
2

>  <s_epik_input>  (145) 
W0NIMl0xT0MoW0NIM10pKFtDSDNdKVtDQEhdKFtDSDNdKVtDQEBIXShPQyg9TylbQ0gzXSlbQ0BIXTJbQ0hdPUMoW0NASF0zW09IXSlbQ0BASF0oT0MoPU8pW0NIMl1bQ0BIXTRbQ0BAXTEyMylbQ0BdNShbQ0gzXSlbQ0BIXShbQ0gyXTQpW0NAQF02KFtDSDNdKVtDQEBIXShbQ0gyXVtDSDJdNSlDKFtDSDNdKShbQ0gzXSlbQ0gyXVtDSDJdW0NIMl02

>  <s_epik_cmdline>  (145) 
J2VwaWtfcHl0aG9uJywgJy1waHQnLCAnMi4wJywgJy1waCcsICc3LjAnLCAnLXRuJywgJzgnLCAnLW1hJywgJzIwMCcsICctaW1hZScsICc8aW5maWxlLm1hZT4nLCAnLW9tYWUnLCAnPG91dGZpbGUubWFlPic=

>  <r_lp_tautomer_probability>  (145) 
1

>  <r_epik_Ionization_Penalty>  (145) 
1.03997e-06

>  <r_epik_Ionization_Penalty_Charging>  (145) 
0

>  <r_epik_Ionization_Penalty_Neutral>  (145) 
1.03997e-06

>  <r_epik_State_Penalty>  (145) 
-0

>  <r_epik_Charging_Adjusted_Penalty>  (145) 
0

>  <i_epik_Tot_Q>  (145) 
0

>  <i_epik_Tot_abs_Q>  (145) 
0

>  <s_epik_Chemistry_Notes>  (145) 
This compound has an ester and may undergo hydrolysis at high or low pH.

>  <s_lp_Force_Field>  (145) 
OPLS3e

>  <r_lp_Energy>  (145) 
152.619

>  <b_lp_Chiralities_Consistent>  (145) 
0

>  <s_lp_Variant>  (145) 
42:0-1

>  <s_i_glide_gridfile>  (145) 
pfpi4k_grid

>  <i_i_glide_lignum>  (145) 
18

>  <i_i_glide_rotatable_bonds>  (145) 
3

>  <r_i_docking_score>  (145) 
-2.95791

>  <r_i_glide_ligand_efficiency>  (145) 
-0.0758438

>  <r_i_glide_ligand_efficiency_sa>  (145) 
-0.257202

>  <r_i_glide_ligand_efficiency_ln>  (145) 
-0.634259

>  <r_i_glide_gscore>  (145) 
-2.95791

>  <r_i_glide_lipo>  (145) 
-0.39985

>  <r_i_glide_hbond>  (145) 
-0.119234

>  <r_i_glide_metal>  (145) 
-0

>  <r_i_glide_rewards>  (145) 
-0.240832

>  <r_i_glide_evdw>  (145) 
-34.4573

>  <r_i_glide_ecoul>  (145) 
-3.46709

>  <r_i_glide_erotb>  (145) 
0.0702311

>  <r_i_glide_esite>  (145) 
-0.0252933

>  <r_i_glide_emodel>  (145) 
-41.0268

>  <r_i_glide_energy>  (145) 
-37.9244

>  <r_i_glide_einternal>  (145) 
6.27367

>  <r_i_glide_intrahb_reward>  (145) 
-0

>  <i_i_glide_confnum>  (145) 
1

>  <i_i_glide_posenum>  (145) 
16

>  <r_i_glide_eff_state_penalty>  (145) 
0

>  <ligand_id>  (145) 
42

>  <original_smiles>  (145) 
CC(=O)OC1C(C)C(C)(C)OCC23C4CC(=O)OC(C(=CC12)C3O)C1(C)CCC2C(C)(C)CCCC2(C)C1C4

>  <smiles>  (145) 
[H]OC1([H])C2=C([H])C3([H])C([H])(OC(=O)C([H])([H])[H])C([H])(C([H])([H])[H])C(C([H])([H])[H])(C([H])([H])[H])OC([H])([H])C13C1([H])C([H])([H])C(=O)OC2([H])C2(C([H])([H])[H])C([H])([H])C([H])([H])C3([H])C(C([H])([H])[H])(C([H])([H])[H])C([H])([H])C([H])([H])C([H])([H])C3(C([H])([H])[H])C2([H])C1([H])[H]

$$$$
42:0:1
     RDKit          3D

 89 94  0  0  1  0  0  0  0  0999 V2000
    2.0100    0.0211    7.7939 C   0  0  0  0  0  0  0  0  0  0  0  0
    0.6482   -0.6631    7.7514 C   0  0  0  0  0  0  0  0  0  0  0  0
    0.0718   -0.9724    8.7968 O   0  0  0  0  0  0  0  0  0  0  0  0
    0.1281   -0.9109    6.5251 O   0  0  0  0  0  0  0  0  0  0  0  0
    0.8194   -0.6454    5.3020 C   0  0  2  0  0  0  0  0  0  0  0  0
   -0.1010    0.1418    4.3194 C   0  0  1  0  0  0  0  0  0  0  0  0
   -1.2032    0.9683    5.0352 C   0  0  0  0  0  0  0  0  0  0  0  0
    0.7498    1.0263    3.3534 C   0  0  0  0  0  0  0  0  0  0  0  0
   -0.0393    1.3933    2.0798 C   0  0  0  0  0  0  0  0  0  0  0  0
    1.2610    2.3331    4.0079 C   0  0  0  0  0  0  0  0  0  0  0  0
    1.9596    0.3679    2.9866 O   0  0  0  0  0  0  0  0  0  0  0  0
    1.8889   -0.9379    2.4377 C   0  0  0  0  0  0  0  0  0  0  0  0
    2.2185   -2.0325    3.4918 C   0  0  2  0  0  0  0  0  0  0  0  0
    2.2430   -3.4904    2.8133 C   0  0  1  0  0  0  0  0  0  0  0  0
    3.4942   -3.8056    1.9426 C   0  0  0  0  0  0  0  0  0  0  0  0
    4.8691   -4.2451    2.5266 C   0  0  0  0  0  0  0  0  0  0  0  0
    5.7496   -4.5416    1.7229 O   0  0  0  0  0  0  0  0  0  0  0  0
    5.1389   -4.2506    3.8905 O   0  0  0  0  0  0  0  0  0  0  0  0
    4.2634   -4.2044    5.0283 C   0  0  1  0  0  0  0  0  0  0  0  0
    3.4604   -2.8726    5.2017 C   0  0  0  0  0  0  0  0  0  0  0  0
    2.2191   -2.7747    5.7015 C   0  0  0  0  0  0  0  0  0  0  0  0
    1.2956   -2.0155    4.7428 C   0  0  1  0  0  0  0  0  0  0  0  0
    3.5492   -1.7494    4.1992 C   0  0  1  0  0  0  0  0  0  0  0  0
    4.7507   -1.5529    3.4876 O   0  0  0  0  0  0  0  0  0  0  0  0
    3.5191   -5.6071    5.1842 C   0  0  2  0  0  0  0  0  0  0  0  0
    2.8064   -5.6507    6.5596 C   0  0  0  0  0  0  0  0  0  0  0  0
    4.6046   -6.7227    5.2054 C   0  0  0  0  0  0  0  0  0  0  0  0
    4.0522   -8.1512    5.2815 C   0  0  0  0  0  0  0  0  0  0  0  0
    3.0772   -8.5368    4.1405 C   0  0  1  0  0  0  0  0  0  0  0  0
    2.5534  -10.0367    4.2964 C   0  0  0  0  0  0  0  0  0  0  0  0
    2.2631  -10.7051    2.9257 C   0  0  0  0  0  0  0  0  0  0  0  0
    3.5957  -10.9660    4.9726 C   0  0  0  0  0  0  0  0  0  0  0  0
    1.2847  -10.1084    5.1956 C   0  0  0  0  0  0  0  0  0  0  0  0
    0.2171   -9.0520    4.8898 C   0  0  0  0  0  0  0  0  0  0  0  0
    0.8254   -7.6466    4.9519 C   0  0  0  0  0  0  0  0  0  0  0  0
    1.9570   -7.4299    3.9132 C   0  0  2  0  0  0  0  0  0  0  0  0
    1.3429   -7.6054    2.4928 C   0  0  0  0  0  0  0  0  0  0  0  0
    2.5879   -5.9657    3.9531 C   0  0  1  0  0  0  0  0  0  0  0  0
    1.6443   -4.7818    3.5322 C   0  0  0  0  0  0  0  0  0  0  0  0
    1.9654    0.9882    7.2998 H   0  0  0  0  0  0  0  0  0  0  0  0
    2.7621   -0.5995    7.3121 H   0  0  0  0  0  0  0  0  0  0  0  0
    2.3539    0.1964    8.8295 H   0  0  0  0  0  0  0  0  0  0  0  0
    1.6882   -0.0044    5.4621 H   0  0  0  0  0  0  0  0  0  0  0  0
   -0.6418   -0.5970    3.7185 H   0  0  0  0  0  0  0  0  0  0  0  0
   -0.7890    1.6683    5.7646 H   0  0  0  0  0  0  0  0  0  0  0  0
   -1.9046    0.3252    5.5676 H   0  0  0  0  0  0  0  0  0  0  0  0
   -1.7955    1.5466    4.3267 H   0  0  0  0  0  0  0  0  0  0  0  0
   -0.8585    2.0755    2.3007 H   0  0  0  0  0  0  0  0  0  0  0  0
   -0.4775    0.5216    1.5990 H   0  0  0  0  0  0  0  0  0  0  0  0
    0.5987    1.8893    1.3493 H   0  0  0  0  0  0  0  0  0  0  0  0
    0.4498    3.0141    4.2655 H   0  0  0  0  0  0  0  0  0  0  0  0
    1.9129    2.8763    3.3227 H   0  0  0  0  0  0  0  0  0  0  0  0
    1.8387    2.1452    4.9134 H   0  0  0  0  0  0  0  0  0  0  0  0
    0.9425   -1.1224    1.9356 H   0  0  0  0  0  0  0  0  0  0  0  0
    2.6417   -0.9640    1.6550 H   0  0  0  0  0  0  0  0  0  0  0  0
    1.4818   -3.3322    2.0601 H   0  0  0  0  0  0  0  0  0  0  0  0
    3.2115   -4.5915    1.2425 H   0  0  0  0  0  0  0  0  0  0  0  0
    3.7004   -2.9427    1.3082 H   0  0  0  0  0  0  0  0  0  0  0  0
    4.9595   -4.1610    5.8643 H   0  0  0  0  0  0  0  0  0  0  0  0
    1.7312   -3.4539    6.3765 H   0  0  0  0  0  0  0  0  0  0  0  0
    0.3946   -2.6030    4.5558 H   0  0  0  0  0  0  0  0  0  0  0  0
    3.4837   -0.8211    4.7615 H   0  0  0  0  0  0  0  0  0  0  0  0
    4.6399   -0.7912    2.9336 H   0  0  0  0  0  0  0  0  0  0  0  0
    2.8722   -6.6044    7.0678 H   0  0  0  0  0  0  0  0  0  0  0  0
    1.7400   -5.4483    6.4747 H   0  0  0  0  0  0  0  0  0  0  0  0
    3.2480   -4.9368    7.2648 H   0  0  0  0  0  0  0  0  0  0  0  0
    5.2171   -6.6717    4.3097 H   0  0  0  0  0  0  0  0  0  0  0  0
    5.2932   -6.5490    6.0362 H   0  0  0  0  0  0  0  0  0  0  0  0
    4.9280   -8.7916    5.2347 H   0  0  0  0  0  0  0  0  0  0  0  0
    3.5989   -8.3632    6.2452 H   0  0  0  0  0  0  0  0  0  0  0  0
    3.7075   -8.5294    3.2474 H   0  0  0  0  0  0  0  0  0  0  0  0
    2.5110  -11.7715    2.9199 H   0  0  0  0  0  0  0  0  0  0  0  0
    2.8441  -10.2625    2.1153 H   0  0  0  0  0  0  0  0  0  0  0  0
    1.2113  -10.6680    2.6536 H   0  0  0  0  0  0  0  0  0  0  0  0
    3.2389  -12.0002    5.0202 H   0  0  0  0  0  0  0  0  0  0  0  0
    3.7883  -10.6856    6.0058 H   0  0  0  0  0  0  0  0  0  0  0  0
    4.5479  -10.9738    4.4336 H   0  0  0  0  0  0  0  0  0  0  0  0
    0.8350  -11.0958    5.1137 H   0  0  0  0  0  0  0  0  0  0  0  0
    1.5738  -10.0146    6.2470 H   0  0  0  0  0  0  0  0  0  0  0  0
   -0.2575   -9.2493    3.9312 H   0  0  0  0  0  0  0  0  0  0  0  0
   -0.5745   -9.1400    5.6293 H   0  0  0  0  0  0  0  0  0  0  0  0
    0.0425   -6.8902    4.8379 H   0  0  0  0  0  0  0  0  0  0  0  0
    1.2040   -7.5485    5.9585 H   0  0  0  0  0  0  0  0  0  0  0  0
    0.3889   -7.0894    2.3960 H   0  0  0  0  0  0  0  0  0  0  0  0
    1.0955   -8.6218    2.2348 H   0  0  0  0  0  0  0  0  0  0  0  0
    2.0088   -7.2508    1.7054 H   0  0  0  0  0  0  0  0  0  0  0  0
    3.2638   -6.0809    3.1191 H   0  0  0  0  0  0  0  0  0  0  0  0
    0.9763   -4.5754    4.3610 H   0  0  0  0  0  0  0  0  0  0  0  0
    0.9483   -5.1473    2.7911 H   0  0  0  0  0  0  0  0  0  0  0  0
  1  2  1  0
  1 40  1  0
  1 41  1  0
  1 42  1  0
  2  3  2  0
  2  4  1  0
  4  5  1  0
  5 22  1  0
  5  6  1  0
  5 43  1  1
  6  7  1  0
  6  8  1  0
  6 44  1  6
  7 45  1  0
  7 46  1  0
  7 47  1  0
  8  9  1  0
  8 10  1  0
  8 11  1  0
  9 48  1  0
  9 49  1  0
  9 50  1  0
 10 51  1  0
 10 52  1  0
 10 53  1  0
 11 12  1  0
 13 12  1  6
 12 54  1  0
 12 55  1  0
 13 22  1  0
 13 23  1  0
 13 14  1  0
 14 39  1  0
 14 15  1  0
 14 56  1  6
 15 16  1  0
 15 57  1  0
 15 58  1  0
 16 17  2  0
 16 18  1  0
 18 19  1  0
 19 20  1  0
 19 25  1  0
 19 59  1  1
 20 21  2  0
 20 23  1  0
 21 22  1  0
 21 60  1  0
 22 61  1  6
 23 24  1  0
 23 62  1  1
 24 63  1  0
 25 38  1  0
 25 26  1  1
 25 27  1  0
 26 64  1  0
 26 65  1  0
 26 66  1  0
 27 28  1  0
 27 67  1  0
 27 68  1  0
 28 29  1  0
 28 69  1  0
 28 70  1  0
 29 36  1  0
 29 30  1  0
 29 71  1  6
 30 31  1  0
 30 32  1  0
 30 33  1  0
 31 72  1  0
 31 73  1  0
 31 74  1  0
 32 75  1  0
 32 76  1  0
 32 77  1  0
 33 34  1  0
 33 78  1  0
 33 79  1  0
 34 35  1  0
 34 80  1  0
 34 81  1  0
 35 36  1  0
 35 82  1  0
 35 83  1  0
 36 37  1  6
 36 38  1  0
 37 84  1  0
 37 85  1  0
 37 86  1  0
 38 39  1  0
 38 87  1  6
 39 88  1  0
 39 89  1  0
M  END
>  <i_m_ct_stereo_status>  (146) 
1

>  <s_m_source_file>  (146) 
/var/tmp/pbs.5076255.sched01/tmp2pvlagj1/41_74nrqse.sdf

>  <i_m_source_file_index>  (146) 
18

>  <i_lp_mmshare_version>  (146) 
48012

>  <i_f3d_flags>  (146) 
2

>  <s_epik_input>  (146) 
W0NIMl0xT0MoW0NIM10pKFtDSDNdKVtDQEhdKFtDSDNdKVtDQEBIXShPQyg9TylbQ0gzXSlbQ0BIXTJbQ0hdPUMoW0NASF0zW09IXSlbQ0BASF0oT0MoPU8pW0NIMl1bQ0BIXTRbQ0BAXTEyMylbQ0BdNShbQ0gzXSlbQ0BIXShbQ0gyXTQpW0NAQF02KFtDSDNdKVtDQEBIXShbQ0gyXVtDSDJdNSlDKFtDSDNdKShbQ0gzXSlbQ0gyXVtDSDJdW0NIMl02

>  <s_epik_cmdline>  (146) 
J2VwaWtfcHl0aG9uJywgJy1waHQnLCAnMi4wJywgJy1waCcsICc3LjAnLCAnLXRuJywgJzgnLCAnLW1hJywgJzIwMCcsICctaW1hZScsICc8aW5maWxlLm1hZT4nLCAnLW9tYWUnLCAnPG91dGZpbGUubWFlPic=

>  <r_lp_tautomer_probability>  (146) 
1

>  <r_epik_Ionization_Penalty>  (146) 
1.03997e-06

>  <r_epik_Ionization_Penalty_Charging>  (146) 
0

>  <r_epik_Ionization_Penalty_Neutral>  (146) 
1.03997e-06

>  <r_epik_State_Penalty>  (146) 
-0

>  <r_epik_Charging_Adjusted_Penalty>  (146) 
0

>  <i_epik_Tot_Q>  (146) 
0

>  <i_epik_Tot_abs_Q>  (146) 
0

>  <s_epik_Chemistry_Notes>  (146) 
This compound has an ester and may undergo hydrolysis at high or low pH.

>  <s_lp_Force_Field>  (146) 
OPLS3e

>  <r_lp_Energy>  (146) 
152.619

>  <b_lp_Chiralities_Consistent>  (146) 
0

>  <s_lp_Variant>  (146) 
42:0-1

>  <s_i_glide_gridfile>  (146) 
pfpi4k_grid

>  <i_i_glide_lignum>  (146) 
18

>  <i_i_glide_rotatable_bonds>  (146) 
3

>  <r_i_docking_score>  (146) 
-2.19902

>  <r_i_glide_ligand_efficiency>  (146) 
-0.0563851

>  <r_i_glide_ligand_efficiency_sa>  (146) 
-0.191214

>  <r_i_glide_ligand_efficiency_ln>  (146) 
-0.471532

>  <r_i_glide_gscore>  (146) 
-2.19902

>  <r_i_glide_lipo>  (146) 
-0.0343422

>  <r_i_glide_hbond>  (146) 
-0.0712779

>  <r_i_glide_metal>  (146) 
-0

>  <r_i_glide_rewards>  (146) 
-0.028662

>  <r_i_glide_evdw>  (146) 
-29.9839

>  <r_i_glide_ecoul>  (146) 
-4.05754

>  <r_i_glide_erotb>  (146) 
0.0702311

>  <r_i_glide_esite>  (146) 
-0.0271398

>  <r_i_glide_emodel>  (146) 
-36.1983

>  <r_i_glide_energy>  (146) 
-34.0415

>  <r_i_glide_einternal>  (146) 
5.6898

>  <r_i_glide_intrahb_reward>  (146) 
-0

>  <i_i_glide_confnum>  (146) 
1

>  <i_i_glide_posenum>  (146) 
29

>  <r_i_glide_eff_state_penalty>  (146) 
0

>  <ligand_id>  (146) 
42

>  <original_smiles>  (146) 
CC(=O)OC1C(C)C(C)(C)OCC23C4CC(=O)OC(C(=CC12)C3O)C1(C)CCC2C(C)(C)CCCC2(C)C1C4

>  <smiles>  (146) 
[H]OC1([H])C2=C([H])C3([H])C([H])(OC(=O)C([H])([H])[H])C([H])(C([H])([H])[H])C(C([H])([H])[H])(C([H])([H])[H])OC([H])([H])C13C1([H])C([H])([H])C(=O)OC2([H])C2(C([H])([H])[H])C([H])([H])C([H])([H])C3([H])C(C([H])([H])[H])(C([H])([H])[H])C([H])([H])C([H])([H])C([H])([H])C3(C([H])([H])[H])C2([H])C1([H])[H]

$$$$
42:0:2
     RDKit          3D

 89 94  0  0  1  0  0  0  0  0999 V2000
    1.6644   -0.4710    8.9408 C   0  0  0  0  0  0  0  0  0  0  0  0
    2.3413   -0.1890    7.6056 C   0  0  0  0  0  0  0  0  0  0  0  0
    3.4311    0.3801    7.5503 O   0  0  0  0  0  0  0  0  0  0  0  0
    1.6135   -0.6254    6.5541 O   0  0  0  0  0  0  0  0  0  0  0  0
    2.0723   -0.4414    5.2111 C   0  0  2  0  0  0  0  0  0  0  0  0
    1.0797    0.4826    4.4363 C   0  0  1  0  0  0  0  0  0  0  0  0
    0.3142    1.4781    5.3466 C   0  0  0  0  0  0  0  0  0  0  0  0
    1.7663    1.2081    3.2377 C   0  0  0  0  0  0  0  0  0  0  0  0
    0.7446    1.6929    2.1840 C   0  0  0  0  0  0  0  0  0  0  0  0
    2.6169    2.4132    3.6868 C   0  0  0  0  0  0  0  0  0  0  0  0
    2.7219    0.3606    2.6022 O   0  0  0  0  0  0  0  0  0  0  0  0
    2.3091   -0.9204    2.1536 C   0  0  0  0  0  0  0  0  0  0  0  0
    2.7199   -2.0466    3.1363 C   0  0  2  0  0  0  0  0  0  0  0  0
    2.3266   -3.4914    2.5354 C   0  0  1  0  0  0  0  0  0  0  0  0
    3.2479   -4.0194    1.3938 C   0  0  0  0  0  0  0  0  0  0  0  0
    4.6316   -4.6917    1.6403 C   0  0  0  0  0  0  0  0  0  0  0  0
    5.2243   -5.1311    0.6603 O   0  0  0  0  0  0  0  0  0  0  0  0
    5.2371   -4.7157    2.8878 O   0  0  0  0  0  0  0  0  0  0  0  0
    4.6896   -4.5378    4.2095 C   0  0  1  0  0  0  0  0  0  0  0  0
    4.1897   -3.0922    4.5215 C   0  0  0  0  0  0  0  0  0  0  0  0
    3.1552   -2.7773    5.3245 C   0  0  0  0  0  0  0  0  0  0  0  0
    2.1699   -1.8681    4.5939 C   0  0  1  0  0  0  0  0  0  0  0  0
    4.2125   -2.0006    3.4860 C   0  0  1  0  0  0  0  0  0  0  0  0
    5.2309   -1.9940    2.5033 O   0  0  0  0  0  0  0  0  0  0  0  0
    3.7937   -5.7991    4.6005 C   0  0  2  0  0  0  0  0  0  0  0  0
    3.4491   -5.7190    6.1149 C   0  0  0  0  0  0  0  0  0  0  0  0
    4.6572   -7.0744    4.4038 C   0  0  0  0  0  0  0  0  0  0  0  0
    3.9186   -8.3948    4.6730 C   0  0  0  0  0  0  0  0  0  0  0  0
    2.6392   -8.6156    3.8245 C   0  0  1  0  0  0  0  0  0  0  0  0
    1.9363  -10.0073    4.1703 C   0  0  0  0  0  0  0  0  0  0  0  0
    1.2053  -10.6201    2.9431 C   0  0  0  0  0  0  0  0  0  0  0  0
    2.9544  -11.0988    4.6052 C   0  0  0  0  0  0  0  0  0  0  0  0
    0.9439   -9.8669    5.3536 C   0  0  0  0  0  0  0  0  0  0  0  0
    0.0162   -8.6512    5.2730 C   0  0  0  0  0  0  0  0  0  0  0  0
    0.8333   -7.3619    5.1271 C   0  0  0  0  0  0  0  0  0  0  0  0
    1.6934   -7.3375    3.8355 C   0  0  2  0  0  0  0  0  0  0  0  0
    0.7209   -7.4077    2.6166 C   0  0  0  0  0  0  0  0  0  0  0  0
    2.5398   -5.9949    3.6576 C   0  0  1  0  0  0  0  0  0  0  0  0
    1.7242   -4.6662    3.4313 C   0  0  0  0  0  0  0  0  0  0  0  0
    1.4721   -1.5379    9.0547 H   0  0  0  0  0  0  0  0  0  0  0  0
    0.7183    0.0657    9.0114 H   0  0  0  0  0  0  0  0  0  0  0  0
    2.2982   -0.1494    9.7676 H   0  0  0  0  0  0  0  0  0  0  0  0
    3.0547    0.0306    5.2163 H   0  0  0  0  0  0  0  0  0  0  0  0
    0.3075   -0.1671    4.0243 H   0  0  0  0  0  0  0  0  0  0  0  0
    0.9928    2.1080    5.9243 H   0  0  0  0  0  0  0  0  0  0  0  0
   -0.3282    0.9556    6.0557 H   0  0  0  0  0  0  0  0  0  0  0  0
   -0.3373    2.1365    4.7707 H   0  0  0  0  0  0  0  0  0  0  0  0
    0.1248    2.5046    2.5649 H   0  0  0  0  0  0  0  0  0  0  0  0
    0.0673    0.9061    1.8541 H   0  0  0  0  0  0  0  0  0  0  0  0
    1.2481    2.0797    1.2977 H   0  0  0  0  0  0  0  0  0  0  0  0
    2.0137    3.2161    4.1106 H   0  0  0  0  0  0  0  0  0  0  0  0
    3.1510    2.8418    2.8382 H   0  0  0  0  0  0  0  0  0  0  0  0
    3.3656    2.1274    4.4262 H   0  0  0  0  0  0  0  0  0  0  0  0
    1.2513   -0.9510    1.9050 H   0  0  0  0  0  0  0  0  0  0  0  0
    2.8284   -1.0754    1.2072 H   0  0  0  0  0  0  0  0  0  0  0  0
    1.4304   -3.2096    1.9901 H   0  0  0  0  0  0  0  0  0  0  0  0
    2.6740   -4.7481    0.8188 H   0  0  0  0  0  0  0  0  0  0  0  0
    3.4276   -3.2081    0.6874 H   0  0  0  0  0  0  0  0  0  0  0  0
    5.5735   -4.6110    4.8441 H   0  0  0  0  0  0  0  0  0  0  0  0
    2.7413   -3.3593    6.1237 H   0  0  0  0  0  0  0  0  0  0  0  0
    1.1668   -2.2830    4.6539 H   0  0  0  0  0  0  0  0  0  0  0  0
    4.4292   -1.0659    4.0096 H   0  0  0  0  0  0  0  0  0  0  0  0
    5.0845   -2.6984    1.8962 H   0  0  0  0  0  0  0  0  0  0  0  0
    3.4851   -6.6732    6.6313 H   0  0  0  0  0  0  0  0  0  0  0  0
    2.4420   -5.3415    6.2842 H   0  0  0  0  0  0  0  0  0  0  0  0
    4.1597   -5.0913    6.6570 H   0  0  0  0  0  0  0  0  0  0  0  0
    5.0273   -7.1285    3.3800 H   0  0  0  0  0  0  0  0  0  0  0  0
    5.5494   -7.0214    5.0282 H   0  0  0  0  0  0  0  0  0  0  0  0
    4.6418   -9.1745    4.4408 H   0  0  0  0  0  0  0  0  0  0  0  0
    3.6944   -8.5264    5.7272 H   0  0  0  0  0  0  0  0  0  0  0  0
    3.0194   -8.7115    2.8063 H   0  0  0  0  0  0  0  0  0  0  0  0
    1.2730  -11.7089    2.9144 H   0  0  0  0  0  0  0  0  0  0  0  0
    1.6241  -10.2585    2.0027 H   0  0  0  0  0  0  0  0  0  0  0  0
    0.1360  -10.4102    2.9410 H   0  0  0  0  0  0  0  0  0  0  0  0
    2.4616  -12.0578    4.7848 H   0  0  0  0  0  0  0  0  0  0  0  0
    3.4419  -10.8492    5.5495 H   0  0  0  0  0  0  0  0  0  0  0  0
    3.7271  -11.2623    3.8518 H   0  0  0  0  0  0  0  0  0  0  0  0
    0.3326  -10.7682    5.4288 H   0  0  0  0  0  0  0  0  0  0  0  0
    1.4933   -9.8182    6.2940 H   0  0  0  0  0  0  0  0  0  0  0  0
   -0.7111   -8.7654    4.4711 H   0  0  0  0  0  0  0  0  0  0  0  0
   -0.5707   -8.6131    6.1899 H   0  0  0  0  0  0  0  0  0  0  0  0
    0.1823   -6.4898    5.1792 H   0  0  0  0  0  0  0  0  0  0  0  0
    1.4657   -7.3275    6.0080 H   0  0  0  0  0  0  0  0  0  0  0  0
   -0.1300   -6.7410    2.7381 H   0  0  0  0  0  0  0  0  0  0  0  0
    0.2582   -8.3712    2.4700 H   0  0  0  0  0  0  0  0  0  0  0  0
    1.2179   -7.1707    1.6757 H   0  0  0  0  0  0  0  0  0  0  0  0
    2.9571   -6.2286    2.6885 H   0  0  0  0  0  0  0  0  0  0  0  0
    1.3312   -4.3455    4.3881 H   0  0  0  0  0  0  0  0  0  0  0  0
    0.8154   -4.9135    2.9005 H   0  0  0  0  0  0  0  0  0  0  0  0
  1  2  1  0
  1 40  1  0
  1 41  1  0
  1 42  1  0
  2  3  2  0
  2  4  1  0
  4  5  1  0
  5 22  1  0
  5  6  1  0
  5 43  1  1
  6  7  1  0
  6  8  1  0
  6 44  1  6
  7 45  1  0
  7 46  1  0
  7 47  1  0
  8  9  1  0
  8 10  1  0
  8 11  1  0
  9 48  1  0
  9 49  1  0
  9 50  1  0
 10 51  1  0
 10 52  1  0
 10 53  1  0
 11 12  1  0
 13 12  1  6
 12 54  1  0
 12 55  1  0
 13 22  1  0
 13 23  1  0
 13 14  1  0
 14 39  1  0
 14 15  1  0
 14 56  1  6
 15 16  1  0
 15 57  1  0
 15 58  1  0
 16 17  2  0
 16 18  1  0
 18 19  1  0
 19 20  1  0
 19 25  1  0
 19 59  1  1
 20 21  2  0
 20 23  1  0
 21 22  1  0
 21 60  1  0
 22 61  1  6
 23 24  1  0
 23 62  1  1
 24 63  1  0
 25 38  1  0
 25 26  1  1
 25 27  1  0
 26 64  1  0
 26 65  1  0
 26 66  1  0
 27 28  1  0
 27 67  1  0
 27 68  1  0
 28 29  1  0
 28 69  1  0
 28 70  1  0
 29 36  1  0
 29 30  1  0
 29 71  1  6
 30 31  1  0
 30 32  1  0
 30 33  1  0
 31 72  1  0
 31 73  1  0
 31 74  1  0
 32 75  1  0
 32 76  1  0
 32 77  1  0
 33 34  1  0
 33 78  1  0
 33 79  1  0
 34 35  1  0
 34 80  1  0
 34 81  1  0
 35 36  1  0
 35 82  1  0
 35 83  1  0
 36 37  1  6
 36 38  1  0
 37 84  1  0
 37 85  1  0
 37 86  1  0
 38 39  1  0
 38 87  1  6
 39 88  1  0
 39 89  1  0
M  END
>  <i_m_ct_stereo_status>  (147) 
1

>  <s_m_source_file>  (147) 
/var/tmp/pbs.5076255.sched01/tmp2pvlagj1/41_74nrqse.sdf

>  <i_m_source_file_index>  (147) 
18

>  <i_lp_mmshare_version>  (147) 
48012

>  <i_f3d_flags>  (147) 
2

>  <s_epik_input>  (147) 
W0NIMl0xT0MoW0NIM10pKFtDSDNdKVtDQEhdKFtDSDNdKVtDQEBIXShPQyg9TylbQ0gzXSlbQ0BIXTJbQ0hdPUMoW0NASF0zW09IXSlbQ0BASF0oT0MoPU8pW0NIMl1bQ0BIXTRbQ0BAXTEyMylbQ0BdNShbQ0gzXSlbQ0BIXShbQ0gyXTQpW0NAQF02KFtDSDNdKVtDQEBIXShbQ0gyXVtDSDJdNSlDKFtDSDNdKShbQ0gzXSlbQ0gyXVtDSDJdW0NIMl02

>  <s_epik_cmdline>  (147) 
J2VwaWtfcHl0aG9uJywgJy1waHQnLCAnMi4wJywgJy1waCcsICc3LjAnLCAnLXRuJywgJzgnLCAnLW1hJywgJzIwMCcsICctaW1hZScsICc8aW5maWxlLm1hZT4nLCAnLW9tYWUnLCAnPG91dGZpbGUubWFlPic=

>  <r_lp_tautomer_probability>  (147) 
1

>  <r_epik_Ionization_Penalty>  (147) 
1.03997e-06

>  <r_epik_Ionization_Penalty_Charging>  (147) 
0

>  <r_epik_Ionization_Penalty_Neutral>  (147) 
1.03997e-06

>  <r_epik_State_Penalty>  (147) 
-0

>  <r_epik_Charging_Adjusted_Penalty>  (147) 
0

>  <i_epik_Tot_Q>  (147) 
0

>  <i_epik_Tot_abs_Q>  (147) 
0

>  <s_epik_Chemistry_Notes>  (147) 
This compound has an ester and may undergo hydrolysis at high or low pH.

>  <s_lp_Force_Field>  (147) 
OPLS3e

>  <r_lp_Energy>  (147) 
152.619

>  <b_lp_Chiralities_Consistent>  (147) 
0

>  <s_lp_Variant>  (147) 
42:0-1

>  <s_i_glide_gridfile>  (147) 
pfpi4k_grid

>  <i_i_glide_lignum>  (147) 
18

>  <i_i_glide_rotatable_bonds>  (147) 
3

>  <r_i_docking_score>  (147) 
-1.88847

>  <r_i_glide_ligand_efficiency>  (147) 
-0.0484222

>  <r_i_glide_ligand_efficiency_sa>  (147) 
-0.16421

>  <r_i_glide_ligand_efficiency_ln>  (147) 
-0.404941

>  <r_i_glide_gscore>  (147) 
-1.88847

>  <r_i_glide_lipo>  (147) 
-0.171179

>  <r_i_glide_hbond>  (147) 
0

>  <r_i_glide_metal>  (147) 
-0

>  <r_i_glide_rewards>  (147) 
-0.0328836

>  <r_i_glide_evdw>  (147) 
-30.3937

>  <r_i_glide_ecoul>  (147) 
-1.56632

>  <r_i_glide_erotb>  (147) 
0.0702311

>  <r_i_glide_esite>  (147) 
0

>  <r_i_glide_emodel>  (147) 
-36.3244

>  <r_i_glide_energy>  (147) 
-31.9601

>  <r_i_glide_einternal>  (147) 
0.0168501

>  <r_i_glide_intrahb_reward>  (147) 
-0

>  <i_i_glide_confnum>  (147) 
1

>  <i_i_glide_posenum>  (147) 
13

>  <r_i_glide_eff_state_penalty>  (147) 
0

>  <ligand_id>  (147) 
42

>  <original_smiles>  (147) 
CC(=O)OC1C(C)C(C)(C)OCC23C4CC(=O)OC(C(=CC12)C3O)C1(C)CCC2C(C)(C)CCCC2(C)C1C4

>  <smiles>  (147) 
[H]OC1([H])C2=C([H])C3([H])C([H])(OC(=O)C([H])([H])[H])C([H])(C([H])([H])[H])C(C([H])([H])[H])(C([H])([H])[H])OC([H])([H])C13C1([H])C([H])([H])C(=O)OC2([H])C2(C([H])([H])[H])C([H])([H])C([H])([H])C3([H])C(C([H])([H])[H])(C([H])([H])[H])C([H])([H])C([H])([H])C([H])([H])C3(C([H])([H])[H])C2([H])C1([H])[H]

$$$$
43:0:0
     RDKit          3D

 40 44  0  0  1  0  0  0  0  0999 V2000
   -0.2818  -10.1043    2.8302 C   0  0  0  0  0  0  0  0  0  0  0  0
    0.1007   -8.7070    2.4855 C   0  0  0  0  0  0  0  0  0  0  0  0
   -0.7150   -7.6612    2.3167 N   0  0  0  0  0  0  0  0  0  0  0  0
    0.1022   -6.6035    1.9940 N   0  0  0  0  0  0  0  0  0  0  0  0
    1.3544   -7.0790    2.0002 C   0  0  0  0  0  0  0  0  0  0  0  0
    2.5982   -6.3529    1.7298 C   0  0  0  0  0  0  0  0  0  0  0  0
    3.7733   -7.0583    1.3994 C   0  0  0  0  0  0  0  0  0  0  0  0
    4.9689   -6.3627    1.1431 C   0  0  0  0  0  0  0  0  0  0  0  0
    5.0101   -4.9561    1.2200 C   0  0  0  0  0  0  0  0  0  0  0  0
    3.8376   -4.2227    1.5616 C   0  0  0  0  0  0  0  0  0  0  0  0
    2.6412   -4.9413    1.8085 C   0  0  0  0  0  0  0  0  0  0  0  0
    3.8495   -2.6749    1.6006 C   0  0  1  0  0  0  0  0  0  0  0  0
    3.0394   -2.1248    2.7929 C   0  0  0  0  0  0  0  0  0  0  0  0
    5.3041   -2.1386    1.7136 C   0  0  0  0  0  0  0  0  0  0  0  0
    6.1686   -2.7625    0.6061 C   0  0  1  0  0  0  0  0  0  0  0  0
    6.3348   -4.2528    0.9424 C   0  0  0  0  0  0  0  0  0  0  0  0
    5.5179   -2.5636   -0.7340 C   0  0  0  0  0  0  0  0  0  0  0  0
    6.1085   -2.6318   -1.9201 N   0  0  0  0  0  0  0  0  0  0  0  0
    5.0185   -2.4376   -2.7266 C   0  0  0  0  0  0  0  0  0  0  0  0
    3.8595   -2.2153   -2.1131 N   0  0  0  0  0  0  0  0  0  0  0  0
    4.2052   -2.3265   -0.8139 N   0  0  0  0  0  0  0  0  0  0  0  0
    3.2612   -2.1354    0.2692 C   0  0  0  0  0  0  0  0  0  0  0  0
    1.4128   -8.4048    2.3047 O   0  0  0  0  0  0  0  0  0  0  0  0
   -1.3676  -10.1957    2.8925 H   0  0  0  0  0  0  0  0  0  0  0  0
    0.1473  -10.3928    3.7915 H   0  0  0  0  0  0  0  0  0  0  0  0
    0.0774  -10.7953    2.0662 H   0  0  0  0  0  0  0  0  0  0  0  0
    3.7672   -8.1343    1.3293 H   0  0  0  0  0  0  0  0  0  0  0  0
    5.8622   -6.9143    0.8849 H   0  0  0  0  0  0  0  0  0  0  0  0
    1.7409   -4.4039    2.0593 H   0  0  0  0  0  0  0  0  0  0  0  0
    3.1515   -1.0422    2.8780 H   0  0  0  0  0  0  0  0  0  0  0  0
    3.3779   -2.5638    3.7322 H   0  0  0  0  0  0  0  0  0  0  0  0
    1.9706   -2.3186    2.6930 H   0  0  0  0  0  0  0  0  0  0  0  0
    5.3100   -1.0514    1.6158 H   0  0  0  0  0  0  0  0  0  0  0  0
    5.7276   -2.3593    2.6937 H   0  0  0  0  0  0  0  0  0  0  0  0
    7.1461   -2.2815    0.5765 H   0  0  0  0  0  0  0  0  0  0  0  0
    6.9539   -4.3543    1.8345 H   0  0  0  0  0  0  0  0  0  0  0  0
    6.8720   -4.7598    0.1385 H   0  0  0  0  0  0  0  0  0  0  0  0
    5.0813   -2.4253   -3.8025 H   0  0  0  0  0  0  0  0  0  0  0  0
    2.3150   -2.6130    0.0208 H   0  0  0  0  0  0  0  0  0  0  0  0
    3.0688   -1.0641    0.3413 H   0  0  0  0  0  0  0  0  0  0  0  0
  1  2  1  0
  1 24  1  0
  1 25  1  0
  1 26  1  0
  2 23  1  0
  2  3  2  0
  3  4  1  0
  4  5  2  0
  5  6  1  0
  5 23  1  0
  6 11  1  0
  6  7  2  0
  7  8  1  0
  7 27  1  0
  8  9  2  0
  8 28  1  0
  9 16  1  0
  9 10  1  0
 10 11  2  0
 10 12  1  0
 11 29  1  0
 12 22  1  0
 12 13  1  1
 12 14  1  0
 13 30  1  0
 13 31  1  0
 13 32  1  0
 14 15  1  0
 14 33  1  0
 14 34  1  0
 15 16  1  0
 15 17  1  0
 15 35  1  6
 16 36  1  0
 16 37  1  0
 17 21  1  0
 17 18  2  0
 18 19  1  0
 19 20  2  0
 19 38  1  0
 20 21  1  0
 21 22  1  0
 22 39  1  0
 22 40  1  0
M  END
>  <i_m_ct_stereo_status>  (148) 
1

>  <s_m_source_file>  (148) 
/var/tmp/pbs.5076255.sched01/tmp2pvlagj1/41_74nrqse.sdf

>  <i_m_source_file_index>  (148) 
19

>  <i_lp_mmshare_version>  (148) 
48012

>  <i_f3d_flags>  (148) 
0

>  <s_epik_input>  (148) 
W0NIM11jMW5uYyhvMSktYyhbY0hdMilbY0hdW2NIXWMoYzJbQ0BAXTM0W0NIM10pW0NIMl1bQ0BIXShbQ0gyXTMpYzVuKFtDSDJdNCluW2NIXW41

>  <s_epik_cmdline>  (148) 
J2VwaWtfcHl0aG9uJywgJy1waHQnLCAnMi4wJywgJy1waCcsICc3LjAnLCAnLXRuJywgJzgnLCAnLW1hJywgJzIwMCcsICctaW1hZScsICc8aW5maWxlLm1hZT4nLCAnLW9tYWUnLCAnPG91dGZpbGUubWFlPic=

>  <r_lp_tautomer_probability>  (148) 
1

>  <r_epik_Ionization_Penalty>  (148) 
0.0033413

>  <r_epik_Ionization_Penalty_Charging>  (148) 
0

>  <r_epik_Ionization_Penalty_Neutral>  (148) 
0.0033413

>  <r_epik_State_Penalty>  (148) 
0.00236313

>  <r_epik_Charging_Adjusted_Penalty>  (148) 
0.00236313

>  <i_epik_Tot_Q>  (148) 
0

>  <i_epik_Tot_abs_Q>  (148) 
0

>  <s_lp_Force_Field>  (148) 
OPLS3e

>  <r_lp_Energy>  (148) 
32.0123

>  <b_lp_Chiralities_Consistent>  (148) 
1

>  <s_lp_Variant>  (148) 
43:0-1

>  <s_i_glide_gridfile>  (148) 
pfpi4k_grid

>  <i_i_glide_lignum>  (148) 
19

>  <i_i_glide_rotatable_bonds>  (148) 
1

>  <r_i_docking_score>  (148) 
-3.87653

>  <r_i_glide_ligand_efficiency>  (148) 
-0.168545

>  <r_i_glide_ligand_efficiency_sa>  (148) 
-0.479318

>  <r_i_glide_ligand_efficiency_ln>  (148) 
-0.937379

>  <r_i_glide_gscore>  (148) 
-3.87653

>  <r_i_glide_lipo>  (148) 
-0.469686

>  <r_i_glide_hbond>  (148) 
0

>  <r_i_glide_metal>  (148) 
-0

>  <r_i_glide_rewards>  (148) 
-1.52354

>  <r_i_glide_evdw>  (148) 
-27.8317

>  <r_i_glide_ecoul>  (148) 
-3.18274

>  <r_i_glide_erotb>  (148) 
0.195689

>  <r_i_glide_esite>  (148) 
-0.209995

>  <r_i_glide_emodel>  (148) 
-39.063

>  <r_i_glide_energy>  (148) 
-31.0144

>  <r_i_glide_einternal>  (148) 
0.307823

>  <r_i_glide_intrahb_reward>  (148) 
-0

>  <i_i_glide_confnum>  (148) 
2

>  <i_i_glide_posenum>  (148) 
30

>  <r_i_glide_eff_state_penalty>  (148) 
0

>  <ligand_id>  (148) 
43

>  <original_smiles>  (148) 
Cc1nnc(-c2ccc3c(c2)C2(C)CC(C3)c3ncnn3C2)o1

>  <smiles>  (148) 
[H]c1nc2n(n1)C([H])([H])C1(C([H])([H])[H])c3c([H])c(-c4nnc(C([H])([H])[H])o4)c([H])c([H])c3C([H])([H])C2([H])C1([H])[H]

$$$$
43:0:1
     RDKit          3D

 40 44  0  0  1  0  0  0  0  0999 V2000
    3.0459    0.2719   -4.6258 C   0  0  0  0  0  0  0  0  0  0  0  0
    3.4710   -0.9201   -3.8376 C   0  0  0  0  0  0  0  0  0  0  0  0
    3.8160   -2.1146   -4.3119 N   0  0  0  0  0  0  0  0  0  0  0  0
    4.1280   -2.8862   -3.2223 N   0  0  0  0  0  0  0  0  0  0  0  0
    3.9504   -2.0993   -2.1512 C   0  0  0  0  0  0  0  0  0  0  0  0
    4.1520   -2.4296   -0.7387 C   0  0  0  0  0  0  0  0  0  0  0  0
    4.2261   -1.4045    0.2319 C   0  0  0  0  0  0  0  0  0  0  0  0
    4.4149   -1.7199    1.5897 C   0  0  0  0  0  0  0  0  0  0  0  0
    4.5281   -3.0648    1.9985 C   0  0  0  0  0  0  0  0  0  0  0  0
    4.4540   -4.1166    1.0409 C   0  0  0  0  0  0  0  0  0  0  0  0
    4.2604   -3.7807   -0.3223 C   0  0  0  0  0  0  0  0  0  0  0  0
    4.5193   -5.5997    1.4829 C   0  0  1  0  0  0  0  0  0  0  0  0
    5.3646   -6.4446    0.5122 C   0  0  0  0  0  0  0  0  0  0  0  0
    5.1362   -5.7263    2.9010 C   0  0  0  0  0  0  0  0  0  0  0  0
    4.3856   -4.7967    3.8701 C   0  0  1  0  0  0  0  0  0  0  0  0
    4.7359   -3.3537    3.4834 C   0  0  0  0  0  0  0  0  0  0  0  0
    2.9064   -5.0451    3.7924 C   0  0  0  0  0  0  0  0  0  0  0  0
    1.9999   -4.7060    4.7012 N   0  0  0  0  0  0  0  0  0  0  0  0
    0.8705   -5.1619    4.0760 C   0  0  0  0  0  0  0  0  0  0  0  0
    1.0422   -5.7250    2.8775 N   0  0  0  0  0  0  0  0  0  0  0  0
    2.3803   -5.6334    2.7154 N   0  0  0  0  0  0  0  0  0  0  0  0
    3.0756   -6.1668    1.5560 C   0  0  0  0  0  0  0  0  0  0  0  0
    3.5689   -0.8375   -2.4879 O   0  0  0  0  0  0  0  0  0  0  0  0
    3.0118    0.0360   -5.6911 H   0  0  0  0  0  0  0  0  0  0  0  0
    3.7443    1.0941   -4.4668 H   0  0  0  0  0  0  0  0  0  0  0  0
    2.0484    0.5874   -4.3187 H   0  0  0  0  0  0  0  0  0  0  0  0
    4.1326   -0.3674   -0.0569 H   0  0  0  0  0  0  0  0  0  0  0  0
    4.4665   -0.9234    2.3212 H   0  0  0  0  0  0  0  0  0  0  0  0
    4.1762   -4.5603   -1.0672 H   0  0  0  0  0  0  0  0  0  0  0  0
    5.5023   -7.4592    0.8907 H   0  0  0  0  0  0  0  0  0  0  0  0
    6.3551   -6.0076    0.3752 H   0  0  0  0  0  0  0  0  0  0  0  0
    4.8940   -6.5384   -0.4668 H   0  0  0  0  0  0  0  0  0  0  0  0
    5.0653   -6.7566    3.2518 H   0  0  0  0  0  0  0  0  0  0  0  0
    6.1994   -5.4786    2.8899 H   0  0  0  0  0  0  0  0  0  0  0  0
    4.6999   -4.9897    4.8936 H   0  0  0  0  0  0  0  0  0  0  0  0
    5.7844   -3.1608    3.7116 H   0  0  0  0  0  0  0  0  0  0  0  0
    4.1620   -2.6524    4.0918 H   0  0  0  0  0  0  0  0  0  0  0  0
   -0.1197   -5.0589    4.5021 H   0  0  0  0  0  0  0  0  0  0  0  0
    2.5072   -5.9575    0.6513 H   0  0  0  0  0  0  0  0  0  0  0  0
    3.1013   -7.2492    1.6701 H   0  0  0  0  0  0  0  0  0  0  0  0
  1  2  1  0
  1 24  1  0
  1 25  1  0
  1 26  1  0
  2 23  1  0
  2  3  2  0
  3  4  1  0
  4  5  2  0
  5  6  1  0
  5 23  1  0
  6 11  1  0
  6  7  2  0
  7  8  1  0
  7 27  1  0
  8  9  2  0
  8 28  1  0
  9 16  1  0
  9 10  1  0
 10 11  2  0
 10 12  1  0
 11 29  1  0
 12 22  1  0
 12 13  1  6
 12 14  1  0
 13 30  1  0
 13 31  1  0
 13 32  1  0
 14 15  1  0
 14 33  1  0
 14 34  1  0
 15 16  1  0
 15 17  1  0
 15 35  1  1
 16 36  1  0
 16 37  1  0
 17 21  1  0
 17 18  2  0
 18 19  1  0
 19 20  2  0
 19 38  1  0
 20 21  1  0
 21 22  1  0
 22 39  1  0
 22 40  1  0
M  END
>  <i_m_ct_stereo_status>  (149) 
1

>  <s_m_source_file>  (149) 
/var/tmp/pbs.5076255.sched01/tmp2pvlagj1/41_74nrqse.sdf

>  <i_m_source_file_index>  (149) 
19

>  <i_lp_mmshare_version>  (149) 
48012

>  <i_f3d_flags>  (149) 
0

>  <s_epik_input>  (149) 
W0NIM11jMW5uYyhvMSktYyhbY0hdMilbY0hdW2NIXWMoYzJbQ0BAXTM0W0NIM10pW0NIMl1bQ0BIXShbQ0gyXTMpYzVuKFtDSDJdNCluW2NIXW41

>  <s_epik_cmdline>  (149) 
J2VwaWtfcHl0aG9uJywgJy1waHQnLCAnMi4wJywgJy1waCcsICc3LjAnLCAnLXRuJywgJzgnLCAnLW1hJywgJzIwMCcsICctaW1hZScsICc8aW5maWxlLm1hZT4nLCAnLW9tYWUnLCAnPG91dGZpbGUubWFlPic=

>  <r_lp_tautomer_probability>  (149) 
1

>  <r_epik_Ionization_Penalty>  (149) 
0.0033413

>  <r_epik_Ionization_Penalty_Charging>  (149) 
0

>  <r_epik_Ionization_Penalty_Neutral>  (149) 
0.0033413

>  <r_epik_State_Penalty>  (149) 
0.00236313

>  <r_epik_Charging_Adjusted_Penalty>  (149) 
0.00236313

>  <i_epik_Tot_Q>  (149) 
0

>  <i_epik_Tot_abs_Q>  (149) 
0

>  <s_lp_Force_Field>  (149) 
OPLS3e

>  <r_lp_Energy>  (149) 
32.0123

>  <b_lp_Chiralities_Consistent>  (149) 
1

>  <s_lp_Variant>  (149) 
43:0-1

>  <s_i_glide_gridfile>  (149) 
pfpi4k_grid

>  <i_i_glide_lignum>  (149) 
19

>  <i_i_glide_rotatable_bonds>  (149) 
1

>  <r_i_docking_score>  (149) 
-3.47446

>  <r_i_glide_ligand_efficiency>  (149) 
-0.151064

>  <r_i_glide_ligand_efficiency_sa>  (149) 
-0.429605

>  <r_i_glide_ligand_efficiency_ln>  (149) 
-0.840156

>  <r_i_glide_gscore>  (149) 
-3.47446

>  <r_i_glide_lipo>  (149) 
-0.478751

>  <r_i_glide_hbond>  (149) 
0

>  <r_i_glide_metal>  (149) 
-0

>  <r_i_glide_rewards>  (149) 
-1.31352

>  <r_i_glide_evdw>  (149) 
-26.3797

>  <r_i_glide_ecoul>  (149) 
-3.25592

>  <r_i_glide_erotb>  (149) 
0.195689

>  <r_i_glide_esite>  (149) 
-0.0705025

>  <r_i_glide_emodel>  (149) 
-36.8975

>  <r_i_glide_energy>  (149) 
-29.6356

>  <r_i_glide_einternal>  (149) 
0.163473

>  <r_i_glide_intrahb_reward>  (149) 
-0

>  <i_i_glide_confnum>  (149) 
3

>  <i_i_glide_posenum>  (149) 
16

>  <r_i_glide_eff_state_penalty>  (149) 
0

>  <ligand_id>  (149) 
43

>  <original_smiles>  (149) 
Cc1nnc(-c2ccc3c(c2)C2(C)CC(C3)c3ncnn3C2)o1

>  <smiles>  (149) 
[H]c1nc2n(n1)C([H])([H])C1(C([H])([H])[H])c3c([H])c(-c4nnc(C([H])([H])[H])o4)c([H])c([H])c3C([H])([H])C2([H])C1([H])[H]

$$$$
43:0:2
     RDKit          3D

 40 44  0  0  1  0  0  0  0  0999 V2000
    3.2593    0.3264   -4.5792 C   0  0  0  0  0  0  0  0  0  0  0  0
    3.6524   -0.8689   -3.7823 C   0  0  0  0  0  0  0  0  0  0  0  0
    4.2011   -1.9931   -4.2384 N   0  0  0  0  0  0  0  0  0  0  0  0
    4.3872   -2.7977   -3.1369 N   0  0  0  0  0  0  0  0  0  0  0  0
    3.9298   -2.1030   -2.0861 C   0  0  0  0  0  0  0  0  0  0  0  0
    3.8902   -2.5016   -0.6732 C   0  0  0  0  0  0  0  0  0  0  0  0
    3.4200   -1.6054    0.3105 C   0  0  0  0  0  0  0  0  0  0  0  0
    3.3737   -1.9858    1.6624 C   0  0  0  0  0  0  0  0  0  0  0  0
    3.7994   -3.2682    2.0558 C   0  0  0  0  0  0  0  0  0  0  0  0
    4.2813   -4.1916    1.0842 C   0  0  0  0  0  0  0  0  0  0  0  0
    4.3108   -3.7913   -0.2758 C   0  0  0  0  0  0  0  0  0  0  0  0
    4.6988   -5.6246    1.4915 C   0  0  1  0  0  0  0  0  0  0  0  0
    5.9682   -6.0787    0.7490 C   0  0  0  0  0  0  0  0  0  0  0  0
    4.9764   -5.7053    3.0166 C   0  0  0  0  0  0  0  0  0  0  0  0
    3.7697   -5.1444    3.7887 C   0  0  1  0  0  0  0  0  0  0  0  0
    3.7351   -3.6300    3.5364 C   0  0  0  0  0  0  0  0  0  0  0  0
    2.5017   -5.8110    3.3308 C   0  0  0  0  0  0  0  0  0  0  0  0
    1.3457   -5.8496    3.9827 N   0  0  0  0  0  0  0  0  0  0  0  0
    0.6000   -6.5608    3.0839 C   0  0  0  0  0  0  0  0  0  0  0  0
    1.2022   -6.8899    1.9425 N   0  0  0  0  0  0  0  0  0  0  0  0
    2.4484   -6.4067    2.1348 N   0  0  0  0  0  0  0  0  0  0  0  0
    3.5266   -6.5958    1.1823 C   0  0  0  0  0  0  0  0  0  0  0  0
    3.4763   -0.8671   -2.4379 O   0  0  0  0  0  0  0  0  0  0  0  0
    3.4521    0.1573   -5.6398 H   0  0  0  0  0  0  0  0  0  0  0  0
    3.8264    1.1989   -4.2546 H   0  0  0  0  0  0  0  0  0  0  0  0
    2.1972    0.5323   -4.4485 H   0  0  0  0  0  0  0  0  0  0  0  0
    3.0682   -0.6240    0.0393 H   0  0  0  0  0  0  0  0  0  0  0  0
    3.0011   -1.2871    2.3998 H   0  0  0  0  0  0  0  0  0  0  0  0
    4.6441   -4.4841   -1.0342 H   0  0  0  0  0  0  0  0  0  0  0  0
    6.3229   -7.0412    1.1195 H   0  0  0  0  0  0  0  0  0  0  0  0
    6.7785   -5.3597    0.8711 H   0  0  0  0  0  0  0  0  0  0  0  0
    5.7858   -6.2016   -0.3166 H   0  0  0  0  0  0  0  0  0  0  0  0
    5.1522   -6.7411    3.3097 H   0  0  0  0  0  0  0  0  0  0  0  0
    5.8824   -5.1559    3.2772 H   0  0  0  0  0  0  0  0  0  0  0  0
    3.8844   -5.3378    4.8540 H   0  0  0  0  0  0  0  0  0  0  0  0
    4.5904   -3.1616    4.0247 H   0  0  0  0  0  0  0  0  0  0  0  0
    2.8447   -3.1956    3.9960 H   0  0  0  0  0  0  0  0  0  0  0  0
   -0.4368   -6.8062    3.2556 H   0  0  0  0  0  0  0  0  0  0  0  0
    3.1514   -6.4628    0.1696 H   0  0  0  0  0  0  0  0  0  0  0  0
    3.8596   -7.6306    1.2703 H   0  0  0  0  0  0  0  0  0  0  0  0
  1  2  1  0
  1 24  1  0
  1 25  1  0
  1 26  1  0
  2 23  1  0
  2  3  2  0
  3  4  1  0
  4  5  2  0
  5  6  1  0
  5 23  1  0
  6 11  1  0
  6  7  2  0
  7  8  1  0
  7 27  1  0
  8  9  2  0
  8 28  1  0
  9 16  1  0
  9 10  1  0
 10 11  2  0
 10 12  1  0
 11 29  1  0
 12 22  1  0
 12 13  1  6
 12 14  1  0
 13 30  1  0
 13 31  1  0
 13 32  1  0
 14 15  1  0
 14 33  1  0
 14 34  1  0
 15 16  1  0
 15 17  1  0
 15 35  1  1
 16 36  1  0
 16 37  1  0
 17 21  1  0
 17 18  2  0
 18 19  1  0
 19 20  2  0
 19 38  1  0
 20 21  1  0
 21 22  1  0
 22 39  1  0
 22 40  1  0
M  END
>  <i_m_ct_stereo_status>  (150) 
1

>  <s_m_source_file>  (150) 
/var/tmp/pbs.5076255.sched01/tmp2pvlagj1/41_74nrqse.sdf

>  <i_m_source_file_index>  (150) 
19

>  <i_lp_mmshare_version>  (150) 
48012

>  <i_f3d_flags>  (150) 
0

>  <s_epik_input>  (150) 
W0NIM11jMW5uYyhvMSktYyhbY0hdMilbY0hdW2NIXWMoYzJbQ0BAXTM0W0NIM10pW0NIMl1bQ0BIXShbQ0gyXTMpYzVuKFtDSDJdNCluW2NIXW41

>  <s_epik_cmdline>  (150) 
J2VwaWtfcHl0aG9uJywgJy1waHQnLCAnMi4wJywgJy1waCcsICc3LjAnLCAnLXRuJywgJzgnLCAnLW1hJywgJzIwMCcsICctaW1hZScsICc8aW5maWxlLm1hZT4nLCAnLW9tYWUnLCAnPG91dGZpbGUubWFlPic=

>  <r_lp_tautomer_probability>  (150) 
1

>  <r_epik_Ionization_Penalty>  (150) 
0.0033413

>  <r_epik_Ionization_Penalty_Charging>  (150) 
0

>  <r_epik_Ionization_Penalty_Neutral>  (150) 
0.0033413

>  <r_epik_State_Penalty>  (150) 
0.00236313

>  <r_epik_Charging_Adjusted_Penalty>  (150) 
0.00236313

>  <i_epik_Tot_Q>  (150) 
0

>  <i_epik_Tot_abs_Q>  (150) 
0

>  <s_lp_Force_Field>  (150) 
OPLS3e

>  <r_lp_Energy>  (150) 
32.0123

>  <b_lp_Chiralities_Consistent>  (150) 
1

>  <s_lp_Variant>  (150) 
43:0-1

>  <s_i_glide_gridfile>  (150) 
pfpi4k_grid

>  <i_i_glide_lignum>  (150) 
19

>  <i_i_glide_rotatable_bonds>  (150) 
1

>  <r_i_docking_score>  (150) 
-3.28916

>  <r_i_glide_ligand_efficiency>  (150) 
-0.143007

>  <r_i_glide_ligand_efficiency_sa>  (150) 
-0.406693

>  <r_i_glide_ligand_efficiency_ln>  (150) 
-0.79535

>  <r_i_glide_gscore>  (150) 
-3.28916

>  <r_i_glide_lipo>  (150) 
-0.428171

>  <r_i_glide_hbond>  (150) 
0

>  <r_i_glide_metal>  (150) 
-0

>  <r_i_glide_rewards>  (150) 
-1.31352

>  <r_i_glide_evdw>  (150) 
-26.1455

>  <r_i_glide_ecoul>  (150) 
-2.23986

>  <r_i_glide_erotb>  (150) 
0.195689

>  <r_i_glide_esite>  (150) 
-0.0999045

>  <r_i_glide_emodel>  (150) 
-35.3466

>  <r_i_glide_energy>  (150) 
-28.3854

>  <r_i_glide_einternal>  (150) 
0.00335408

>  <r_i_glide_intrahb_reward>  (150) 
-0

>  <i_i_glide_confnum>  (150) 
1

>  <i_i_glide_posenum>  (150) 
9

>  <r_i_glide_eff_state_penalty>  (150) 
0

>  <ligand_id>  (150) 
43

>  <original_smiles>  (150) 
Cc1nnc(-c2ccc3c(c2)C2(C)CC(C3)c3ncnn3C2)o1

>  <smiles>  (150) 
[H]c1nc2n(n1)C([H])([H])C1(C([H])([H])[H])c3c([H])c(-c4nnc(C([H])([H])[H])o4)c([H])c([H])c3C([H])([H])C2([H])C1([H])[H]

$$$$
44:0:0
     RDKit          3D

 47 50  0  0  1  0  0  0  0  0999 V2000
   -8.9441   -9.2138  -10.7257 C   0  0  0  0  0  0  0  0  0  0  0  0
   -9.3064   -9.6054   -9.2829 C   0  0  1  0  0  0  0  0  0  0  0  0
   -9.7614  -11.0872   -9.3608 C   0  0  0  0  0  0  0  0  0  0  0  0
   -9.9937  -11.7420   -7.9969 C   0  0  0  0  0  0  0  0  0  0  0  0
   -8.7110  -11.6198   -7.1865 C   0  0  0  0  0  0  0  0  0  0  0  0
   -8.1113  -12.6118   -6.7494 O   0  0  0  0  0  0  0  0  0  0  0  0
   -8.1662  -10.2081   -6.9956 C   0  0  0  0  0  0  0  0  0  0  0  0
   -8.0300   -9.4571   -8.3576 C   0  0  2  0  0  0  0  0  0  0  0  0
   -7.6490   -7.9473   -8.2183 C   0  0  2  0  0  0  0  0  0  0  0  0
   -6.6133   -7.5016   -7.2042 C   0  0  0  0  0  0  0  0  0  0  0  0
   -6.9939   -6.3467   -6.6455 C   0  0  0  0  0  0  0  0  0  0  0  0
   -6.1778   -5.5210   -5.6556 C   0  0  0  0  0  0  0  0  0  0  0  0
   -7.0148   -4.7755   -4.6451 C   0  0  0  0  0  0  0  0  0  0  0  0
   -6.6199   -4.6679   -3.4812 O   0  0  0  0  0  0  0  0  0  0  0  0
   -8.2840   -4.0952   -5.1825 C   0  0  0  0  0  0  0  0  0  0  0  0
   -9.1173   -5.1048   -5.9850 C   0  0  0  0  0  0  0  0  0  0  0  0
   -8.3140   -5.8056   -7.1419 C   0  0  1  0  0  0  0  0  0  0  0  0
   -8.2200   -4.7932   -8.2816 C   0  0  0  0  0  0  0  0  0  0  0  0
   -8.8484   -7.1679   -7.6791 C   0  0  1  0  0  0  0  0  0  0  0  0
  -10.0701   -7.2238   -8.6065 C   0  0  0  0  0  0  0  0  0  0  0  0
  -10.4750   -8.6968   -8.8065 C   0  0  0  0  0  0  0  0  0  0  0  0
   -9.7917   -9.3771  -11.3882 H   0  0  0  0  0  0  0  0  0  0  0  0
   -8.1220   -9.8161  -11.1200 H   0  0  0  0  0  0  0  0  0  0  0  0
   -8.6569   -8.1682  -10.8261 H   0  0  0  0  0  0  0  0  0  0  0  0
  -10.6544  -11.1828   -9.9716 H   0  0  0  0  0  0  0  0  0  0  0  0
   -8.9912  -11.6694   -9.8697 H   0  0  0  0  0  0  0  0  0  0  0  0
  -10.8271  -11.2666   -7.4763 H   0  0  0  0  0  0  0  0  0  0  0  0
  -10.2579  -12.7929   -8.1108 H   0  0  0  0  0  0  0  0  0  0  0  0
   -8.8521   -9.7109   -6.3152 H   0  0  0  0  0  0  0  0  0  0  0  0
   -7.2033  -10.2664   -6.4888 H   0  0  0  0  0  0  0  0  0  0  0  0
   -7.1923   -9.9532   -8.8618 H   0  0  0  0  0  0  0  0  0  0  0  0
   -7.3264   -7.5642   -9.1893 H   0  0  0  0  0  0  0  0  0  0  0  0
   -5.7183   -8.0448   -7.0114 H   0  0  0  0  0  0  0  0  0  0  0  0
   -5.3724   -6.0831   -5.2036 H   0  0  0  0  0  0  0  0  0  0  0  0
   -5.7771   -4.6770   -6.2027 H   0  0  0  0  0  0  0  0  0  0  0  0
   -8.8764   -3.7978   -4.3316 H   0  0  0  0  0  0  0  0  0  0  0  0
   -8.0533   -3.2094   -5.7721 H   0  0  0  0  0  0  0  0  0  0  0  0
   -9.3838   -5.8046   -5.1895 H   0  0  0  0  0  0  0  0  0  0  0  0
  -10.0559   -4.6759   -6.3386 H   0  0  0  0  0  0  0  0  0  0  0  0
   -9.1895   -4.4909   -8.6393 H   0  0  0  0  0  0  0  0  0  0  0  0
   -7.6596   -5.2318   -9.0912 H   0  0  0  0  0  0  0  0  0  0  0  0
   -7.7206   -3.9140   -7.8957 H   0  0  0  0  0  0  0  0  0  0  0  0
   -8.9847   -7.7620   -6.7763 H   0  0  0  0  0  0  0  0  0  0  0  0
  -10.9019   -6.6620   -8.1744 H   0  0  0  0  0  0  0  0  0  0  0  0
   -9.8491   -6.7430   -9.5654 H   0  0  0  0  0  0  0  0  0  0  0  0
  -11.2980   -8.7471   -9.5129 H   0  0  0  0  0  0  0  0  0  0  0  0
  -10.8662   -9.0579   -7.8603 H   0  0  0  0  0  0  0  0  0  0  0  0
  2  1  1  6
  1 22  1  0
  1 23  1  0
  1 24  1  0
  2  8  1  0
  2 21  1  0
  2  3  1  0
  3  4  1  0
  3 25  1  0
  3 26  1  0
  4  5  1  0
  4 27  1  0
  4 28  1  0
  5  6  2  0
  5  7  1  0
  7  8  1  0
  7 29  1  0
  7 30  1  0
  8  9  1  0
  8 31  1  6
  9 19  1  0
  9 10  1  0
  9 32  1  6
 10 11  2  0
 10 33  1  0
 11 17  1  0
 11 12  1  0
 12 13  1  0
 12 34  1  0
 12 35  1  0
 13 14  2  0
 13 15  1  0
 15 16  1  0
 15 36  1  0
 15 37  1  0
 16 17  1  0
 16 38  1  0
 16 39  1  0
 17 18  1  6
 17 19  1  0
 18 40  1  0
 18 41  1  0
 18 42  1  0
 19 20  1  0
 19 43  1  1
 20 21  1  0
 20 44  1  0
 20 45  1  0
 21 46  1  0
 21 47  1  0
M  END
>  <i_m_ct_stereo_status>  (151) 
1

>  <s_m_source_file>  (151) 
/var/tmp/pbs.5076255.sched01/tmp2pvlagj1/41_74nrqse.sdf

>  <i_m_source_file_index>  (151) 
20

>  <i_lp_mmshare_version>  (151) 
48012

>  <i_f3d_flags>  (151) 
0

>  <s_epik_input>  (151) 
W0NIMl0xW0NIMl1DKD1PKVtDSDJdW0NAQEhdKFtDQEBdMTJbQ0gzXSlbQ0BIXTNbQ0BIXShbQ0gyXVtDSDJdMilbQ0BdNChbQ0gzXSlDKD1bQ0hdMylbQ0gyXUMoPU8pW0NIMl1bQ0gyXTQ=

>  <s_epik_cmdline>  (151) 
J2VwaWtfcHl0aG9uJywgJy1waHQnLCAnMi4wJywgJy1waCcsICc3LjAnLCAnLXRuJywgJzgnLCAnLW1hJywgJzIwMCcsICctaW1hZScsICc8aW5maWxlLm1hZT4nLCAnLW9tYWUnLCAnPG91dGZpbGUubWFlPic=

>  <r_lp_tautomer_probability>  (151) 
1

>  <r_epik_Ionization_Penalty>  (151) 
3.88492e-13

>  <r_epik_Ionization_Penalty_Charging>  (151) 
0

>  <r_epik_Ionization_Penalty_Neutral>  (151) 
3.88492e-13

>  <r_epik_State_Penalty>  (151) 
-0

>  <r_epik_Charging_Adjusted_Penalty>  (151) 
0

>  <i_epik_Tot_Q>  (151) 
0

>  <i_epik_Tot_abs_Q>  (151) 
0

>  <s_lp_Force_Field>  (151) 
OPLS3e

>  <r_lp_Energy>  (151) 
30.5348

>  <b_lp_Chiralities_Consistent>  (151) 
1

>  <s_lp_Variant>  (151) 
44:0-1

>  <s_i_glide_gridfile>  (151) 
pfpi4k_grid

>  <i_i_glide_lignum>  (151) 
20

>  <i_i_glide_rotatable_bonds>  (151) 
0

>  <r_i_docking_score>  (151) 
-5.41817

>  <r_i_glide_ligand_efficiency>  (151) 
-0.258008

>  <r_i_glide_ligand_efficiency_sa>  (151) 
-0.711825

>  <r_i_glide_ligand_efficiency_ln>  (151) 
-1.33963

>  <r_i_glide_gscore>  (151) 
-5.41817

>  <r_i_glide_lipo>  (151) 
-2.01271

>  <r_i_glide_hbond>  (151) 
0

>  <r_i_glide_metal>  (151) 
-0

>  <r_i_glide_rewards>  (151) 
-2.50402

>  <r_i_glide_evdw>  (151) 
-17.6313

>  <r_i_glide_ecoul>  (151) 
-0.132486

>  <r_i_glide_erotb>  (151) 
0

>  <r_i_glide_esite>  (151) 
0

>  <r_i_glide_emodel>  (151) 
-25.0546

>  <r_i_glide_energy>  (151) 
-17.7638

>  <r_i_glide_einternal>  (151) 
0

>  <r_i_glide_intrahb_reward>  (151) 
-0

>  <i_i_glide_confnum>  (151) 
1

>  <i_i_glide_posenum>  (151) 
2

>  <r_i_glide_eff_state_penalty>  (151) 
0

>  <ligand_id>  (151) 
44

>  <original_smiles>  (151) 
CC12CCC(=O)CC1C1C=C3CC(=O)CCC3(C)C1CC2

>  <smiles>  (151) 
[H]C1=C2C([H])([H])C(=O)C([H])([H])C([H])([H])C2(C([H])([H])[H])C2([H])C([H])([H])C([H])([H])C3(C([H])([H])[H])C([H])([H])C([H])([H])C(=O)C([H])([H])C3([H])C12[H]

$$$$
44:0:1
     RDKit          3D

 47 50  0  0  1  0  0  0  0  0999 V2000
    4.9419   -6.3904    4.0137 C   0  0  0  0  0  0  0  0  0  0  0  0
    3.9701   -6.6522    2.8361 C   0  0  1  0  0  0  0  0  0  0  0  0
    3.0433   -7.8099    3.3037 C   0  0  0  0  0  0  0  0  0  0  0  0
    1.8689   -8.1222    2.3620 C   0  0  0  0  0  0  0  0  0  0  0  0
    1.0626   -6.8503    2.1141 C   0  0  0  0  0  0  0  0  0  0  0  0
   -0.1615   -6.7946    2.2337 O   0  0  0  0  0  0  0  0  0  0  0  0
    1.8626   -5.6394    1.6679 C   0  0  0  0  0  0  0  0  0  0  0  0
    3.1120   -5.3671    2.5283 C   0  0  2  0  0  0  0  0  0  0  0  0
    4.0117   -4.2663    1.9144 C   0  0  2  0  0  0  0  0  0  0  0  0
    3.4413   -2.9574    1.4083 C   0  0  0  0  0  0  0  0  0  0  0  0
    4.1592   -2.5093    0.3669 C   0  0  0  0  0  0  0  0  0  0  0  0
    3.9904   -1.1986   -0.3934 C   0  0  0  0  0  0  0  0  0  0  0  0
    4.2368   -1.3891   -1.8958 C   0  0  0  0  0  0  0  0  0  0  0  0
    3.5912   -0.7877   -2.7481 O   0  0  0  0  0  0  0  0  0  0  0  0
    5.3956   -2.2938   -2.3000 C   0  0  0  0  0  0  0  0  0  0  0  0
    5.3253   -3.6382   -1.5728 C   0  0  0  0  0  0  0  0  0  0  0  0
    5.2587   -3.4823   -0.0364 C   0  0  1  0  0  0  0  0  0  0  0  0
    6.5993   -2.9872    0.5455 C   0  0  0  0  0  0  0  0  0  0  0  0
    4.7397   -4.7657    0.6591 C   0  0  1  0  0  0  0  0  0  0  0  0
    5.6660   -5.9327    0.9913 C   0  0  0  0  0  0  0  0  0  0  0  0
    4.8064   -7.0752    1.5883 C   0  0  0  0  0  0  0  0  0  0  0  0
    5.4862   -7.3007    4.2717 H   0  0  0  0  0  0  0  0  0  0  0  0
    4.4086   -6.0647    4.9098 H   0  0  0  0  0  0  0  0  0  0  0  0
    5.6913   -5.6316    3.7897 H   0  0  0  0  0  0  0  0  0  0  0  0
    3.6255   -8.7193    3.4725 H   0  0  0  0  0  0  0  0  0  0  0  0
    2.6190   -7.5507    4.2768 H   0  0  0  0  0  0  0  0  0  0  0  0
    2.2398   -8.4931    1.4069 H   0  0  0  0  0  0  0  0  0  0  0  0
    1.2341   -8.9052    2.7771 H   0  0  0  0  0  0  0  0  0  0  0  0
    2.1059   -5.7899    0.6185 H   0  0  0  0  0  0  0  0  0  0  0  0
    1.2262   -4.7630    1.7398 H   0  0  0  0  0  0  0  0  0  0  0  0
    2.7379   -4.9873    3.4812 H   0  0  0  0  0  0  0  0  0  0  0  0
    4.7459   -3.9754    2.6666 H   0  0  0  0  0  0  0  0  0  0  0  0
    2.6280   -2.4349    1.8894 H   0  0  0  0  0  0  0  0  0  0  0  0
    2.9989   -0.7892   -0.2169 H   0  0  0  0  0  0  0  0  0  0  0  0
    4.7109   -0.4732   -0.0249 H   0  0  0  0  0  0  0  0  0  0  0  0
    5.3864   -2.4456   -3.3782 H   0  0  0  0  0  0  0  0  0  0  0  0
    6.3212   -1.7818   -2.0584 H   0  0  0  0  0  0  0  0  0  0  0  0
    4.4544   -4.1778   -1.9476 H   0  0  0  0  0  0  0  0  0  0  0  0
    6.1923   -4.2374   -1.8403 H   0  0  0  0  0  0  0  0  0  0  0  0
    7.4104   -3.6793    0.3152 H   0  0  0  0  0  0  0  0  0  0  0  0
    6.5350   -2.8913    1.6289 H   0  0  0  0  0  0  0  0  0  0  0  0
    6.8651   -2.0038    0.1578 H   0  0  0  0  0  0  0  0  0  0  0  0
    3.9915   -5.1726   -0.0188 H   0  0  0  0  0  0  0  0  0  0  0  0
    6.1641   -6.2574    0.0820 H   0  0  0  0  0  0  0  0  0  0  0  0
    6.4523   -5.6308    1.6811 H   0  0  0  0  0  0  0  0  0  0  0  0
    5.4475   -7.9215    1.8395 H   0  0  0  0  0  0  0  0  0  0  0  0
    4.1374   -7.4349    0.8075 H   0  0  0  0  0  0  0  0  0  0  0  0
  2  1  1  1
  1 22  1  0
  1 23  1  0
  1 24  1  0
  2  8  1  0
  2 21  1  0
  2  3  1  0
  3  4  1  0
  3 25  1  0
  3 26  1  0
  4  5  1  0
  4 27  1  0
  4 28  1  0
  5  6  2  0
  5  7  1  0
  7  8  1  0
  7 29  1  0
  7 30  1  0
  8  9  1  0
  8 31  1  1
  9 19  1  0
  9 10  1  0
  9 32  1  1
 10 11  2  0
 10 33  1  0
 11 17  1  0
 11 12  1  0
 12 13  1  0
 12 34  1  0
 12 35  1  0
 13 14  2  0
 13 15  1  0
 15 16  1  0
 15 36  1  0
 15 37  1  0
 16 17  1  0
 16 38  1  0
 16 39  1  0
 17 18  1  1
 17 19  1  0
 18 40  1  0
 18 41  1  0
 18 42  1  0
 19 20  1  0
 19 43  1  6
 20 21  1  0
 20 44  1  0
 20 45  1  0
 21 46  1  0
 21 47  1  0
M  END
>  <i_m_ct_stereo_status>  (152) 
1

>  <s_m_source_file>  (152) 
/var/tmp/pbs.5076255.sched01/tmp2pvlagj1/41_74nrqse.sdf

>  <i_m_source_file_index>  (152) 
20

>  <i_lp_mmshare_version>  (152) 
48012

>  <i_f3d_flags>  (152) 
0

>  <s_epik_input>  (152) 
W0NIMl0xW0NIMl1DKD1PKVtDSDJdW0NAQEhdKFtDQEBdMTJbQ0gzXSlbQ0BIXTNbQ0BIXShbQ0gyXVtDSDJdMilbQ0BdNChbQ0gzXSlDKD1bQ0hdMylbQ0gyXUMoPU8pW0NIMl1bQ0gyXTQ=

>  <s_epik_cmdline>  (152) 
J2VwaWtfcHl0aG9uJywgJy1waHQnLCAnMi4wJywgJy1waCcsICc3LjAnLCAnLXRuJywgJzgnLCAnLW1hJywgJzIwMCcsICctaW1hZScsICc8aW5maWxlLm1hZT4nLCAnLW9tYWUnLCAnPG91dGZpbGUubWFlPic=

>  <r_lp_tautomer_probability>  (152) 
1

>  <r_epik_Ionization_Penalty>  (152) 
3.88492e-13

>  <r_epik_Ionization_Penalty_Charging>  (152) 
0

>  <r_epik_Ionization_Penalty_Neutral>  (152) 
3.88492e-13

>  <r_epik_State_Penalty>  (152) 
-0

>  <r_epik_Charging_Adjusted_Penalty>  (152) 
0

>  <i_epik_Tot_Q>  (152) 
0

>  <i_epik_Tot_abs_Q>  (152) 
0

>  <s_lp_Force_Field>  (152) 
OPLS3e

>  <r_lp_Energy>  (152) 
30.5348

>  <b_lp_Chiralities_Consistent>  (152) 
1

>  <s_lp_Variant>  (152) 
44:0-1

>  <s_i_glide_gridfile>  (152) 
pfpi4k_grid

>  <i_i_glide_lignum>  (152) 
20

>  <i_i_glide_rotatable_bonds>  (152) 
0

>  <r_i_docking_score>  (152) 
-3.59658

>  <r_i_glide_ligand_efficiency>  (152) 
-0.171266

>  <r_i_glide_ligand_efficiency_sa>  (152) 
-0.47251

>  <r_i_glide_ligand_efficiency_ln>  (152) 
-0.889248

>  <r_i_glide_gscore>  (152) 
-3.59658

>  <r_i_glide_lipo>  (152) 
-0.437129

>  <r_i_glide_hbond>  (152) 
-0.142305

>  <r_i_glide_metal>  (152) 
-0

>  <r_i_glide_rewards>  (152) 
-1.45631

>  <r_i_glide_evdw>  (152) 
-23.9825

>  <r_i_glide_ecoul>  (152) 
-1.7792

>  <r_i_glide_erotb>  (152) 
0

>  <r_i_glide_esite>  (152) 
-0.0948417

>  <r_i_glide_emodel>  (152) 
-31.1951

>  <r_i_glide_energy>  (152) 
-25.7617

>  <r_i_glide_einternal>  (152) 
0

>  <r_i_glide_intrahb_reward>  (152) 
-0

>  <i_i_glide_confnum>  (152) 
2

>  <i_i_glide_posenum>  (152) 
5

>  <r_i_glide_eff_state_penalty>  (152) 
0

>  <ligand_id>  (152) 
44

>  <original_smiles>  (152) 
CC12CCC(=O)CC1C1C=C3CC(=O)CCC3(C)C1CC2

>  <smiles>  (152) 
[H]C1=C2C([H])([H])C(=O)C([H])([H])C([H])([H])C2(C([H])([H])[H])C2([H])C([H])([H])C([H])([H])C3(C([H])([H])[H])C([H])([H])C([H])([H])C(=O)C([H])([H])C3([H])C12[H]

$$$$
45:0:0
     RDKit          3D

 25 27  0  0  1  0  0  0  0  0999 V2000
   -6.5797   -4.2506   -4.3082 N   0  0  0  0  0  0  0  0  0  0  0  0
   -6.6863   -5.3673   -5.1227 C   0  0  0  0  0  0  0  0  0  0  0  0
   -7.6677   -5.4009   -6.1376 C   0  0  0  0  0  0  0  0  0  0  0  0
   -7.7858   -6.5265   -6.9811 C   0  0  0  0  0  0  0  0  0  0  0  0
   -6.9248   -7.6307   -6.8085 C   0  0  0  0  0  0  0  0  0  0  0  0
   -6.8139   -8.8346   -7.4687 N   0  0  0  0  0  0  0  0  0  0  0  0
   -5.8049   -9.4466   -6.8292 C   0  0  0  0  0  0  0  0  0  0  0  0
   -5.2693  -10.7718   -7.1201 C   0  0  0  0  0  0  0  0  0  0  0  0
   -4.1867  -11.3009   -6.3888 C   0  0  0  0  0  0  0  0  0  0  0  0
   -3.7090  -12.5800   -6.7214 C   0  0  0  0  0  0  0  0  0  0  0  0
   -4.2296  -13.3282   -7.7178 N   0  0  0  0  0  0  0  0  0  0  0  0
   -5.2752  -12.8245   -8.4063 C   0  0  0  0  0  0  0  0  0  0  0  0
   -5.8254  -11.5560   -8.1532 C   0  0  0  0  0  0  0  0  0  0  0  0
   -5.2318   -8.7393   -5.8033 O   0  0  0  0  0  0  0  0  0  0  0  0
   -5.9560   -7.5648   -5.7851 C   0  0  0  0  0  0  0  0  0  0  0  0
   -5.8177   -6.4579   -4.9376 C   0  0  0  0  0  0  0  0  0  0  0  0
   -7.1993   -3.4604   -4.4114 H   0  0  0  0  0  0  0  0  0  0  0  0
   -5.8940   -4.1713   -3.5726 H   0  0  0  0  0  0  0  0  0  0  0  0
   -8.3320   -4.5609   -6.2731 H   0  0  0  0  0  0  0  0  0  0  0  0
   -8.5384   -6.5515   -7.7535 H   0  0  0  0  0  0  0  0  0  0  0  0
   -3.7197  -10.7431   -5.5881 H   0  0  0  0  0  0  0  0  0  0  0  0
   -2.8744  -13.0065   -6.1854 H   0  0  0  0  0  0  0  0  0  0  0  0
   -5.6804  -13.4503   -9.1883 H   0  0  0  0  0  0  0  0  0  0  0  0
   -6.6564  -11.1940   -8.7413 H   0  0  0  0  0  0  0  0  0  0  0  0
   -5.0676   -6.4555   -4.1622 H   0  0  0  0  0  0  0  0  0  0  0  0
  1  2  1  0
  1 17  1  0
  1 18  1  0
  2 16  2  0
  2  3  1  0
  3  4  2  0
  3 19  1  0
  4  5  1  0
  4 20  1  0
  5 15  2  0
  5  6  1  0
  6  7  2  0
  7  8  1  0
  7 14  1  0
  8 13  1  0
  8  9  2  0
  9 10  1  0
  9 21  1  0
 10 11  2  0
 10 22  1  0
 11 12  1  0
 12 13  2  0
 12 23  1  0
 13 24  1  0
 14 15  1  0
 15 16  1  0
 16 25  1  0
M  END
>  <i_m_ct_stereo_status>  (153) 
1

>  <s_m_source_file>  (153) 
/var/tmp/pbs.5076255.sched01/tmp2pvlagj1/41_74nrqse.sdf

>  <i_m_source_file_index>  (153) 
21

>  <i_lp_mmshare_version>  (153) 
48012

>  <i_f3d_flags>  (153) 
0

>  <s_epik_input>  (153) 
W2NIXTFbY0hdYyhbTkgyXSlbY0hdYyhjMTIpb2MobjIpLWMzW2NIXVtjSF1uW2NIXVtjSF0z

>  <s_epik_cmdline>  (153) 
J2VwaWtfcHl0aG9uJywgJy1waHQnLCAnMi4wJywgJy1waCcsICc3LjAnLCAnLXRuJywgJzgnLCAnLW1hJywgJzIwMCcsICctaW1hZScsICc8aW5maWxlLm1hZT4nLCAnLW9tYWUnLCAnPG91dGZpbGUubWFlPic=

>  <r_epik_Ionization_Penalty>  (153) 
0.00807004

>  <r_epik_Ionization_Penalty_Charging>  (153) 
0

>  <r_epik_Ionization_Penalty_Neutral>  (153) 
0.00807004

>  <r_epik_State_Penalty>  (153) 
0.00606016

>  <r_epik_Charging_Adjusted_Penalty>  (153) 
0.00606016

>  <i_epik_Tot_Q>  (153) 
0

>  <i_epik_Tot_abs_Q>  (153) 
0

>  <s_lp_Force_Field>  (153) 
OPLS3e

>  <r_lp_Energy>  (153) 
19.7777

>  <b_lp_Chiralities_Consistent>  (153) 
1

>  <s_lp_Variant>  (153) 
45:0-1

>  <s_i_glide_gridfile>  (153) 
pfpi4k_grid

>  <i_i_glide_lignum>  (153) 
21

>  <i_i_glide_rotatable_bonds>  (153) 
1

>  <r_i_docking_score>  (153) 
-5.31593

>  <r_i_glide_ligand_efficiency>  (153) 
-0.332246

>  <r_i_glide_ligand_efficiency_sa>  (153) 
-0.837207

>  <r_i_glide_ligand_efficiency_ln>  (153) 
-1.40909

>  <r_i_glide_gscore>  (153) 
-5.31593

>  <r_i_glide_lipo>  (153) 
-1.96484

>  <r_i_glide_hbond>  (153) 
0

>  <r_i_glide_metal>  (153) 
-0

>  <r_i_glide_rewards>  (153) 
-2.32729

>  <r_i_glide_evdw>  (153) 
-26.6596

>  <r_i_glide_ecoul>  (153) 
-0.423494

>  <r_i_glide_erotb>  (153) 
0.372705

>  <r_i_glide_esite>  (153) 
0

>  <r_i_glide_emodel>  (153) 
-35.9743

>  <r_i_glide_energy>  (153) 
-27.0831

>  <r_i_glide_einternal>  (153) 
0.00136383

>  <r_i_glide_intrahb_reward>  (153) 
-0

>  <i_i_glide_confnum>  (153) 
3

>  <i_i_glide_posenum>  (153) 
1

>  <r_i_glide_eff_state_penalty>  (153) 
0

>  <ligand_id>  (153) 
45

>  <original_smiles>  (153) 
Nc1ccc2nc(-c3ccncc3)oc2c1

>  <smiles>  (153) 
[H]c1nc([H])c([H])c(-c2nc3c([H])c([H])c(N([H])[H])c([H])c3o2)c1[H]

$$$$
45:0:1
     RDKit          3D

 25 27  0  0  1  0  0  0  0  0999 V2000
    1.3872  -11.8600    4.4789 N   0  0  0  0  0  0  0  0  0  0  0  0
    1.0163  -10.5224    4.3842 C   0  0  0  0  0  0  0  0  0  0  0  0
    0.6178   -9.9853    3.1438 C   0  0  0  0  0  0  0  0  0  0  0  0
    0.2568   -8.6246    3.0381 C   0  0  0  0  0  0  0  0  0  0  0  0
    0.2880   -7.7917    4.1775 C   0  0  0  0  0  0  0  0  0  0  0  0
   -0.0056   -6.4527    4.3636 N   0  0  0  0  0  0  0  0  0  0  0  0
    0.2248   -6.2688    5.6763 C   0  0  0  0  0  0  0  0  0  0  0  0
    0.0851   -5.0221    6.4180 C   0  0  0  0  0  0  0  0  0  0  0  0
   -0.0486   -3.7977    5.7317 C   0  0  0  0  0  0  0  0  0  0  0  0
   -0.1769   -2.6190    6.4836 C   0  0  0  0  0  0  0  0  0  0  0  0
   -0.1810   -2.6023    7.8342 N   0  0  0  0  0  0  0  0  0  0  0  0
   -0.0403   -3.7753    8.4860 C   0  0  0  0  0  0  0  0  0  0  0  0
    0.0944   -5.0081    7.8289 C   0  0  0  0  0  0  0  0  0  0  0  0
    0.6360   -7.3766    6.3741 O   0  0  0  0  0  0  0  0  0  0  0  0
    0.6819   -8.3624    5.4078 C   0  0  0  0  0  0  0  0  0  0  0  0
    1.0448   -9.7129    5.5360 C   0  0  0  0  0  0  0  0  0  0  0  0
    1.3701  -12.4981    3.6984 H   0  0  0  0  0  0  0  0  0  0  0  0
    1.6168  -12.2856    5.3701 H   0  0  0  0  0  0  0  0  0  0  0  0
    0.5874  -10.6125    2.2686 H   0  0  0  0  0  0  0  0  0  0  0  0
   -0.0348   -8.2283    2.0834 H   0  0  0  0  0  0  0  0  0  0  0  0
   -0.0559   -3.7648    4.6501 H   0  0  0  0  0  0  0  0  0  0  0  0
   -0.2901   -1.6645    5.9878 H   0  0  0  0  0  0  0  0  0  0  0  0
   -0.0489   -3.7245    9.5650 H   0  0  0  0  0  0  0  0  0  0  0  0
    0.2006   -5.9197    8.4003 H   0  0  0  0  0  0  0  0  0  0  0  0
    1.3404  -10.1236    6.4905 H   0  0  0  0  0  0  0  0  0  0  0  0
  1  2  1  0
  1 17  1  0
  1 18  1  0
  2 16  2  0
  2  3  1  0
  3  4  2  0
  3 19  1  0
  4  5  1  0
  4 20  1  0
  5 15  2  0
  5  6  1  0
  6  7  2  0
  7  8  1  0
  7 14  1  0
  8 13  1  0
  8  9  2  0
  9 10  1  0
  9 21  1  0
 10 11  2  0
 10 22  1  0
 11 12  1  0
 12 13  2  0
 12 23  1  0
 13 24  1  0
 14 15  1  0
 15 16  1  0
 16 25  1  0
M  END
>  <i_m_ct_stereo_status>  (154) 
1

>  <s_m_source_file>  (154) 
/var/tmp/pbs.5076255.sched01/tmp2pvlagj1/41_74nrqse.sdf

>  <i_m_source_file_index>  (154) 
21

>  <i_lp_mmshare_version>  (154) 
48012

>  <i_f3d_flags>  (154) 
0

>  <s_epik_input>  (154) 
W2NIXTFbY0hdYyhbTkgyXSlbY0hdYyhjMTIpb2MobjIpLWMzW2NIXVtjSF1uW2NIXVtjSF0z

>  <s_epik_cmdline>  (154) 
J2VwaWtfcHl0aG9uJywgJy1waHQnLCAnMi4wJywgJy1waCcsICc3LjAnLCAnLXRuJywgJzgnLCAnLW1hJywgJzIwMCcsICctaW1hZScsICc8aW5maWxlLm1hZT4nLCAnLW9tYWUnLCAnPG91dGZpbGUubWFlPic=

>  <r_epik_Ionization_Penalty>  (154) 
0.00807004

>  <r_epik_Ionization_Penalty_Charging>  (154) 
0

>  <r_epik_Ionization_Penalty_Neutral>  (154) 
0.00807004

>  <r_epik_State_Penalty>  (154) 
0.00606016

>  <r_epik_Charging_Adjusted_Penalty>  (154) 
0.00606016

>  <i_epik_Tot_Q>  (154) 
0

>  <i_epik_Tot_abs_Q>  (154) 
0

>  <s_lp_Force_Field>  (154) 
OPLS3e

>  <r_lp_Energy>  (154) 
19.7777

>  <b_lp_Chiralities_Consistent>  (154) 
1

>  <s_lp_Variant>  (154) 
45:0-1

>  <s_i_glide_gridfile>  (154) 
pfpi4k_grid

>  <i_i_glide_lignum>  (154) 
21

>  <i_i_glide_rotatable_bonds>  (154) 
1

>  <r_i_docking_score>  (154) 
-3.51709

>  <r_i_glide_ligand_efficiency>  (154) 
-0.219818

>  <r_i_glide_ligand_efficiency_sa>  (154) 
-0.553907

>  <r_i_glide_ligand_efficiency_ln>  (154) 
-0.932275

>  <r_i_glide_gscore>  (154) 
-3.51709

>  <r_i_glide_lipo>  (154) 
-0.0145519

>  <r_i_glide_hbond>  (154) 
-0.315456

>  <r_i_glide_metal>  (154) 
-0

>  <r_i_glide_rewards>  (154) 
-1.96896

>  <r_i_glide_evdw>  (154) 
-16.3321

>  <r_i_glide_ecoul>  (154) 
-5.06478

>  <r_i_glide_erotb>  (154) 
0.372705

>  <r_i_glide_esite>  (154) 
-0.014506

>  <r_i_glide_emodel>  (154) 
-27.2023

>  <r_i_glide_energy>  (154) 
-21.3969

>  <r_i_glide_einternal>  (154) 
0.130157

>  <r_i_glide_intrahb_reward>  (154) 
-0

>  <i_i_glide_confnum>  (154) 
4

>  <i_i_glide_posenum>  (154) 
16

>  <r_i_glide_eff_state_penalty>  (154) 
0

>  <ligand_id>  (154) 
45

>  <original_smiles>  (154) 
Nc1ccc2nc(-c3ccncc3)oc2c1

>  <smiles>  (154) 
[H]c1nc([H])c([H])c(-c2nc3c([H])c([H])c(N([H])[H])c([H])c3o2)c1[H]

$$$$
45:0:2
     RDKit          3D

 25 27  0  0  1  0  0  0  0  0999 V2000
    2.8181  -10.2730    2.5184 N   0  0  0  0  0  0  0  0  0  0  0  0
    2.7097   -8.9341    2.1462 C   0  0  0  0  0  0  0  0  0  0  0  0
    1.5590   -8.1939    2.4950 C   0  0  0  0  0  0  0  0  0  0  0  0
    1.4514   -6.8271    2.1609 C   0  0  0  0  0  0  0  0  0  0  0  0
    2.4912   -6.1855    1.4550 C   0  0  0  0  0  0  0  0  0  0  0  0
    2.6401   -4.8963    0.9894 N   0  0  0  0  0  0  0  0  0  0  0  0
    3.8524   -4.9163    0.4121 C   0  0  0  0  0  0  0  0  0  0  0  0
    4.5258   -3.7942   -0.2418 C   0  0  0  0  0  0  0  0  0  0  0  0
    3.8121   -2.6263   -0.5801 C   0  0  0  0  0  0  0  0  0  0  0  0
    4.5000   -1.5750   -1.2146 C   0  0  0  0  0  0  0  0  0  0  0  0
    5.8138   -1.6313   -1.5201 N   0  0  0  0  0  0  0  0  0  0  0  0
    6.4917   -2.7535   -1.1959 C   0  0  0  0  0  0  0  0  0  0  0  0
    5.8983   -3.8536   -0.5555 C   0  0  0  0  0  0  0  0  0  0  0  0
    4.5136   -6.1190    0.4536 O   0  0  0  0  0  0  0  0  0  0  0  0
    3.6303   -6.9451    1.1229 C   0  0  0  0  0  0  0  0  0  0  0  0
    3.7598   -8.3056    1.4454 C   0  0  0  0  0  0  0  0  0  0  0  0
    2.0559  -10.7586    2.9683 H   0  0  0  0  0  0  0  0  0  0  0  0
    3.5658  -10.8675    2.1847 H   0  0  0  0  0  0  0  0  0  0  0  0
    0.7564   -8.6739    3.0321 H   0  0  0  0  0  0  0  0  0  0  0  0
    0.5782   -6.2687    2.4507 H   0  0  0  0  0  0  0  0  0  0  0  0
    2.7550   -2.5347   -0.3607 H   0  0  0  0  0  0  0  0  0  0  0  0
    3.9755   -0.6723   -1.4876 H   0  0  0  0  0  0  0  0  0  0  0  0
    7.5413   -2.7704   -1.4544 H   0  0  0  0  0  0  0  0  0  0  0  0
    6.4892   -4.7231   -0.3156 H   0  0  0  0  0  0  0  0  0  0  0  0
    4.6410   -8.8560    1.1546 H   0  0  0  0  0  0  0  0  0  0  0  0
  1  2  1  0
  1 17  1  0
  1 18  1  0
  2 16  2  0
  2  3  1  0
  3  4  2  0
  3 19  1  0
  4  5  1  0
  4 20  1  0
  5 15  2  0
  5  6  1  0
  6  7  2  0
  7  8  1  0
  7 14  1  0
  8 13  1  0
  8  9  2  0
  9 10  1  0
  9 21  1  0
 10 11  2  0
 10 22  1  0
 11 12  1  0
 12 13  2  0
 12 23  1  0
 13 24  1  0
 14 15  1  0
 15 16  1  0
 16 25  1  0
M  END
>  <i_m_ct_stereo_status>  (155) 
1

>  <s_m_source_file>  (155) 
/var/tmp/pbs.5076255.sched01/tmp2pvlagj1/41_74nrqse.sdf

>  <i_m_source_file_index>  (155) 
21

>  <i_lp_mmshare_version>  (155) 
48012

>  <i_f3d_flags>  (155) 
0

>  <s_epik_input>  (155) 
W2NIXTFbY0hdYyhbTkgyXSlbY0hdYyhjMTIpb2MobjIpLWMzW2NIXVtjSF1uW2NIXVtjSF0z

>  <s_epik_cmdline>  (155) 
J2VwaWtfcHl0aG9uJywgJy1waHQnLCAnMi4wJywgJy1waCcsICc3LjAnLCAnLXRuJywgJzgnLCAnLW1hJywgJzIwMCcsICctaW1hZScsICc8aW5maWxlLm1hZT4nLCAnLW9tYWUnLCAnPG91dGZpbGUubWFlPic=

>  <r_epik_Ionization_Penalty>  (155) 
0.00807004

>  <r_epik_Ionization_Penalty_Charging>  (155) 
0

>  <r_epik_Ionization_Penalty_Neutral>  (155) 
0.00807004

>  <r_epik_State_Penalty>  (155) 
0.00606016

>  <r_epik_Charging_Adjusted_Penalty>  (155) 
0.00606016

>  <i_epik_Tot_Q>  (155) 
0

>  <i_epik_Tot_abs_Q>  (155) 
0

>  <s_lp_Force_Field>  (155) 
OPLS3e

>  <r_lp_Energy>  (155) 
19.7777

>  <b_lp_Chiralities_Consistent>  (155) 
1

>  <s_lp_Variant>  (155) 
45:0-1

>  <s_i_glide_gridfile>  (155) 
pfpi4k_grid

>  <i_i_glide_lignum>  (155) 
21

>  <i_i_glide_rotatable_bonds>  (155) 
1

>  <r_i_docking_score>  (155) 
-3.21971

>  <r_i_glide_ligand_efficiency>  (155) 
-0.201232

>  <r_i_glide_ligand_efficiency_sa>  (155) 
-0.507073

>  <r_i_glide_ligand_efficiency_ln>  (155) 
-0.853449

>  <r_i_glide_gscore>  (155) 
-3.21971

>  <r_i_glide_lipo>  (155) 
-0.156747

>  <r_i_glide_hbond>  (155) 
-0.102052

>  <r_i_glide_metal>  (155) 
-0

>  <r_i_glide_rewards>  (155) 
-1.96896

>  <r_i_glide_evdw>  (155) 
-20.0789

>  <r_i_glide_ecoul>  (155) 
-2.19433

>  <r_i_glide_erotb>  (155) 
0.372705

>  <r_i_glide_esite>  (155) 
-0.0315633

>  <r_i_glide_emodel>  (155) 
-27.568

>  <r_i_glide_energy>  (155) 
-22.2733

>  <r_i_glide_einternal>  (155) 
0.159211

>  <r_i_glide_intrahb_reward>  (155) 
-0

>  <i_i_glide_confnum>  (155) 
4

>  <i_i_glide_posenum>  (155) 
7

>  <r_i_glide_eff_state_penalty>  (155) 
0

>  <ligand_id>  (155) 
45

>  <original_smiles>  (155) 
Nc1ccc2nc(-c3ccncc3)oc2c1

>  <smiles>  (155) 
[H]c1nc([H])c([H])c(-c2nc3c([H])c([H])c(N([H])[H])c([H])c3o2)c1[H]

$$$$
45:1:0
     RDKit          3D

 26 28  0  0  1  0  0  0  0  0999 V2000
    1.2960   -0.6331    2.0807 N   0  0  0  0  0  0  0  0  0  0  0  0
    0.5655    0.1761    2.9497 C   0  0  0  0  0  0  0  0  0  0  0  0
   -0.2161    1.2401    2.4390 C   0  0  0  0  0  0  0  0  0  0  0  0
   -0.9551    2.0639    3.3153 C   0  0  0  0  0  0  0  0  0  0  0  0
   -0.9251    1.8345    4.7081 C   0  0  0  0  0  0  0  0  0  0  0  0
   -1.5337    2.4654    5.7757 N   0  0  0  0  0  0  0  0  0  0  0  0
   -1.0711    1.7947    6.8390 C   0  0  0  0  0  0  0  0  0  0  0  0
   -1.3830    2.0631    8.2397 C   0  0  0  0  0  0  0  0  0  0  0  0
   -2.5814    2.7285    8.5730 C   0  0  0  0  0  0  0  0  0  0  0  0
   -2.8759    2.9650    9.9277 C   0  0  0  0  0  0  0  0  0  0  0  0
   -2.0172    2.5465   10.8772 N   0  0  0  0  0  0  0  0  0  0  0  0
   -0.8586    1.9163   10.6092 C   0  0  0  0  0  0  0  0  0  0  0  0
   -0.5141    1.6436    9.2728 C   0  0  0  0  0  0  0  0  0  0  0  0
   -0.2448    0.7402    6.5662 O   0  0  0  0  0  0  0  0  0  0  0  0
   -0.1326    0.7704    5.1853 C   0  0  0  0  0  0  0  0  0  0  0  0
    0.6073   -0.0667    4.3372 C   0  0  0  0  0  0  0  0  0  0  0  0
    1.2266   -0.5233    1.0661 H   0  0  0  0  0  0  0  0  0  0  0  0
    1.8608   -1.4125    2.3729 H   0  0  0  0  0  0  0  0  0  0  0  0
   -0.2458    1.4255    1.3725 H   0  0  0  0  0  0  0  0  0  0  0  0
   -1.5362    2.8746    2.9090 H   0  0  0  0  0  0  0  0  0  0  0  0
   -3.2767    3.0228    7.7918 H   0  0  0  0  0  0  0  0  0  0  0  0
   -3.7881    3.4193   10.2752 H   0  0  0  0  0  0  0  0  0  0  0  0
   -0.2804    1.6110   11.4667 H   0  0  0  0  0  0  0  0  0  0  0  0
    0.4021    1.1113    9.0393 H   0  0  0  0  0  0  0  0  0  0  0  0
    1.2029   -0.8727    4.7383 H   0  0  0  0  0  0  0  0  0  0  0  0
   -2.3103    2.6138   11.8742 H   0  0  0  0  0  0  0  0  0  0  0  0
  1  2  1  0
  1 17  1  0
  1 18  1  0
  2 16  2  0
  2  3  1  0
  3  4  2  0
  3 19  1  0
  4  5  1  0
  4 20  1  0
  5 15  2  0
  5  6  1  0
  6  7  2  0
  7  8  1  0
  7 14  1  0
  8 13  1  0
  8  9  2  0
  9 10  1  0
  9 21  1  0
 10 11  2  0
 10 22  1  0
 11 12  1  0
 11 26  1  0
 12 13  2  0
 12 23  1  0
 13 24  1  0
 14 15  1  0
 15 16  1  0
 16 25  1  0
M  CHG  1  11   1
M  END
>  <i_m_ct_stereo_status>  (156) 
1

>  <s_m_source_file>  (156) 
/var/tmp/pbs.5076255.sched01/tmp2pvlagj1/41_74nrqse.sdf

>  <i_m_source_file_index>  (156) 
22

>  <i_lp_mmshare_version>  (156) 
48012

>  <i_f3d_flags>  (156) 
0

>  <s_epik_input>  (156) 
W2NIXTFbY0hdYyhbTkgyXSlbY0hdYyhjMTIpb2MobjIpLWMzW2NIXVtjSF1uW2NIXVtjSF0z

>  <s_epik_cmdline>  (156) 
J2VwaWtfcHl0aG9uJywgJy1waHQnLCAnMi4wJywgJy1waCcsICc3LjAnLCAnLXRuJywgJzgnLCAnLW1hJywgJzIwMCcsICctaW1hZScsICc8aW5maWxlLm1hZT4nLCAnLW9tYWUnLCAnPG91dGZpbGUubWFlPic=

>  <r_epik_Ionization_Penalty>  (156) 
2.54966

>  <r_epik_Ionization_Penalty_Charging>  (156) 
2.54966

>  <r_epik_Ionization_Penalty_Neutral>  (156) 
1.43198e-06

>  <r_epik_State_Penalty>  (156) 
2.71815

>  <r_epik_Charging_Adjusted_Penalty>  (156) 
5.26781

>  <i_epik_Tot_Q>  (156) 
1

>  <i_epik_Tot_abs_Q>  (156) 
1

>  <s_lp_Force_Field>  (156) 
OPLS3e

>  <r_lp_Energy>  (156) 
24.5308

>  <b_lp_Chiralities_Consistent>  (156) 
1

>  <s_lp_Variant>  (156) 
45:0-2

>  <s_i_glide_gridfile>  (156) 
pfpi4k_grid

>  <i_i_glide_lignum>  (156) 
22

>  <i_i_glide_rotatable_bonds>  (156) 
1

>  <r_i_docking_score>  (156) 
-3.86839

>  <r_i_glide_ligand_efficiency>  (156) 
-0.241774

>  <r_i_glide_ligand_efficiency_sa>  (156) 
-0.609233

>  <r_i_glide_ligand_efficiency_ln>  (156) 
-1.02539

>  <r_i_glide_gscore>  (156) 
-3.86839

>  <r_i_glide_lipo>  (156) 
-0.0183194

>  <r_i_glide_hbond>  (156) 
-0.343476

>  <r_i_glide_metal>  (156) 
-0

>  <r_i_glide_rewards>  (156) 
-1.96209

>  <r_i_glide_evdw>  (156) 
-16.6054

>  <r_i_glide_ecoul>  (156) 
-6.05808

>  <r_i_glide_erotb>  (156) 
0.369738

>  <r_i_glide_esite>  (156) 
-0.175263

>  <r_i_glide_emodel>  (156) 
-30.3158

>  <r_i_glide_energy>  (156) 
-22.6635

>  <r_i_glide_einternal>  (156) 
0.494131

>  <r_i_glide_intrahb_reward>  (156) 
-0

>  <i_i_glide_confnum>  (156) 
3

>  <i_i_glide_posenum>  (156) 
4

>  <r_i_glide_eff_state_penalty>  (156) 
0

>  <ligand_id>  (156) 
45

>  <original_smiles>  (156) 
Nc1ccc2nc(-c3ccncc3)oc2c1

>  <smiles>  (156) 
[H]c1c(N([H])[H])c([H])c2oc(-c3c([H])c([H])[n+]([H])c([H])c3[H])nc2c1[H]

$$$$
45:1:1
     RDKit          3D

 26 28  0  0  1  0  0  0  0  0999 V2000
    3.8059   -2.4939   -0.9671 N   0  0  0  0  0  0  0  0  0  0  0  0
    3.9661   -3.7284   -0.3430 C   0  0  0  0  0  0  0  0  0  0  0  0
    5.2562   -4.2611   -0.1311 C   0  0  0  0  0  0  0  0  0  0  0  0
    5.4259   -5.5146    0.4978 C   0  0  0  0  0  0  0  0  0  0  0  0
    4.2999   -6.2515    0.9242 C   0  0  0  0  0  0  0  0  0  0  0  0
    4.1677   -7.4767    1.5438 N   0  0  0  0  0  0  0  0  0  0  0  0
    2.8394   -7.6122    1.6887 C   0  0  0  0  0  0  0  0  0  0  0  0
    2.1426   -8.7409    2.2995 C   0  0  0  0  0  0  0  0  0  0  0  0
    0.7444   -8.7045    2.5056 C   0  0  0  0  0  0  0  0  0  0  0  0
    0.1040   -9.8115    3.0954 C   0  0  0  0  0  0  0  0  0  0  0  0
    0.8327  -10.8892    3.4641 N   0  0  0  0  0  0  0  0  0  0  0  0
    2.1688  -10.9709    3.2825 C   0  0  0  0  0  0  0  0  0  0  0  0
    2.8595   -9.8930    2.6936 C   0  0  0  0  0  0  0  0  0  0  0  0
    2.0803   -6.5711    1.2121 O   0  0  0  0  0  0  0  0  0  0  0  0
    3.0231   -5.6936    0.7100 C   0  0  0  0  0  0  0  0  0  0  0  0
    2.8337   -4.4526    0.0782 C   0  0  0  0  0  0  0  0  0  0  0  0
    4.5998   -1.9542   -1.2745 H   0  0  0  0  0  0  0  0  0  0  0  0
    2.8948   -2.0748   -1.1172 H   0  0  0  0  0  0  0  0  0  0  0  0
    6.1250   -3.7103   -0.4578 H   0  0  0  0  0  0  0  0  0  0  0  0
    6.4163   -5.9170    0.6547 H   0  0  0  0  0  0  0  0  0  0  0  0
    0.1639   -7.8455    2.2106 H   0  0  0  0  0  0  0  0  0  0  0  0
   -0.9593   -9.8599    3.2803 H   0  0  0  0  0  0  0  0  0  0  0  0
    2.6438  -11.8866    3.6067 H   0  0  0  0  0  0  0  0  0  0  0  0
    3.9267   -9.9541    2.5387 H   0  0  0  0  0  0  0  0  0  0  0  0
    1.8471   -4.0658   -0.1015 H   0  0  0  0  0  0  0  0  0  0  0  0
    0.3519  -11.6746    3.9033 H   0  0  0  0  0  0  0  0  0  0  0  0
  1  2  1  0
  1 17  1  0
  1 18  1  0
  2 16  2  0
  2  3  1  0
  3  4  2  0
  3 19  1  0
  4  5  1  0
  4 20  1  0
  5 15  2  0
  5  6  1  0
  6  7  2  0
  7  8  1  0
  7 14  1  0
  8 13  1  0
  8  9  2  0
  9 10  1  0
  9 21  1  0
 10 11  2  0
 10 22  1  0
 11 12  1  0
 11 26  1  0
 12 13  2  0
 12 23  1  0
 13 24  1  0
 14 15  1  0
 15 16  1  0
 16 25  1  0
M  CHG  1  11   1
M  END
>  <i_m_ct_stereo_status>  (157) 
1

>  <s_m_source_file>  (157) 
/var/tmp/pbs.5076255.sched01/tmp2pvlagj1/41_74nrqse.sdf

>  <i_m_source_file_index>  (157) 
22

>  <i_lp_mmshare_version>  (157) 
48012

>  <i_f3d_flags>  (157) 
0

>  <s_epik_input>  (157) 
W2NIXTFbY0hdYyhbTkgyXSlbY0hdYyhjMTIpb2MobjIpLWMzW2NIXVtjSF1uW2NIXVtjSF0z

>  <s_epik_cmdline>  (157) 
J2VwaWtfcHl0aG9uJywgJy1waHQnLCAnMi4wJywgJy1waCcsICc3LjAnLCAnLXRuJywgJzgnLCAnLW1hJywgJzIwMCcsICctaW1hZScsICc8aW5maWxlLm1hZT4nLCAnLW9tYWUnLCAnPG91dGZpbGUubWFlPic=

>  <r_epik_Ionization_Penalty>  (157) 
2.54966

>  <r_epik_Ionization_Penalty_Charging>  (157) 
2.54966

>  <r_epik_Ionization_Penalty_Neutral>  (157) 
1.43198e-06

>  <r_epik_State_Penalty>  (157) 
2.71815

>  <r_epik_Charging_Adjusted_Penalty>  (157) 
5.26781

>  <i_epik_Tot_Q>  (157) 
1

>  <i_epik_Tot_abs_Q>  (157) 
1

>  <s_lp_Force_Field>  (157) 
OPLS3e

>  <r_lp_Energy>  (157) 
24.5308

>  <b_lp_Chiralities_Consistent>  (157) 
1

>  <s_lp_Variant>  (157) 
45:0-2

>  <s_i_glide_gridfile>  (157) 
pfpi4k_grid

>  <i_i_glide_lignum>  (157) 
22

>  <i_i_glide_rotatable_bonds>  (157) 
1

>  <r_i_docking_score>  (157) 
-3.3945

>  <r_i_glide_ligand_efficiency>  (157) 
-0.212156

>  <r_i_glide_ligand_efficiency_sa>  (157) 
-0.5346

>  <r_i_glide_ligand_efficiency_ln>  (157) 
-0.899779

>  <r_i_glide_gscore>  (157) 
-3.3945

>  <r_i_glide_lipo>  (157) 
-0.344489

>  <r_i_glide_hbond>  (157) 
0

>  <r_i_glide_metal>  (157) 
-0

>  <r_i_glide_rewards>  (157) 
-1.96209

>  <r_i_glide_evdw>  (157) 
-19.6221

>  <r_i_glide_ecoul>  (157) 
-2.96052

>  <r_i_glide_erotb>  (157) 
0.369738

>  <r_i_glide_esite>  (157) 
-0.0324761

>  <r_i_glide_emodel>  (157) 
-29.5409

>  <r_i_glide_energy>  (157) 
-22.5826

>  <r_i_glide_einternal>  (157) 
0.0320938

>  <r_i_glide_intrahb_reward>  (157) 
-0

>  <i_i_glide_confnum>  (157) 
1

>  <i_i_glide_posenum>  (157) 
3

>  <r_i_glide_eff_state_penalty>  (157) 
0

>  <ligand_id>  (157) 
45

>  <original_smiles>  (157) 
Nc1ccc2nc(-c3ccncc3)oc2c1

>  <smiles>  (157) 
[H]c1c(N([H])[H])c([H])c2oc(-c3c([H])c([H])[n+]([H])c([H])c3[H])nc2c1[H]

$$$$
45:1:2
     RDKit          3D

 26 28  0  0  1  0  0  0  0  0999 V2000
    0.0705    1.7444    1.9468 N   0  0  0  0  0  0  0  0  0  0  0  0
   -0.3431    1.7011    3.2762 C   0  0  0  0  0  0  0  0  0  0  0  0
   -0.6193    0.4572    3.8932 C   0  0  0  0  0  0  0  0  0  0  0  0
   -1.0048    0.3929    5.2500 C   0  0  0  0  0  0  0  0  0  0  0  0
   -1.1225    1.5754    6.0090 C   0  0  0  0  0  0  0  0  0  0  0  0
   -1.4761    1.8036    7.3259 N   0  0  0  0  0  0  0  0  0  0  0  0
   -1.3742    3.1417    7.4421 C   0  0  0  0  0  0  0  0  0  0  0  0
   -1.6226    3.9353    8.6355 C   0  0  0  0  0  0  0  0  0  0  0  0
   -1.2448    5.2982    8.6984 C   0  0  0  0  0  0  0  0  0  0  0  0
   -1.5084    6.0287    9.8720 C   0  0  0  0  0  0  0  0  0  0  0  0
   -2.1124    5.4177   10.9124 N   0  0  0  0  0  0  0  0  0  0  0  0
   -2.4958    4.1228   10.8922 C   0  0  0  0  0  0  0  0  0  0  0  0
   -2.2606    3.3439    9.7487 C   0  0  0  0  0  0  0  0  0  0  0  0
   -1.0080    3.8140    6.3021 O   0  0  0  0  0  0  0  0  0  0  0  0
   -0.8427    2.8036    5.3725 C   0  0  0  0  0  0  0  0  0  0  0  0
   -0.4625    2.8902    4.0225 C   0  0  0  0  0  0  0  0  0  0  0  0
    0.0813    0.9318    1.3413 H   0  0  0  0  0  0  0  0  0  0  0  0
    0.1891    2.6384    1.4676 H   0  0  0  0  0  0  0  0  0  0  0  0
   -0.5174   -0.4433    3.3245 H   0  0  0  0  0  0  0  0  0  0  0  0
   -1.1948   -0.5643    5.7029 H   0  0  0  0  0  0  0  0  0  0  0  0
   -0.7483    5.7743    7.8650 H   0  0  0  0  0  0  0  0  0  0  0  0
   -1.2517    7.0697   10.0086 H   0  0  0  0  0  0  0  0  0  0  0  0
   -2.9819    3.7482   11.7751 H   0  0  0  0  0  0  0  0  0  0  0  0
   -2.5623    2.3082    9.7336 H   0  0  0  0  0  0  0  0  0  0  0  0
   -0.2508    3.8456    3.5607 H   0  0  0  0  0  0  0  0  0  0  0  0
   -2.2948    5.9573   11.7592 H   0  0  0  0  0  0  0  0  0  0  0  0
  1  2  1  0
  1 17  1  0
  1 18  1  0
  2 16  2  0
  2  3  1  0
  3  4  2  0
  3 19  1  0
  4  5  1  0
  4 20  1  0
  5 15  2  0
  5  6  1  0
  6  7  2  0
  7  8  1  0
  7 14  1  0
  8 13  1  0
  8  9  2  0
  9 10  1  0
  9 21  1  0
 10 11  2  0
 10 22  1  0
 11 12  1  0
 11 26  1  0
 12 13  2  0
 12 23  1  0
 13 24  1  0
 14 15  1  0
 15 16  1  0
 16 25  1  0
M  CHG  1  11   1
M  END
>  <i_m_ct_stereo_status>  (158) 
1

>  <s_m_source_file>  (158) 
/var/tmp/pbs.5076255.sched01/tmp2pvlagj1/41_74nrqse.sdf

>  <i_m_source_file_index>  (158) 
22

>  <i_lp_mmshare_version>  (158) 
48012

>  <i_f3d_flags>  (158) 
0

>  <s_epik_input>  (158) 
W2NIXTFbY0hdYyhbTkgyXSlbY0hdYyhjMTIpb2MobjIpLWMzW2NIXVtjSF1uW2NIXVtjSF0z

>  <s_epik_cmdline>  (158) 
J2VwaWtfcHl0aG9uJywgJy1waHQnLCAnMi4wJywgJy1waCcsICc3LjAnLCAnLXRuJywgJzgnLCAnLW1hJywgJzIwMCcsICctaW1hZScsICc8aW5maWxlLm1hZT4nLCAnLW9tYWUnLCAnPG91dGZpbGUubWFlPic=

>  <r_epik_Ionization_Penalty>  (158) 
2.54966

>  <r_epik_Ionization_Penalty_Charging>  (158) 
2.54966

>  <r_epik_Ionization_Penalty_Neutral>  (158) 
1.43198e-06

>  <r_epik_State_Penalty>  (158) 
2.71815

>  <r_epik_Charging_Adjusted_Penalty>  (158) 
5.26781

>  <i_epik_Tot_Q>  (158) 
1

>  <i_epik_Tot_abs_Q>  (158) 
1

>  <s_lp_Force_Field>  (158) 
OPLS3e

>  <r_lp_Energy>  (158) 
24.5308

>  <b_lp_Chiralities_Consistent>  (158) 
1

>  <s_lp_Variant>  (158) 
45:0-2

>  <s_i_glide_gridfile>  (158) 
pfpi4k_grid

>  <i_i_glide_lignum>  (158) 
22

>  <i_i_glide_rotatable_bonds>  (158) 
1

>  <r_i_docking_score>  (158) 
-3.39366

>  <r_i_glide_ligand_efficiency>  (158) 
-0.212104

>  <r_i_glide_ligand_efficiency_sa>  (158) 
-0.534468

>  <r_i_glide_ligand_efficiency_ln>  (158) 
-0.899558

>  <r_i_glide_gscore>  (158) 
-3.39366

>  <r_i_glide_lipo>  (158) 
-0.029418

>  <r_i_glide_hbond>  (158) 
-0.16

>  <r_i_glide_metal>  (158) 
-0

>  <r_i_glide_rewards>  (158) 
-1.96209

>  <r_i_glide_evdw>  (158) 
-15.4801

>  <r_i_glide_ecoul>  (158) 
-5.01202

>  <r_i_glide_erotb>  (158) 
0.369738

>  <r_i_glide_esite>  (158) 
-0.0860858

>  <r_i_glide_emodel>  (158) 
-27.3872

>  <r_i_glide_energy>  (158) 
-20.4922

>  <r_i_glide_einternal>  (158) 
0.128587

>  <r_i_glide_intrahb_reward>  (158) 
-0

>  <i_i_glide_confnum>  (158) 
1

>  <i_i_glide_posenum>  (158) 
39

>  <r_i_glide_eff_state_penalty>  (158) 
0

>  <ligand_id>  (158) 
45

>  <original_smiles>  (158) 
Nc1ccc2nc(-c3ccncc3)oc2c1

>  <smiles>  (158) 
[H]c1c(N([H])[H])c([H])c2oc(-c3c([H])c([H])[n+]([H])c([H])c3[H])nc2c1[H]

$$$$
46:0:0
     RDKit          3D

 64 69  0  0  1  0  0  0  0  0999 V2000
    5.0375   -1.3451   -1.8494 C   0  0  0  0  0  0  0  0  0  0  0  0
    4.8661   -2.1563   -0.5425 C   0  0  2  0  0  0  0  0  0  0  0  0
    3.4255   -1.9005   -0.0336 C   0  0  0  0  0  0  0  0  0  0  0  0
    3.3116   -1.6098    1.3513 O   0  0  0  0  0  0  0  0  0  0  0  0
    4.1493   -2.3590    2.2104 C   0  0  2  0  0  0  0  0  0  0  0  0
    5.5939   -1.8889    1.9307 C   0  0  0  0  0  0  0  0  0  0  0  0
    5.9741   -1.7650    0.4410 C   0  0  1  0  0  0  0  0  0  0  0  0
    7.1042   -2.6985    0.0410 C   0  0  0  0  0  0  0  0  0  0  0  0
    8.2797   -2.5264    0.3446 O   0  0  0  0  0  0  0  0  0  0  0  0
    6.6124   -3.6860   -0.6974 O   0  0  0  0  0  0  0  0  0  0  0  0
    5.2002   -3.6411   -0.8473 C   0  0  1  0  0  0  0  0  0  0  0  0
    4.5175   -4.7977   -0.0543 C   0  0  0  0  0  0  0  0  0  0  0  0
    4.6429   -4.9183    1.5020 C   0  0  2  0  0  0  0  0  0  0  0  0
    5.9914   -4.7158    1.9079 O   0  0  0  0  0  0  0  0  0  0  0  0
    6.7818   -5.8707    1.6732 C   0  0  0  0  0  0  0  0  0  0  0  0
    5.7969   -7.0315    1.6875 C   0  0  0  0  0  0  0  0  0  0  0  0
    4.4377   -6.4020    1.8732 C   0  0  0  0  0  0  0  0  0  0  0  0
    3.3782   -7.0765    2.4048 C   0  0  0  0  0  0  0  0  0  0  0  0
    3.4819   -8.5906    2.6455 C   0  0  0  0  0  0  0  0  0  0  0  0
    2.3054   -9.3873    2.0750 C   0  0  0  0  0  0  0  0  0  0  0  0
    0.9390   -8.7068    2.2482 C   0  0  1  0  0  0  0  0  0  0  0  0
   -0.0372   -9.6841    2.5595 O   0  0  0  0  0  0  0  0  0  0  0  0
    0.9160   -7.5043    3.2304 C   0  0  0  0  0  0  0  0  0  0  0  0
   -0.5121   -6.9062    3.1804 C   0  0  0  0  0  0  0  0  0  0  0  0
    1.1160   -7.9717    4.7014 C   0  0  0  0  0  0  0  0  0  0  0  0
    2.0095   -6.4501    2.7512 C   0  0  2  0  0  0  0  0  0  0  0  0
    1.4980   -5.8862    1.5502 O   0  0  0  0  0  0  0  0  0  0  0  0
    2.1585   -5.2760    3.7696 C   0  0  0  0  0  0  0  0  0  0  0  0
    3.3937   -4.3556    3.6781 C   0  0  0  0  0  0  0  0  0  0  0  0
    3.7409   -3.8794    2.2529 C   0  0  1  0  0  0  0  0  0  0  0  0
    4.2933   -1.6260   -2.5949 H   0  0  0  0  0  0  0  0  0  0  0  0
    6.0184   -1.5026   -2.2965 H   0  0  0  0  0  0  0  0  0  0  0  0
    4.9286   -0.2742   -1.6665 H   0  0  0  0  0  0  0  0  0  0  0  0
    3.0108   -1.0343   -0.5456 H   0  0  0  0  0  0  0  0  0  0  0  0
    2.7660   -2.7278   -0.2904 H   0  0  0  0  0  0  0  0  0  0  0  0
    3.9211   -1.9333    3.1878 H   0  0  0  0  0  0  0  0  0  0  0  0
    5.6813   -0.8781    2.3300 H   0  0  0  0  0  0  0  0  0  0  0  0
    6.3123   -2.4640    2.5084 H   0  0  0  0  0  0  0  0  0  0  0  0
    6.3144   -0.7491    0.2518 H   0  0  0  0  0  0  0  0  0  0  0  0
    4.9685   -3.8271   -1.8993 H   0  0  0  0  0  0  0  0  0  0  0  0
    3.4610   -4.8453   -0.3245 H   0  0  0  0  0  0  0  0  0  0  0  0
    4.9318   -5.7018   -0.5003 H   0  0  0  0  0  0  0  0  0  0  0  0
    7.2852   -5.7967    0.7100 H   0  0  0  0  0  0  0  0  0  0  0  0
    7.5467   -5.9623    2.4450 H   0  0  0  0  0  0  0  0  0  0  0  0
    5.8145   -7.5699    0.7416 H   0  0  0  0  0  0  0  0  0  0  0  0
    6.0565   -7.7263    2.4854 H   0  0  0  0  0  0  0  0  0  0  0  0
    4.3752   -9.0298    2.2085 H   0  0  0  0  0  0  0  0  0  0  0  0
    3.5819   -8.7752    3.7103 H   0  0  0  0  0  0  0  0  0  0  0  0
    2.4693   -9.5429    1.0064 H   0  0  0  0  0  0  0  0  0  0  0  0
    2.3090  -10.3881    2.5111 H   0  0  0  0  0  0  0  0  0  0  0  0
    0.6559   -8.3100    1.2797 H   0  0  0  0  0  0  0  0  0  0  0  0
   -0.1530  -10.2329    1.7950 H   0  0  0  0  0  0  0  0  0  0  0  0
   -0.5767   -5.9938    3.7720 H   0  0  0  0  0  0  0  0  0  0  0  0
   -1.2516   -7.6000    3.5831 H   0  0  0  0  0  0  0  0  0  0  0  0
   -0.8229   -6.6790    2.1600 H   0  0  0  0  0  0  0  0  0  0  0  0
    0.6311   -7.2888    5.4019 H   0  0  0  0  0  0  0  0  0  0  0  0
    2.1595   -8.0149    5.0036 H   0  0  0  0  0  0  0  0  0  0  0  0
    0.6822   -8.9576    4.8805 H   0  0  0  0  0  0  0  0  0  0  0  0
    2.2083   -5.4063    1.1547 H   0  0  0  0  0  0  0  0  0  0  0  0
    1.2631   -4.6573    3.7249 H   0  0  0  0  0  0  0  0  0  0  0  0
    2.1796   -5.6614    4.7864 H   0  0  0  0  0  0  0  0  0  0  0  0
    3.1643   -3.5095    4.3229 H   0  0  0  0  0  0  0  0  0  0  0  0
    4.2619   -4.8259    4.1366 H   0  0  0  0  0  0  0  0  0  0  0  0
    2.7800   -3.8596    1.7476 H   0  0  0  0  0  0  0  0  0  0  0  0
  2  1  1  6
  1 31  1  0
  1 32  1  0
  1 33  1  0
  2  7  1  0
  2 11  1  0
  2  3  1  0
  3  4  1  0
  3 34  1  0
  3 35  1  0
  4  5  1  0
  5 30  1  0
  5  6  1  0
  5 36  1  1
  6  7  1  0
  6 37  1  0
  6 38  1  0
  7  8  1  0
  7 39  1  6
  8  9  2  0
  8 10  1  0
 10 11  1  0
 11 12  1  0
 11 40  1  6
 12 13  1  0
 12 41  1  0
 12 42  1  0
 13 17  1  0
 13 30  1  0
 13 14  1  6
 14 15  1  0
 15 16  1  0
 15 43  1  0
 15 44  1  0
 16 17  1  0
 16 45  1  0
 16 46  1  0
 17 18  2  0
 18 26  1  0
 18 19  1  0
 19 20  1  0
 19 47  1  0
 19 48  1  0
 20 21  1  0
 20 49  1  0
 20 50  1  0
 21 22  1  0
 21 23  1  0
 21 51  1  6
 22 52  1  0
 23 24  1  0
 23 25  1  0
 23 26  1  0
 24 53  1  0
 24 54  1  0
 24 55  1  0
 25 56  1  0
 25 57  1  0
 25 58  1  0
 26 27  1  6
 26 28  1  0
 27 59  1  0
 28 29  1  0
 28 60  1  0
 28 61  1  0
 29 30  1  0
 29 62  1  0
 29 63  1  0
 30 64  1  6
M  END
>  <i_m_ct_stereo_status>  (159) 
1

>  <s_m_source_file>  (159) 
/var/tmp/pbs.5076255.sched01/tmp2pvlagj1/41_74nrqse.sdf

>  <i_m_source_file_index>  (159) 
23

>  <i_lp_mmshare_version>  (159) 
48012

>  <i_f3d_flags>  (159) 
0

>  <s_epik_input>  (159) 
W0NIMl0xW0NAQEhdMk9DKD1PKVtDQEhdKFtDSDJdMylbQ0BdMihbQ0gzXSlbQ0gyXU9bQ0BIXTNbQ0BASF00W0NIMl1bQ0gyXVtDQEBdKFtPSF0pKEM1PUMoW0NAQF0xNDYpW0NIMl1bQ0gyXU82KUMoW0NIM10pKFtDSDNdKVtDQEhdKFtPSF0pW0NIMl1bQ0gyXTU=

>  <s_epik_cmdline>  (159) 
J2VwaWtfcHl0aG9uJywgJy1waHQnLCAnMi4wJywgJy1waCcsICc3LjAnLCAnLXRuJywgJzgnLCAnLW1hJywgJzIwMCcsICctaW1hZScsICc8aW5maWxlLm1hZT4nLCAnLW9tYWUnLCAnPG91dGZpbGUubWFlPic=

>  <r_lp_tautomer_probability>  (159) 
1

>  <r_epik_Ionization_Penalty>  (159) 
2.46792e-07

>  <r_epik_Ionization_Penalty_Charging>  (159) 
0

>  <r_epik_Ionization_Penalty_Neutral>  (159) 
2.46792e-07

>  <r_epik_State_Penalty>  (159) 
-0

>  <r_epik_Charging_Adjusted_Penalty>  (159) 
0

>  <i_epik_Tot_Q>  (159) 
0

>  <i_epik_Tot_abs_Q>  (159) 
0

>  <s_epik_Chemistry_Notes>  (159) 
This compound has an ester and may undergo hydrolysis at high or low pH.

>  <s_lp_Force_Field>  (159) 
OPLS3e

>  <r_lp_Energy>  (159) 
65.9807

>  <b_lp_Chiralities_Consistent>  (159) 
1

>  <s_lp_Variant>  (159) 
46:0-1

>  <s_i_glide_gridfile>  (159) 
pfpi4k_grid

>  <i_i_glide_lignum>  (159) 
23

>  <i_i_glide_rotatable_bonds>  (159) 
2

>  <r_i_docking_score>  (159) 
-3.66439

>  <r_i_glide_ligand_efficiency>  (159) 
-0.122146

>  <r_i_glide_ligand_efficiency_sa>  (159) 
-0.379537

>  <r_i_glide_ligand_efficiency_ln>  (159) 
-0.832589

>  <r_i_glide_gscore>  (159) 
-3.66439

>  <r_i_glide_lipo>  (159) 
-0.502478

>  <r_i_glide_hbond>  (159) 
-0.245006

>  <r_i_glide_metal>  (159) 
-0

>  <r_i_glide_rewards>  (159) 
-0.651968

>  <r_i_glide_evdw>  (159) 
-32.1138

>  <r_i_glide_ecoul>  (159) 
-4.39496

>  <r_i_glide_erotb>  (159) 
0

>  <r_i_glide_esite>  (159) 
0

>  <r_i_glide_emodel>  (159) 
-44.1635

>  <r_i_glide_energy>  (159) 
-36.5088

>  <r_i_glide_einternal>  (159) 
0.590706

>  <r_i_glide_intrahb_reward>  (159) 
-0

>  <i_i_glide_confnum>  (159) 
1

>  <i_i_glide_posenum>  (159) 
1

>  <r_i_glide_eff_state_penalty>  (159) 
0

>  <ligand_id>  (159) 
46

>  <original_smiles>  (159) 
CC12COC3CC1C(=O)OC2CC12OCCC1=C1CCC(O)C(C)(C)C1(O)CCC32

>  <smiles>  (159) 
[H]OC1([H])C([H])([H])C([H])([H])C2=C3C([H])([H])C([H])([H])OC34C([H])([H])C3([H])OC(=O)C5([H])C([H])([H])C([H])(OC([H])([H])C35C([H])([H])[H])C4([H])C([H])([H])C([H])([H])C2(O[H])C1(C([H])([H])[H])C([H])([H])[H]

$$$$
46:0:1
     RDKit          3D

 64 69  0  0  1  0  0  0  0  0999 V2000
    4.5819   -1.4129   -1.3588 C   0  0  0  0  0  0  0  0  0  0  0  0
    4.4642   -2.3114   -0.1007 C   0  0  2  0  0  0  0  0  0  0  0  0
    3.0836   -2.0339    0.5533 C   0  0  0  0  0  0  0  0  0  0  0  0
    3.1025   -1.8393    1.9594 O   0  0  0  0  0  0  0  0  0  0  0  0
    3.9726   -2.6881    2.6843 C   0  0  2  0  0  0  0  0  0  0  0  0
    5.4134   -2.2689    2.3146 C   0  0  0  0  0  0  0  0  0  0  0  0
    5.6719   -2.0527    0.8090 C   0  0  1  0  0  0  0  0  0  0  0  0
    6.7113   -3.0080    0.2472 C   0  0  0  0  0  0  0  0  0  0  0  0
    7.9167   -2.9226    0.4660 O   0  0  0  0  0  0  0  0  0  0  0  0
    6.1055   -3.9097   -0.5174 O   0  0  0  0  0  0  0  0  0  0  0  0
    4.6902   -3.7848   -0.5374 C   0  0  1  0  0  0  0  0  0  0  0  0
    4.0158   -4.9640    0.2290 C   0  0  0  0  0  0  0  0  0  0  0  0
    4.2622   -5.2076    1.7567 C   0  0  2  0  0  0  0  0  0  0  0  0
    5.6478   -5.0999    2.0600 O   0  0  0  0  0  0  0  0  0  0  0  0
    6.3536   -6.2699    1.6762 C   0  0  0  0  0  0  0  0  0  0  0  0
    5.3138   -7.3816    1.6849 C   0  0  0  0  0  0  0  0  0  0  0  0
    4.0097   -6.7048    2.0384 C   0  0  0  0  0  0  0  0  0  0  0  0
    2.9656   -7.3654    2.6209 C   0  0  0  0  0  0  0  0  0  0  0  0
    3.0071   -8.8943    2.7525 C   0  0  0  0  0  0  0  0  0  0  0  0
    1.7448   -9.5890    2.2358 C   0  0  0  0  0  0  0  0  0  0  0  0
    0.4258   -8.8730    2.5708 C   0  0  1  0  0  0  0  0  0  0  0  0
   -0.5833   -9.8198    2.8757 O   0  0  0  0  0  0  0  0  0  0  0  0
    0.5496   -7.7345    3.6223 C   0  0  0  0  0  0  0  0  0  0  0  0
   -0.8433   -7.0570    3.7377 C   0  0  0  0  0  0  0  0  0  0  0  0
    0.8510   -8.3134    5.0369 C   0  0  0  0  0  0  0  0  0  0  0  0
    1.6640   -6.7041    3.1261 C   0  0  2  0  0  0  0  0  0  0  0  0
    1.0986   -6.0330    2.0110 O   0  0  0  0  0  0  0  0  0  0  0  0
    1.9589   -5.6121    4.2039 C   0  0  0  0  0  0  0  0  0  0  0  0
    3.2311   -4.7471    4.0702 C   0  0  0  0  0  0  0  0  0  0  0  0
    3.4845   -4.1856    2.6558 C   0  0  1  0  0  0  0  0  0  0  0  0
    3.7636   -1.6010   -2.0543 H   0  0  0  0  0  0  0  0  0  0  0  0
    5.5141   -1.5756   -1.9020 H   0  0  0  0  0  0  0  0  0  0  0  0
    4.5453   -0.3558   -1.0907 H   0  0  0  0  0  0  0  0  0  0  0  0
    2.6526   -1.1203    0.1472 H   0  0  0  0  0  0  0  0  0  0  0  0
    2.3693   -2.8155    0.3018 H   0  0  0  0  0  0  0  0  0  0  0  0
    3.8463   -2.3242    3.7042 H   0  0  0  0  0  0  0  0  0  0  0  0
    5.5797   -1.2932    2.7718 H   0  0  0  0  0  0  0  0  0  0  0  0
    6.1531   -2.9090    2.7945 H   0  0  0  0  0  0  0  0  0  0  0  0
    6.0505   -1.0442    0.6615 H   0  0  0  0  0  0  0  0  0  0  0  0
    4.3634   -3.8836   -1.5753 H   0  0  0  0  0  0  0  0  0  0  0  0
    2.9410   -4.9422    0.0457 H   0  0  0  0  0  0  0  0  0  0  0  0
    4.3421   -5.8519   -0.3118 H   0  0  0  0  0  0  0  0  0  0  0  0
    6.7803   -6.1456    0.6816 H   0  0  0  0  0  0  0  0  0  0  0  0
    7.1721   -6.4591    2.3715 H   0  0  0  0  0  0  0  0  0  0  0  0
    5.2373   -7.8448    0.7005 H   0  0  0  0  0  0  0  0  0  0  0  0
    5.5994   -8.1460    2.4072 H   0  0  0  0  0  0  0  0  0  0  0  0
    3.8333   -9.3414    2.2048 H   0  0  0  0  0  0  0  0  0  0  0  0
    3.1900   -9.1609    3.7885 H   0  0  0  0  0  0  0  0  0  0  0  0
    1.8200   -9.6612    1.1506 H   0  0  0  0  0  0  0  0  0  0  0  0
    1.7341  -10.6212    2.5889 H   0  0  0  0  0  0  0  0  0  0  0  0
    0.0827   -8.4087    1.6489 H   0  0  0  0  0  0  0  0  0  0  0  0
   -0.4272  -10.1870    3.7385 H   0  0  0  0  0  0  0  0  0  0  0  0
   -0.8204   -6.1837    4.3870 H   0  0  0  0  0  0  0  0  0  0  0  0
   -1.5835   -7.7436    4.1551 H   0  0  0  0  0  0  0  0  0  0  0  0
   -1.2243   -6.7499    2.7645 H   0  0  0  0  0  0  0  0  0  0  0  0
    0.4677   -7.6591    5.8228 H   0  0  0  0  0  0  0  0  0  0  0  0
    1.9136   -8.4263    5.2406 H   0  0  0  0  0  0  0  0  0  0  0  0
    0.3863   -9.2881    5.1943 H   0  0  0  0  0  0  0  0  0  0  0  0
    1.8110   -5.5682    1.6011 H   0  0  0  0  0  0  0  0  0  0  0  0
    1.0971   -4.9493    4.2808 H   0  0  0  0  0  0  0  0  0  0  0  0
    2.0445   -6.0706    5.1863 H   0  0  0  0  0  0  0  0  0  0  0  0
    3.1017   -3.9404    4.7897 H   0  0  0  0  0  0  0  0  0  0  0  0
    4.1077   -5.2904    4.4189 H   0  0  0  0  0  0  0  0  0  0  0  0
    2.4865   -4.0810    2.2395 H   0  0  0  0  0  0  0  0  0  0  0  0
  2  1  1  6
  1 31  1  0
  1 32  1  0
  1 33  1  0
  2  7  1  0
  2 11  1  0
  2  3  1  0
  3  4  1  0
  3 34  1  0
  3 35  1  0
  4  5  1  0
  5 30  1  0
  5  6  1  0
  5 36  1  1
  6  7  1  0
  6 37  1  0
  6 38  1  0
  7  8  1  0
  7 39  1  1
  8  9  2  0
  8 10  1  0
 10 11  1  0
 11 12  1  0
 11 40  1  6
 12 13  1  0
 12 41  1  0
 12 42  1  0
 13 17  1  0
 13 30  1  0
 13 14  1  6
 14 15  1  0
 15 16  1  0
 15 43  1  0
 15 44  1  0
 16 17  1  0
 16 45  1  0
 16 46  1  0
 17 18  2  0
 18 26  1  0
 18 19  1  0
 19 20  1  0
 19 47  1  0
 19 48  1  0
 20 21  1  0
 20 49  1  0
 20 50  1  0
 21 22  1  0
 21 23  1  0
 21 51  1  6
 22 52  1  0
 23 24  1  0
 23 25  1  0
 23 26  1  0
 24 53  1  0
 24 54  1  0
 24 55  1  0
 25 56  1  0
 25 57  1  0
 25 58  1  0
 26 27  1  6
 26 28  1  0
 27 59  1  0
 28 29  1  0
 28 60  1  0
 28 61  1  0
 29 30  1  0
 29 62  1  0
 29 63  1  0
 30 64  1  6
M  END
>  <i_m_ct_stereo_status>  (160) 
1

>  <s_m_source_file>  (160) 
/var/tmp/pbs.5076255.sched01/tmp2pvlagj1/41_74nrqse.sdf

>  <i_m_source_file_index>  (160) 
23

>  <i_lp_mmshare_version>  (160) 
48012

>  <i_f3d_flags>  (160) 
0

>  <s_epik_input>  (160) 
W0NIMl0xW0NAQEhdMk9DKD1PKVtDQEhdKFtDSDJdMylbQ0BdMihbQ0gzXSlbQ0gyXU9bQ0BIXTNbQ0BASF00W0NIMl1bQ0gyXVtDQEBdKFtPSF0pKEM1PUMoW0NAQF0xNDYpW0NIMl1bQ0gyXU82KUMoW0NIM10pKFtDSDNdKVtDQEhdKFtPSF0pW0NIMl1bQ0gyXTU=

>  <s_epik_cmdline>  (160) 
J2VwaWtfcHl0aG9uJywgJy1waHQnLCAnMi4wJywgJy1waCcsICc3LjAnLCAnLXRuJywgJzgnLCAnLW1hJywgJzIwMCcsICctaW1hZScsICc8aW5maWxlLm1hZT4nLCAnLW9tYWUnLCAnPG91dGZpbGUubWFlPic=

>  <r_lp_tautomer_probability>  (160) 
1

>  <r_epik_Ionization_Penalty>  (160) 
2.46792e-07

>  <r_epik_Ionization_Penalty_Charging>  (160) 
0

>  <r_epik_Ionization_Penalty_Neutral>  (160) 
2.46792e-07

>  <r_epik_State_Penalty>  (160) 
-0

>  <r_epik_Charging_Adjusted_Penalty>  (160) 
0

>  <i_epik_Tot_Q>  (160) 
0

>  <i_epik_Tot_abs_Q>  (160) 
0

>  <s_epik_Chemistry_Notes>  (160) 
This compound has an ester and may undergo hydrolysis at high or low pH.

>  <s_lp_Force_Field>  (160) 
OPLS3e

>  <r_lp_Energy>  (160) 
65.9807

>  <b_lp_Chiralities_Consistent>  (160) 
1

>  <s_lp_Variant>  (160) 
46:0-1

>  <s_i_glide_gridfile>  (160) 
pfpi4k_grid

>  <i_i_glide_lignum>  (160) 
23

>  <i_i_glide_rotatable_bonds>  (160) 
2

>  <r_i_docking_score>  (160) 
-3.23462

>  <r_i_glide_ligand_efficiency>  (160) 
-0.107821

>  <r_i_glide_ligand_efficiency_sa>  (160) 
-0.335023

>  <r_i_glide_ligand_efficiency_ln>  (160) 
-0.73494

>  <r_i_glide_gscore>  (160) 
-3.23462

>  <r_i_glide_lipo>  (160) 
-0.432432

>  <r_i_glide_hbond>  (160) 
-0.0725046

>  <r_i_glide_metal>  (160) 
-0

>  <r_i_glide_rewards>  (160) 
-0.690812

>  <r_i_glide_evdw>  (160) 
-31.5235

>  <r_i_glide_ecoul>  (160) 
-3.08463

>  <r_i_glide_erotb>  (160) 
0

>  <r_i_glide_esite>  (160) 
0

>  <r_i_glide_emodel>  (160) 
-41.5069

>  <r_i_glide_energy>  (160) 
-34.6081

>  <r_i_glide_einternal>  (160) 
0.2345

>  <r_i_glide_intrahb_reward>  (160) 
-0

>  <i_i_glide_confnum>  (160) 
1

>  <i_i_glide_posenum>  (160) 
32

>  <r_i_glide_eff_state_penalty>  (160) 
0

>  <ligand_id>  (160) 
46

>  <original_smiles>  (160) 
CC12COC3CC1C(=O)OC2CC12OCCC1=C1CCC(O)C(C)(C)C1(O)CCC32

>  <smiles>  (160) 
[H]OC1([H])C([H])([H])C([H])([H])C2=C3C([H])([H])C([H])([H])OC34C([H])([H])C3([H])OC(=O)C5([H])C([H])([H])C([H])(OC([H])([H])C35C([H])([H])[H])C4([H])C([H])([H])C([H])([H])C2(O[H])C1(C([H])([H])[H])C([H])([H])[H]

$$$$
46:0:2
     RDKit          3D

 64 69  0  0  1  0  0  0  0  0999 V2000
    4.4981   -2.7358   -2.2490 C   0  0  0  0  0  0  0  0  0  0  0  0
    4.2172   -3.2911   -0.8270 C   0  0  2  0  0  0  0  0  0  0  0  0
    2.6856   -3.3744   -0.6475 C   0  0  0  0  0  0  0  0  0  0  0  0
    2.2196   -2.8541    0.5838 O   0  0  0  0  0  0  0  0  0  0  0  0
    2.9790   -3.1471    1.7356 C   0  0  2  0  0  0  0  0  0  0  0  0
    4.2958   -2.3523    1.5989 C   0  0  0  0  0  0  0  0  0  0  0  0
    4.9502   -2.4166    0.2041 C   0  0  1  0  0  0  0  0  0  0  0  0
    6.3229   -3.0518    0.2369 C   0  0  0  0  0  0  0  0  0  0  0  0
    7.3293   -2.4895    0.6633 O   0  0  0  0  0  0  0  0  0  0  0  0
    6.2580   -4.2689   -0.2933 O   0  0  0  0  0  0  0  0  0  0  0  0
    4.9446   -4.6510   -0.6825 C   0  0  1  0  0  0  0  0  0  0  0  0
    4.3894   -5.7729    0.2481 C   0  0  0  0  0  0  0  0  0  0  0  0
    4.1829   -5.5472    1.7802 C   0  0  2  0  0  0  0  0  0  0  0  0
    5.3159   -4.8996    2.3436 O   0  0  0  0  0  0  0  0  0  0  0  0
    6.3863   -5.8079    2.5381 C   0  0  0  0  0  0  0  0  0  0  0  0
    5.7290   -7.1744    2.6715 C   0  0  0  0  0  0  0  0  0  0  0  0
    4.2519   -6.9301    2.4658 C   0  0  0  0  0  0  0  0  0  0  0  0
    3.2820   -7.7505    2.9613 C   0  0  0  0  0  0  0  0  0  0  0  0
    3.6710   -9.0933    3.5983 C   0  0  0  0  0  0  0  0  0  0  0  0
    2.8765  -10.2865    3.0563 C   0  0  0  0  0  0  0  0  0  0  0  0
    1.3811  -10.0075    2.8333 C   0  0  1  0  0  0  0  0  0  0  0  0
    0.6211  -11.1345    3.2369 O   0  0  0  0  0  0  0  0  0  0  0  0
    0.8578   -8.6729    3.4445 C   0  0  0  0  0  0  0  0  0  0  0  0
   -0.6241   -8.5072    3.0029 C   0  0  0  0  0  0  0  0  0  0  0  0
    0.8229   -8.7610    5.0011 C   0  0  0  0  0  0  0  0  0  0  0  0
    1.7620   -7.4702    2.9130 C   0  0  2  0  0  0  0  0  0  0  0  0
    1.4040   -7.3126    1.5468 O   0  0  0  0  0  0  0  0  0  0  0  0
    1.3994   -6.1251    3.6192 C   0  0  0  0  0  0  0  0  0  0  0  0
    2.3738   -4.9326    3.5079 C   0  0  0  0  0  0  0  0  0  0  0  0
    2.9215   -4.6765    2.0879 C   0  0  1  0  0  0  0  0  0  0  0  0
    4.0334   -3.3583   -3.0137 H   0  0  0  0  0  0  0  0  0  0  0  0
    5.5655   -2.6852   -2.4746 H   0  0  0  0  0  0  0  0  0  0  0  0
    4.0973   -1.7269   -2.3593 H   0  0  0  0  0  0  0  0  0  0  0  0
    2.1889   -2.7981   -1.4276 H   0  0  0  0  0  0  0  0  0  0  0  0
    2.3217   -4.3878   -0.7817 H   0  0  0  0  0  0  0  0  0  0  0  0
    2.4292   -2.6132    2.5091 H   0  0  0  0  0  0  0  0  0  0  0  0
    4.0347   -1.3007    1.7314 H   0  0  0  0  0  0  0  0  0  0  0  0
    4.9846   -2.5491    2.4230 H   0  0  0  0  0  0  0  0  0  0  0  0
    5.0759   -1.4092   -0.1774 H   0  0  0  0  0  0  0  0  0  0  0  0
    5.0106   -5.0952   -1.6793 H   0  0  0  0  0  0  0  0  0  0  0  0
    3.4609   -6.1637   -0.1690 H   0  0  0  0  0  0  0  0  0  0  0  0
    5.0880   -6.5957    0.1168 H   0  0  0  0  0  0  0  0  0  0  0  0
    7.0645   -5.7826    1.6851 H   0  0  0  0  0  0  0  0  0  0  0  0
    6.9517   -5.5317    3.4280 H   0  0  0  0  0  0  0  0  0  0  0  0
    6.1028   -7.8525    1.9028 H   0  0  0  0  0  0  0  0  0  0  0  0
    5.9522   -7.5968    3.6522 H   0  0  0  0  0  0  0  0  0  0  0  0
    4.7161   -9.3387    3.4420 H   0  0  0  0  0  0  0  0  0  0  0  0
    3.5707   -9.0263    4.6778 H   0  0  0  0  0  0  0  0  0  0  0  0
    3.3090  -10.5908    2.1017 H   0  0  0  0  0  0  0  0  0  0  0  0
    3.0261  -11.1422    3.7196 H   0  0  0  0  0  0  0  0  0  0  0  0
    1.2428   -9.9487    1.7555 H   0  0  0  0  0  0  0  0  0  0  0  0
    0.7247  -11.2626    4.1691 H   0  0  0  0  0  0  0  0  0  0  0  0
   -1.0446   -7.5522    3.3152 H   0  0  0  0  0  0  0  0  0  0  0  0
   -1.2527   -9.2847    3.4396 H   0  0  0  0  0  0  0  0  0  0  0  0
   -0.7451   -8.5881    1.9221 H   0  0  0  0  0  0  0  0  0  0  0  0
    0.0490   -8.1132    5.4187 H   0  0  0  0  0  0  0  0  0  0  0  0
    1.7501   -8.4525    5.4754 H   0  0  0  0  0  0  0  0  0  0  0  0
    0.6003   -9.7658    5.3632 H   0  0  0  0  0  0  0  0  0  0  0  0
    1.3818   -8.1733    1.1585 H   0  0  0  0  0  0  0  0  0  0  0  0
    0.4190   -5.8021    3.2700 H   0  0  0  0  0  0  0  0  0  0  0  0
    1.2750   -6.2825    4.6876 H   0  0  0  0  0  0  0  0  0  0  0  0
    1.8115   -4.0747    3.8651 H   0  0  0  0  0  0  0  0  0  0  0  0
    3.1996   -5.0419    4.2087 H   0  0  0  0  0  0  0  0  0  0  0  0
    2.1279   -5.0326    1.4370 H   0  0  0  0  0  0  0  0  0  0  0  0
  2  1  1  6
  1 31  1  0
  1 32  1  0
  1 33  1  0
  2  7  1  0
  2 11  1  0
  2  3  1  0
  3  4  1  0
  3 34  1  0
  3 35  1  0
  4  5  1  0
  5 30  1  0
  5  6  1  0
  5 36  1  1
  6  7  1  0
  6 37  1  0
  6 38  1  0
  7  8  1  0
  7 39  1  6
  8  9  2  0
  8 10  1  0
 10 11  1  0
 11 12  1  0
 11 40  1  6
 12 13  1  0
 12 41  1  0
 12 42  1  0
 13 17  1  0
 13 30  1  0
 13 14  1  1
 14 15  1  0
 15 16  1  0
 15 43  1  0
 15 44  1  0
 16 17  1  0
 16 45  1  0
 16 46  1  0
 17 18  2  0
 18 26  1  0
 18 19  1  0
 19 20  1  0
 19 47  1  0
 19 48  1  0
 20 21  1  0
 20 49  1  0
 20 50  1  0
 21 22  1  0
 21 23  1  0
 21 51  1  6
 22 52  1  0
 23 24  1  0
 23 25  1  0
 23 26  1  0
 24 53  1  0
 24 54  1  0
 24 55  1  0
 25 56  1  0
 25 57  1  0
 25 58  1  0
 26 27  1  6
 26 28  1  0
 27 59  1  0
 28 29  1  0
 28 60  1  0
 28 61  1  0
 29 30  1  0
 29 62  1  0
 29 63  1  0
 30 64  1  6
M  END
>  <i_m_ct_stereo_status>  (161) 
1

>  <s_m_source_file>  (161) 
/var/tmp/pbs.5076255.sched01/tmp2pvlagj1/41_74nrqse.sdf

>  <i_m_source_file_index>  (161) 
23

>  <i_lp_mmshare_version>  (161) 
48012

>  <i_f3d_flags>  (161) 
0

>  <s_epik_input>  (161) 
W0NIMl0xW0NAQEhdMk9DKD1PKVtDQEhdKFtDSDJdMylbQ0BdMihbQ0gzXSlbQ0gyXU9bQ0BIXTNbQ0BASF00W0NIMl1bQ0gyXVtDQEBdKFtPSF0pKEM1PUMoW0NAQF0xNDYpW0NIMl1bQ0gyXU82KUMoW0NIM10pKFtDSDNdKVtDQEhdKFtPSF0pW0NIMl1bQ0gyXTU=

>  <s_epik_cmdline>  (161) 
J2VwaWtfcHl0aG9uJywgJy1waHQnLCAnMi4wJywgJy1waCcsICc3LjAnLCAnLXRuJywgJzgnLCAnLW1hJywgJzIwMCcsICctaW1hZScsICc8aW5maWxlLm1hZT4nLCAnLW9tYWUnLCAnPG91dGZpbGUubWFlPic=

>  <r_lp_tautomer_probability>  (161) 
1

>  <r_epik_Ionization_Penalty>  (161) 
2.46792e-07

>  <r_epik_Ionization_Penalty_Charging>  (161) 
0

>  <r_epik_Ionization_Penalty_Neutral>  (161) 
2.46792e-07

>  <r_epik_State_Penalty>  (161) 
-0

>  <r_epik_Charging_Adjusted_Penalty>  (161) 
0

>  <i_epik_Tot_Q>  (161) 
0

>  <i_epik_Tot_abs_Q>  (161) 
0

>  <s_epik_Chemistry_Notes>  (161) 
This compound has an ester and may undergo hydrolysis at high or low pH.

>  <s_lp_Force_Field>  (161) 
OPLS3e

>  <r_lp_Energy>  (161) 
65.9807

>  <b_lp_Chiralities_Consistent>  (161) 
1

>  <s_lp_Variant>  (161) 
46:0-1

>  <s_i_glide_gridfile>  (161) 
pfpi4k_grid

>  <i_i_glide_lignum>  (161) 
23

>  <i_i_glide_rotatable_bonds>  (161) 
2

>  <r_i_docking_score>  (161) 
-2.94178

>  <r_i_glide_ligand_efficiency>  (161) 
-0.0980592

>  <r_i_glide_ligand_efficiency_sa>  (161) 
-0.304693

>  <r_i_glide_ligand_efficiency_ln>  (161) 
-0.668403

>  <r_i_glide_gscore>  (161) 
-2.94178

>  <r_i_glide_lipo>  (161) 
-0.297325

>  <r_i_glide_hbond>  (161) 
-0.0103645

>  <r_i_glide_metal>  (161) 
-0

>  <r_i_glide_rewards>  (161) 
-0.65964

>  <r_i_glide_evdw>  (161) 
-31.9212

>  <r_i_glide_ecoul>  (161) 
-2.52256

>  <r_i_glide_erotb>  (161) 
0

>  <r_i_glide_esite>  (161) 
0

>  <r_i_glide_emodel>  (161) 
-40.7817

>  <r_i_glide_energy>  (161) 
-34.4438

>  <r_i_glide_einternal>  (161) 
0.110598

>  <r_i_glide_intrahb_reward>  (161) 
-0

>  <i_i_glide_confnum>  (161) 
2

>  <i_i_glide_posenum>  (161) 
8

>  <r_i_glide_eff_state_penalty>  (161) 
0

>  <ligand_id>  (161) 
46

>  <original_smiles>  (161) 
CC12COC3CC1C(=O)OC2CC12OCCC1=C1CCC(O)C(C)(C)C1(O)CCC32

>  <smiles>  (161) 
[H]OC1([H])C([H])([H])C([H])([H])C2=C3C([H])([H])C([H])([H])OC34C([H])([H])C3([H])OC(=O)C5([H])C([H])([H])C([H])(OC([H])([H])C35C([H])([H])[H])C4([H])C([H])([H])C([H])([H])C2(O[H])C1(C([H])([H])[H])C([H])([H])[H]

$$$$
47:0:0
     RDKit          3D

 34 37  0  0  1  0  0  0  0  0999 V2000
    2.0976   -8.5504    1.8644 N   0  0  0  0  0  0  0  0  0  0  0  0
    3.0864   -7.6991    1.5823 C   0  0  0  0  0  0  0  0  0  0  0  0
    4.3491   -8.0370    1.9228 N   0  0  0  0  0  0  0  0  0  0  0  0
    5.3571   -7.2125    1.6227 C   0  0  0  0  0  0  0  0  0  0  0  0
    5.3012   -6.0349    0.9903 N   0  0  0  0  0  0  0  0  0  0  0  0
    4.0191   -5.6926    0.6614 C   0  0  0  0  0  0  0  0  0  0  0  0
    2.8591   -6.4668    0.9200 C   0  0  0  0  0  0  0  0  0  0  0  0
    1.7294   -5.8275    0.4269 N   0  0  0  0  0  0  0  0  0  0  0  0
    2.2149   -4.7326   -0.1026 C   0  0  0  0  0  0  0  0  0  0  0  0
    3.5618   -4.5474    0.0284 N   0  0  0  0  0  0  0  0  0  0  0  0
    4.3064   -3.4022   -0.4564 C   0  0  2  0  0  0  0  0  0  0  0  0
    5.2616   -3.7525   -1.5969 C   0  0  1  0  0  0  0  0  0  0  0  0
    4.6131   -3.8533   -2.8498 O   0  0  0  0  0  0  0  0  0  0  0  0
    6.3040   -2.6395   -1.5635 C   0  0  0  0  0  0  0  0  0  0  0  0
    6.4741   -2.3291   -0.0701 C   0  0  1  0  0  0  0  0  0  0  0  0
    6.5747   -0.9352    0.1733 O   0  0  0  0  0  0  0  0  0  0  0  0
    5.8820   -0.6654    1.3845 C   0  0  0  0  0  0  0  0  0  0  0  0
    4.6364   -1.5242    1.2940 C   0  0  0  0  0  0  0  0  0  0  0  0
    5.1894   -2.7742    0.6313 C   0  0  1  0  0  0  0  0  0  0  0  0
    2.3111   -9.4321    2.3064 H   0  0  0  0  0  0  0  0  0  0  0  0
    1.1656   -8.3317    1.5529 H   0  0  0  0  0  0  0  0  0  0  0  0
    6.3435   -7.5224    1.9413 H   0  0  0  0  0  0  0  0  0  0  0  0
    1.6017   -4.0101   -0.6242 H   0  0  0  0  0  0  0  0  0  0  0  0
    3.6078   -2.6541   -0.8269 H   0  0  0  0  0  0  0  0  0  0  0  0
    5.7594   -4.6916   -1.3746 H   0  0  0  0  0  0  0  0  0  0  0  0
    3.9800   -4.5618   -2.7934 H   0  0  0  0  0  0  0  0  0  0  0  0
    7.2413   -2.9285   -2.0455 H   0  0  0  0  0  0  0  0  0  0  0  0
    5.9096   -1.7605   -2.0770 H   0  0  0  0  0  0  0  0  0  0  0  0
    7.3307   -2.8561    0.3558 H   0  0  0  0  0  0  0  0  0  0  0  0
    6.5036   -0.9588    2.2327 H   0  0  0  0  0  0  0  0  0  0  0  0
    5.6436    0.3922    1.4777 H   0  0  0  0  0  0  0  0  0  0  0  0
    4.1876   -1.7252    2.2695 H   0  0  0  0  0  0  0  0  0  0  0  0
    3.8960   -1.0199    0.6727 H   0  0  0  0  0  0  0  0  0  0  0  0
    5.4715   -3.4736    1.4161 H   0  0  0  0  0  0  0  0  0  0  0  0
  1  2  1  0
  1 21  1  0
  1 20  1  0
  2  3  2  0
  2  7  1  0
  3  4  1  0
  4 22  1  0
  4  5  2  0
  5  6  1  0
  6 10  1  0
  6  7  2  0
  7  8  1  0
  8  9  2  0
  9 23  1  0
  9 10  1  0
 10 11  1  0
 11 19  1  0
 11 12  1  0
 11 24  1  6
 12 13  1  0
 12 14  1  0
 12 25  1  1
 13 26  1  0
 14 15  1  0
 14 27  1  0
 14 28  1  0
 15 19  1  0
 15 16  1  0
 15 29  1  1
 16 17  1  0
 17 18  1  0
 17 30  1  0
 17 31  1  0
 18 19  1  0
 18 32  1  0
 18 33  1  0
 19 34  1  1
M  END
>  <i_m_ct_stereo_status>  (162) 
1

>  <s_m_source_file>  (162) 
/var/tmp/pbs.5076255.sched01/tmp2pvlagj1/41_74nrqse.sdf

>  <i_m_source_file_index>  (162) 
24

>  <i_lp_mmshare_version>  (162) 
48012

>  <i_f3d_flags>  (162) 
0

>  <s_epik_input>  (162) 
bjFbY0hdW25IXS9jKD1OXFtIXSljKGMxMiluW2NIXW4yW0NASF0oW0NAQEhdKFtPSF0pW0NIMl0zKVtDQEBIXShbQ0BASF0zNClbQ0gyXVtDSDJdTzQ=

>  <s_epik_cmdline>  (162) 
J2VwaWtfcHl0aG9uJywgJy1waHQnLCAnMi4wJywgJy1waCcsICc3LjAnLCAnLXRuJywgJzgnLCAnLW1hJywgJzIwMCcsICctaW1hZScsICc8aW5maWxlLm1hZT4nLCAnLW9tYWUnLCAnPG91dGZpbGUubWFlPic=

>  <r_lp_tautomer_probability>  (162) 
1

>  <r_epik_Ionization_Penalty>  (162) 
0.00106444

>  <r_epik_Ionization_Penalty_Charging>  (162) 
0

>  <r_epik_Ionization_Penalty_Neutral>  (162) 
0.00106444

>  <r_epik_State_Penalty>  (162) 
-0

>  <r_epik_Charging_Adjusted_Penalty>  (162) 
0

>  <i_epik_Tot_Q>  (162) 
0

>  <i_epik_Tot_abs_Q>  (162) 
0

>  <s_lp_Force_Field>  (162) 
OPLS3e

>  <r_lp_Energy>  (162) 
18.7725

>  <b_lp_Chiralities_Consistent>  (162) 
1

>  <s_lp_Variant>  (162) 
47:0-1

>  <s_i_glide_gridfile>  (162) 
pfpi4k_grid

>  <i_i_glide_lignum>  (162) 
24

>  <i_i_glide_rotatable_bonds>  (162) 
2

>  <r_i_docking_score>  (162) 
-4.44019

>  <r_i_glide_ligand_efficiency>  (162) 
-0.233694

>  <r_i_glide_ligand_efficiency_sa>  (162) 
-0.62359

>  <r_i_glide_ligand_efficiency_ln>  (162) 
-1.12568

>  <r_i_glide_gscore>  (162) 
-4.44019

>  <r_i_glide_lipo>  (162) 
-0.212383

>  <r_i_glide_hbond>  (162) 
-0.443595

>  <r_i_glide_metal>  (162) 
-0

>  <r_i_glide_rewards>  (162) 
-1.80705

>  <r_i_glide_evdw>  (162) 
-21.1309

>  <r_i_glide_ecoul>  (162) 
-7.20582

>  <r_i_glide_erotb>  (162) 
0.259547

>  <r_i_glide_esite>  (162) 
-0.0992864

>  <r_i_glide_emodel>  (162) 
-36.1357

>  <r_i_glide_energy>  (162) 
-28.3367

>  <r_i_glide_einternal>  (162) 
0.742584

>  <r_i_glide_intrahb_reward>  (162) 
-0

>  <i_i_glide_confnum>  (162) 
5

>  <i_i_glide_posenum>  (162) 
2

>  <r_i_glide_eff_state_penalty>  (162) 
0

>  <ligand_id>  (162) 
47

>  <original_smiles>  (162) 
N=c1[nH]cnc2c1ncn2C1C(O)CC2OCCC21

>  <smiles>  (162) 
[H]OC1([H])C([H])([H])C2([H])OC([H])([H])C([H])([H])C2([H])C1([H])n1c([H])nc2c(N([H])[H])nc([H])nc21

$$$$
47:0:1
     RDKit          3D

 34 37  0  0  1  0  0  0  0  0999 V2000
    2.3707   -3.5534   -0.7729 N   0  0  0  0  0  0  0  0  0  0  0  0
    2.9228   -4.3737    0.1294 C   0  0  0  0  0  0  0  0  0  0  0  0
    4.1526   -4.0811    0.6123 N   0  0  0  0  0  0  0  0  0  0  0  0
    4.7030   -4.8927    1.5235 C   0  0  0  0  0  0  0  0  0  0  0  0
    4.1967   -6.0074    2.0692 N   0  0  0  0  0  0  0  0  0  0  0  0
    2.9556   -6.2894    1.5797 C   0  0  0  0  0  0  0  0  0  0  0  0
    2.2520   -5.5292    0.6087 C   0  0  0  0  0  0  0  0  0  0  0  0
    1.0166   -6.1002    0.3390 N   0  0  0  0  0  0  0  0  0  0  0  0
    0.9926   -7.1561    1.0997 C   0  0  0  0  0  0  0  0  0  0  0  0
    2.1022   -7.3374    1.9007 N   0  0  0  0  0  0  0  0  0  0  0  0
    2.3355   -8.4345    2.8271 C   0  0  2  0  0  0  0  0  0  0  0  0
    2.6310   -9.7571    2.1047 C   0  0  1  0  0  0  0  0  0  0  0  0
    3.9775   -9.8544    1.6775 O   0  0  0  0  0  0  0  0  0  0  0  0
    2.2659  -10.8255    3.1373 C   0  0  0  0  0  0  0  0  0  0  0  0
    1.0401  -10.2580    3.8607 C   0  0  1  0  0  0  0  0  0  0  0  0
    1.0833  -10.4891    5.2600 O   0  0  0  0  0  0  0  0  0  0  0  0
    0.5362   -9.3510    5.9078 C   0  0  0  0  0  0  0  0  0  0  0  0
    1.1254   -8.1914    5.1147 C   0  0  0  0  0  0  0  0  0  0  0  0
    1.0968   -8.7399    3.6998 C   0  0  1  0  0  0  0  0  0  0  0  0
    2.8632   -2.7282   -1.0803 H   0  0  0  0  0  0  0  0  0  0  0  0
    1.4774   -3.7935   -1.1747 H   0  0  0  0  0  0  0  0  0  0  0  0
    5.6856   -4.6042    1.8700 H   0  0  0  0  0  0  0  0  0  0  0  0
    0.1610   -7.8502    1.0687 H   0  0  0  0  0  0  0  0  0  0  0  0
    3.1926   -8.2003    3.4650 H   0  0  0  0  0  0  0  0  0  0  0  0
    1.9798   -9.8547    1.2358 H   0  0  0  0  0  0  0  0  0  0  0  0
    4.0942  -10.7128    1.2380 H   0  0  0  0  0  0  0  0  0  0  0  0
    2.0710  -11.8031    2.6949 H   0  0  0  0  0  0  0  0  0  0  0  0
    3.0810  -10.9498    3.8509 H   0  0  0  0  0  0  0  0  0  0  0  0
    0.1103  -10.6443    3.4372 H   0  0  0  0  0  0  0  0  0  0  0  0
   -0.5534   -9.3677    5.8305 H   0  0  0  0  0  0  0  0  0  0  0  0
    0.8125   -9.3189    6.9609 H   0  0  0  0  0  0  0  0  0  0  0  0
    0.5534   -7.2679    5.2175 H   0  0  0  0  0  0  0  0  0  0  0  0
    2.1452   -8.0004    5.4491 H   0  0  0  0  0  0  0  0  0  0  0  0
    0.1538   -8.4419    3.2473 H   0  0  0  0  0  0  0  0  0  0  0  0
  1  2  1  0
  1 21  1  0
  1 20  1  0
  2  3  2  0
  2  7  1  0
  3  4  1  0
  4 22  1  0
  4  5  2  0
  5  6  1  0
  6 10  1  0
  6  7  2  0
  7  8  1  0
  8  9  2  0
  9 23  1  0
  9 10  1  0
 10 11  1  0
 11 19  1  0
 11 12  1  0
 11 24  1  1
 12 13  1  0
 12 14  1  0
 12 25  1  6
 13 26  1  0
 14 15  1  0
 14 27  1  0
 14 28  1  0
 15 19  1  0
 15 16  1  0
 15 29  1  6
 16 17  1  0
 17 18  1  0
 17 30  1  0
 17 31  1  0
 18 19  1  0
 18 32  1  0
 18 33  1  0
 19 34  1  6
M  END
>  <i_m_ct_stereo_status>  (163) 
1

>  <s_m_source_file>  (163) 
/var/tmp/pbs.5076255.sched01/tmp2pvlagj1/41_74nrqse.sdf

>  <i_m_source_file_index>  (163) 
24

>  <i_lp_mmshare_version>  (163) 
48012

>  <i_f3d_flags>  (163) 
0

>  <s_epik_input>  (163) 
bjFbY0hdW25IXS9jKD1OXFtIXSljKGMxMiluW2NIXW4yW0NASF0oW0NAQEhdKFtPSF0pW0NIMl0zKVtDQEBIXShbQ0BASF0zNClbQ0gyXVtDSDJdTzQ=

>  <s_epik_cmdline>  (163) 
J2VwaWtfcHl0aG9uJywgJy1waHQnLCAnMi4wJywgJy1waCcsICc3LjAnLCAnLXRuJywgJzgnLCAnLW1hJywgJzIwMCcsICctaW1hZScsICc8aW5maWxlLm1hZT4nLCAnLW9tYWUnLCAnPG91dGZpbGUubWFlPic=

>  <r_lp_tautomer_probability>  (163) 
1

>  <r_epik_Ionization_Penalty>  (163) 
0.00106444

>  <r_epik_Ionization_Penalty_Charging>  (163) 
0

>  <r_epik_Ionization_Penalty_Neutral>  (163) 
0.00106444

>  <r_epik_State_Penalty>  (163) 
-0

>  <r_epik_Charging_Adjusted_Penalty>  (163) 
0

>  <i_epik_Tot_Q>  (163) 
0

>  <i_epik_Tot_abs_Q>  (163) 
0

>  <s_lp_Force_Field>  (163) 
OPLS3e

>  <r_lp_Energy>  (163) 
18.7725

>  <b_lp_Chiralities_Consistent>  (163) 
1

>  <s_lp_Variant>  (163) 
47:0-1

>  <s_i_glide_gridfile>  (163) 
pfpi4k_grid

>  <i_i_glide_lignum>  (163) 
24

>  <i_i_glide_rotatable_bonds>  (163) 
2

>  <r_i_docking_score>  (163) 
-4.19962

>  <r_i_glide_ligand_efficiency>  (163) 
-0.221033

>  <r_i_glide_ligand_efficiency_sa>  (163) 
-0.589804

>  <r_i_glide_ligand_efficiency_ln>  (163) 
-1.06469

>  <r_i_glide_gscore>  (163) 
-4.19962

>  <r_i_glide_lipo>  (163) 
-0.0424042

>  <r_i_glide_hbond>  (163) 
-0.416406

>  <r_i_glide_metal>  (163) 
-0

>  <r_i_glide_rewards>  (163) 
-1.69724

>  <r_i_glide_evdw>  (163) 
-19.5321

>  <r_i_glide_ecoul>  (163) 
-8.05735

>  <r_i_glide_erotb>  (163) 
0.259547

>  <r_i_glide_esite>  (163) 
-0.117909

>  <r_i_glide_emodel>  (163) 
-34.8235

>  <r_i_glide_energy>  (163) 
-27.5894

>  <r_i_glide_einternal>  (163) 
0.85691

>  <r_i_glide_intrahb_reward>  (163) 
-0

>  <i_i_glide_confnum>  (163) 
4

>  <i_i_glide_posenum>  (163) 
10

>  <r_i_glide_eff_state_penalty>  (163) 
0

>  <ligand_id>  (163) 
47

>  <original_smiles>  (163) 
N=c1[nH]cnc2c1ncn2C1C(O)CC2OCCC21

>  <smiles>  (163) 
[H]OC1([H])C([H])([H])C2([H])OC([H])([H])C([H])([H])C2([H])C1([H])n1c([H])nc2c(N([H])[H])nc([H])nc21

$$$$
47:0:2
     RDKit          3D

 34 37  0  0  1  0  0  0  0  0999 V2000
    1.8227   -0.3802    4.6286 N   0  0  0  0  0  0  0  0  0  0  0  0
    2.0910   -1.3770    3.7799 C   0  0  0  0  0  0  0  0  0  0  0  0
    1.6893   -2.6302    4.0991 N   0  0  0  0  0  0  0  0  0  0  0  0
    1.9722   -3.6355    3.2601 C   0  0  0  0  0  0  0  0  0  0  0  0
    2.6161   -3.5929    2.0885 N   0  0  0  0  0  0  0  0  0  0  0  0
    3.0118   -2.3219    1.7764 C   0  0  0  0  0  0  0  0  0  0  0  0
    2.7889   -1.1657    2.5703 C   0  0  0  0  0  0  0  0  0  0  0  0
    3.3332   -0.0446    1.9631 N   0  0  0  0  0  0  0  0  0  0  0  0
    3.8368   -0.5095    0.8547 C   0  0  0  0  0  0  0  0  0  0  0  0
    3.7019   -1.8717    0.6645 N   0  0  0  0  0  0  0  0  0  0  0  0
    4.1744   -2.6403   -0.4791 C   0  0  2  0  0  0  0  0  0  0  0  0
    5.6789   -2.4569   -0.7113 C   0  0  1  0  0  0  0  0  0  0  0  0
    6.4657   -3.2515    0.1493 O   0  0  0  0  0  0  0  0  0  0  0  0
    5.8707   -2.8113   -2.1819 C   0  0  0  0  0  0  0  0  0  0  0  0
    4.6153   -2.2630   -2.8748 C   0  0  1  0  0  0  0  0  0  0  0  0
    4.1282   -3.1330   -3.8903 O   0  0  0  0  0  0  0  0  0  0  0  0
    2.7090   -3.0955   -3.8306 C   0  0  0  0  0  0  0  0  0  0  0  0
    2.4073   -3.0568   -2.3390 C   0  0  0  0  0  0  0  0  0  0  0  0
    3.5254   -2.1814   -1.8013 C   0  0  1  0  0  0  0  0  0  0  0  0
    1.3406   -0.5672    5.4914 H   0  0  0  0  0  0  0  0  0  0  0  0
    2.1264    0.5484    4.3757 H   0  0  0  0  0  0  0  0  0  0  0  0
    1.6319   -4.6125    3.5756 H   0  0  0  0  0  0  0  0  0  0  0  0
    4.3224    0.1397    0.1373 H   0  0  0  0  0  0  0  0  0  0  0  0
    3.9758   -3.7041   -0.3174 H   0  0  0  0  0  0  0  0  0  0  0  0
    5.9699   -1.4172   -0.5673 H   0  0  0  0  0  0  0  0  0  0  0  0
    6.2200   -3.0626    1.0435 H   0  0  0  0  0  0  0  0  0  0  0  0
    6.7963   -2.4043   -2.5883 H   0  0  0  0  0  0  0  0  0  0  0  0
    5.9089   -3.8936   -2.3006 H   0  0  0  0  0  0  0  0  0  0  0  0
    4.7898   -1.2727   -3.2976 H   0  0  0  0  0  0  0  0  0  0  0  0
    2.3485   -2.1879   -4.3163 H   0  0  0  0  0  0  0  0  0  0  0  0
    2.2535   -3.9559   -4.3209 H   0  0  0  0  0  0  0  0  0  0  0  0
    1.4147   -2.6589   -2.1319 H   0  0  0  0  0  0  0  0  0  0  0  0
    2.4506   -4.0566   -1.9165 H   0  0  0  0  0  0  0  0  0  0  0  0
    3.1763   -1.1493   -1.7468 H   0  0  0  0  0  0  0  0  0  0  0  0
  1  2  1  0
  1 21  1  0
  1 20  1  0
  2  3  2  0
  2  7  1  0
  3  4  1  0
  4 22  1  0
  4  5  2  0
  5  6  1  0
  6 10  1  0
  6  7  2  0
  7  8  1  0
  8  9  2  0
  9 23  1  0
  9 10  1  0
 10 11  1  0
 11 19  1  0
 11 12  1  0
 11 24  1  1
 12 13  1  0
 12 14  1  0
 12 25  1  6
 13 26  1  0
 14 15  1  0
 14 27  1  0
 14 28  1  0
 15 19  1  0
 15 16  1  0
 15 29  1  6
 16 17  1  0
 17 18  1  0
 17 30  1  0
 17 31  1  0
 18 19  1  0
 18 32  1  0
 18 33  1  0
 19 34  1  1
M  END
>  <i_m_ct_stereo_status>  (164) 
1

>  <s_m_source_file>  (164) 
/var/tmp/pbs.5076255.sched01/tmp2pvlagj1/41_74nrqse.sdf

>  <i_m_source_file_index>  (164) 
24

>  <i_lp_mmshare_version>  (164) 
48012

>  <i_f3d_flags>  (164) 
0

>  <s_epik_input>  (164) 
bjFbY0hdW25IXS9jKD1OXFtIXSljKGMxMiluW2NIXW4yW0NASF0oW0NAQEhdKFtPSF0pW0NIMl0zKVtDQEBIXShbQ0BASF0zNClbQ0gyXVtDSDJdTzQ=

>  <s_epik_cmdline>  (164) 
J2VwaWtfcHl0aG9uJywgJy1waHQnLCAnMi4wJywgJy1waCcsICc3LjAnLCAnLXRuJywgJzgnLCAnLW1hJywgJzIwMCcsICctaW1hZScsICc8aW5maWxlLm1hZT4nLCAnLW9tYWUnLCAnPG91dGZpbGUubWFlPic=

>  <r_lp_tautomer_probability>  (164) 
1

>  <r_epik_Ionization_Penalty>  (164) 
0.00106444

>  <r_epik_Ionization_Penalty_Charging>  (164) 
0

>  <r_epik_Ionization_Penalty_Neutral>  (164) 
0.00106444

>  <r_epik_State_Penalty>  (164) 
-0

>  <r_epik_Charging_Adjusted_Penalty>  (164) 
0

>  <i_epik_Tot_Q>  (164) 
0

>  <i_epik_Tot_abs_Q>  (164) 
0

>  <s_lp_Force_Field>  (164) 
OPLS3e

>  <r_lp_Energy>  (164) 
18.7725

>  <b_lp_Chiralities_Consistent>  (164) 
1

>  <s_lp_Variant>  (164) 
47:0-1

>  <s_i_glide_gridfile>  (164) 
pfpi4k_grid

>  <i_i_glide_lignum>  (164) 
24

>  <i_i_glide_rotatable_bonds>  (164) 
2

>  <r_i_docking_score>  (164) 
-3.41165

>  <r_i_glide_ligand_efficiency>  (164) 
-0.179561

>  <r_i_glide_ligand_efficiency_sa>  (164) 
-0.47914

>  <r_i_glide_ligand_efficiency_ln>  (164) 
-0.864928

>  <r_i_glide_gscore>  (164) 
-3.41165

>  <r_i_glide_lipo>  (164) 
-0.387492

>  <r_i_glide_hbond>  (164) 
-0.0493077

>  <r_i_glide_metal>  (164) 
-0

>  <r_i_glide_rewards>  (164) 
-1.64874

>  <r_i_glide_evdw>  (164) 
-25.6006

>  <r_i_glide_ecoul>  (164) 
-1.73858

>  <r_i_glide_erotb>  (164) 
0.259547

>  <r_i_glide_esite>  (164) 
-0.044851

>  <r_i_glide_emodel>  (164) 
-33.3921

>  <r_i_glide_energy>  (164) 
-27.3391

>  <r_i_glide_einternal>  (164) 
0.368828

>  <r_i_glide_intrahb_reward>  (164) 
-0

>  <i_i_glide_confnum>  (164) 
4

>  <i_i_glide_posenum>  (164) 
4

>  <r_i_glide_eff_state_penalty>  (164) 
0

>  <ligand_id>  (164) 
47

>  <original_smiles>  (164) 
N=c1[nH]cnc2c1ncn2C1C(O)CC2OCCC21

>  <smiles>  (164) 
[H]OC1([H])C([H])([H])C2([H])OC([H])([H])C([H])([H])C2([H])C1([H])n1c([H])nc2c(N([H])[H])nc([H])nc21

$$$$
50:0:0
     RDKit          3D

 46 49  0  0  1  0  0  0  0  0999 V2000
    5.2515   -3.5850    3.3342 C   0  0  0  0  0  0  0  0  0  0  0  0
    4.1835   -2.8738    2.4885 C   0  0  1  0  0  0  0  0  0  0  0  0
    2.8151   -3.5430    2.7615 C   0  0  0  0  0  0  0  0  0  0  0  0
    2.2382   -4.2487    1.9471 O   0  0  0  0  0  0  0  0  0  0  0  0
    2.2373   -3.3874    4.1823 C   0  0  0  0  0  0  0  0  0  0  0  0
    2.7077   -2.0965    4.8551 C   0  0  0  0  0  0  0  0  0  0  0  0
    3.5180   -1.2473    4.3415 N   0  0  0  0  0  0  0  0  0  0  0  0
    3.9520   -1.4560    3.0254 C   0  0  0  0  0  0  0  0  0  0  0  0
    4.0221   -0.3600    2.2433 C   0  0  0  0  0  0  0  0  0  0  0  0
    4.2886   -0.3946    0.7666 C   0  0  0  0  0  0  0  0  0  0  0  0
    4.0013   -1.7672    0.1208 C   0  0  2  0  0  0  0  0  0  0  0  0
    4.6890   -2.8508    0.9990 C   0  0  2  0  0  0  0  0  0  0  0  0
    4.8033   -4.2430    0.3290 C   0  0  0  0  0  0  0  0  0  0  0  0
    4.5715   -4.2458   -1.1814 C   0  0  0  0  0  0  0  0  0  0  0  0
    5.1322   -3.0254   -1.9184 C   0  0  1  0  0  0  0  0  0  0  0  0
    6.6612   -2.9463   -1.7458 C   0  0  0  0  0  0  0  0  0  0  0  0
    4.7807   -2.9881   -3.4267 C   0  0  1  0  0  0  0  0  0  0  0  0
    4.8769   -4.2056   -4.1054 O   0  0  0  0  0  0  0  0  0  0  0  0
    3.3779   -2.4537   -3.5599 C   0  0  0  0  0  0  0  0  0  0  0  0
    3.2433   -1.5083   -2.3733 C   0  0  0  0  0  0  0  0  0  0  0  0
    4.4213   -1.7592   -1.3904 C   0  0  1  0  0  0  0  0  0  0  0  0
    5.0136   -3.6253    4.3972 H   0  0  0  0  0  0  0  0  0  0  0  0
    6.1871   -3.0447    3.2351 H   0  0  0  0  0  0  0  0  0  0  0  0
    5.4166   -4.6118    3.0078 H   0  0  0  0  0  0  0  0  0  0  0  0
    1.1463   -3.3915    4.1369 H   0  0  0  0  0  0  0  0  0  0  0  0
    2.5429   -4.2379    4.7969 H   0  0  0  0  0  0  0  0  0  0  0  0
    2.3077   -1.9735    5.8641 H   0  0  0  0  0  0  0  0  0  0  0  0
    3.8430    0.6262    2.6540 H   0  0  0  0  0  0  0  0  0  0  0  0
    3.6490    0.3605    0.3377 H   0  0  0  0  0  0  0  0  0  0  0  0
    5.3185   -0.0704    0.5844 H   0  0  0  0  0  0  0  0  0  0  0  0
    2.9264   -1.9522    0.1772 H   0  0  0  0  0  0  0  0  0  0  0  0
    5.7133   -2.4958    1.0662 H   0  0  0  0  0  0  0  0  0  0  0  0
    5.8246   -4.6034    0.5034 H   0  0  0  0  0  0  0  0  0  0  0  0
    4.1917   -5.0097    0.7916 H   0  0  0  0  0  0  0  0  0  0  0  0
    4.9570   -5.1697   -1.6022 H   0  0  0  0  0  0  0  0  0  0  0  0
    3.4861   -4.2628   -1.3268 H   0  0  0  0  0  0  0  0  0  0  0  0
    7.0919   -2.1228   -2.3098 H   0  0  0  0  0  0  0  0  0  0  0  0
    7.1384   -3.8501   -2.1199 H   0  0  0  0  0  0  0  0  0  0  0  0
    6.9708   -2.8191   -0.7087 H   0  0  0  0  0  0  0  0  0  0  0  0
    5.4147   -2.2656   -3.9091 H   0  0  0  0  0  0  0  0  0  0  0  0
    4.4142   -4.8801   -3.6160 H   0  0  0  0  0  0  0  0  0  0  0  0
    3.2267   -1.9372   -4.5078 H   0  0  0  0  0  0  0  0  0  0  0  0
    2.6330   -3.2463   -3.4897 H   0  0  0  0  0  0  0  0  0  0  0  0
    3.2036   -0.4631   -2.6932 H   0  0  0  0  0  0  0  0  0  0  0  0
    2.2749   -1.7690   -1.9609 H   0  0  0  0  0  0  0  0  0  0  0  0
    5.1117   -0.9292   -1.5528 H   0  0  0  0  0  0  0  0  0  0  0  0
  2  1  1  1
  1 22  1  0
  1 23  1  0
  1 24  1  0
  2  8  1  0
  2 12  1  0
  2  3  1  0
  3  4  2  0
  3  5  1  0
  5  6  1  0
  5 25  1  0
  5 26  1  0
  6  7  2  0
  6 27  1  0
  7  8  1  0
  8  9  2  0
  9 10  1  0
  9 28  1  0
 10 11  1  0
 10 29  1  0
 10 30  1  0
 11 21  1  0
 11 12  1  0
 11 31  1  6
 12 13  1  0
 12 32  1  1
 13 14  1  0
 13 33  1  0
 13 34  1  0
 14 15  1  0
 14 35  1  0
 14 36  1  0
 15 21  1  0
 15 16  1  6
 15 17  1  0
 16 37  1  0
 16 38  1  0
 16 39  1  0
 17 18  1  0
 17 19  1  0
 17 40  1  6
 18 41  1  0
 19 20  1  0
 19 42  1  0
 19 43  1  0
 20 21  1  0
 20 44  1  0
 20 45  1  0
 21 46  1  1
M  END
>  <i_m_ct_stereo_status>  (165) 
1

>  <s_m_source_file>  (165) 
/var/tmp/pbs.5076255.sched01/tmp2pvlagj1/41_74nrqse.sdf

>  <i_m_source_file_index>  (165) 
27

>  <i_lp_mmshare_version>  (165) 
48012

>  <i_f3d_flags>  (165) 
0

>  <s_epik_input>  (165) 
Tz1DMVtDSDJdW0NIXT1OQyhbQ0BAXTEyW0NIM10pPVtDSF1bQ0gyXVtDQEBIXTNbQ0BASF0yW0NIMl1bQ0gyXVtDQF00KFtDSDNdKVtDQEhdM1tDSDJdW0NIMl1bQ0BASF00W09IXQ==

>  <s_epik_cmdline>  (165) 
J2VwaWtfcHl0aG9uJywgJy1waHQnLCAnMi4wJywgJy1waCcsICc3LjAnLCAnLXRuJywgJzgnLCAnLW1hJywgJzIwMCcsICctaW1hZScsICc8aW5maWxlLm1hZT4nLCAnLW9tYWUnLCAnPG91dGZpbGUubWFlPic=

>  <r_lp_tautomer_probability>  (165) 
0.499993

>  <r_epik_Ionization_Penalty>  (165) 
2.1262e-06

>  <r_epik_Ionization_Penalty_Charging>  (165) 
0

>  <r_epik_Ionization_Penalty_Neutral>  (165) 
2.1262e-06

>  <r_epik_State_Penalty>  (165) 
0.41068

>  <r_epik_Charging_Adjusted_Penalty>  (165) 
0.41068

>  <i_epik_Tot_Q>  (165) 
0

>  <i_epik_Tot_abs_Q>  (165) 
0

>  <s_epik_Chemistry_Notes>  (165) 
This compound has an imine and may undergo hydrolysis.

>  <s_lp_Force_Field>  (165) 
OPLS3e

>  <r_lp_Energy>  (165) 
38.4039

>  <b_lp_Chiralities_Consistent>  (165) 
1

>  <s_lp_Variant>  (165) 
50:0-1

>  <s_i_glide_gridfile>  (165) 
pfpi4k_grid

>  <i_i_glide_lignum>  (165) 
27

>  <i_i_glide_rotatable_bonds>  (165) 
1

>  <r_i_docking_score>  (165) 
-4.06026

>  <r_i_glide_ligand_efficiency>  (165) 
-0.193346

>  <r_i_glide_ligand_efficiency_sa>  (165) 
-0.533426

>  <r_i_glide_ligand_efficiency_ln>  (165) 
-1.00389

>  <r_i_glide_gscore>  (165) 
-4.06026

>  <r_i_glide_lipo>  (165) 
-0.771292

>  <r_i_glide_hbond>  (165) 
-0.255329

>  <r_i_glide_metal>  (165) 
-0

>  <r_i_glide_rewards>  (165) 
-1.44957

>  <r_i_glide_evdw>  (165) 
-20.5881

>  <r_i_glide_ecoul>  (165) 
-3.69124

>  <r_i_glide_erotb>  (165) 
0

>  <r_i_glide_esite>  (165) 
-0.000980436

>  <r_i_glide_emodel>  (165) 
-31.0463

>  <r_i_glide_energy>  (165) 
-24.2793

>  <r_i_glide_einternal>  (165) 
0.0250047

>  <r_i_glide_intrahb_reward>  (165) 
-0

>  <i_i_glide_confnum>  (165) 
1

>  <i_i_glide_posenum>  (165) 
37

>  <r_i_glide_eff_state_penalty>  (165) 
0

>  <ligand_id>  (165) 
50

>  <original_smiles>  (165) 
CC12C(=O)CC=NC1=CCC1C2CCC2(C)C(O)CCC12

>  <smiles>  (165) 
[H]OC1([H])C([H])([H])C([H])([H])C2([H])C3([H])C([H])([H])C([H])=C4N=C([H])C([H])([H])C(=O)C4(C([H])([H])[H])C3([H])C([H])([H])C([H])([H])C12C([H])([H])[H]

$$$$
50:0:1
     RDKit          3D

 46 49  0  0  1  0  0  0  0  0999 V2000
    3.8249   -1.2680    0.3048 C   0  0  0  0  0  0  0  0  0  0  0  0
    4.2000   -2.7361   -0.0142 C   0  0  1  0  0  0  0  0  0  0  0  0
    3.0849   -3.3511   -0.8988 C   0  0  0  0  0  0  0  0  0  0  0  0
    2.3072   -4.2226   -0.5133 O   0  0  0  0  0  0  0  0  0  0  0  0
    2.9643   -2.7754   -2.3232 C   0  0  0  0  0  0  0  0  0  0  0  0
    4.2859   -2.2064   -2.8411 C   0  0  0  0  0  0  0  0  0  0  0  0
    5.3870   -2.1792   -2.1983 N   0  0  0  0  0  0  0  0  0  0  0  0
    5.4364   -2.7714   -0.9329 C   0  0  0  0  0  0  0  0  0  0  0  0
    6.5479   -3.4712   -0.6400 C   0  0  0  0  0  0  0  0  0  0  0  0
    6.7094   -4.3656    0.5732 C   0  0  0  0  0  0  0  0  0  0  0  0
    5.3559   -4.7478    1.2181 C   0  0  2  0  0  0  0  0  0  0  0  0
    4.4895   -3.4646    1.3576 C   0  0  2  0  0  0  0  0  0  0  0  0
    3.2624   -3.6081    2.3057 C   0  0  0  0  0  0  0  0  0  0  0  0
    3.2759   -4.8636    3.1919 C   0  0  0  0  0  0  0  0  0  0  0  0
    4.6788   -5.1976    3.7424 C   0  0  1  0  0  0  0  0  0  0  0  0
    5.2366   -4.0434    4.6092 C   0  0  0  0  0  0  0  0  0  0  0  0
    4.7067   -6.4983    4.5804 C   0  0  1  0  0  0  0  0  0  0  0  0
    3.6364   -6.6297    5.4935 O   0  0  0  0  0  0  0  0  0  0  0  0
    4.7778   -7.6484    3.5812 C   0  0  0  0  0  0  0  0  0  0  0  0
    5.5254   -7.0792    2.3663 C   0  0  0  0  0  0  0  0  0  0  0  0
    5.6053   -5.5401    2.5477 C   0  0  1  0  0  0  0  0  0  0  0  0
    3.6223   -0.6833   -0.5902 H   0  0  0  0  0  0  0  0  0  0  0  0
    4.6309   -0.7618    0.8348 H   0  0  0  0  0  0  0  0  0  0  0  0
    2.9279   -1.2094    0.9212 H   0  0  0  0  0  0  0  0  0  0  0  0
    2.6038   -3.5452   -3.0104 H   0  0  0  0  0  0  0  0  0  0  0  0
    2.2193   -1.9767   -2.3185 H   0  0  0  0  0  0  0  0  0  0  0  0
    4.2093   -1.7860   -3.8483 H   0  0  0  0  0  0  0  0  0  0  0  0
    7.3830   -3.4706   -1.3252 H   0  0  0  0  0  0  0  0  0  0  0  0
    7.2391   -5.2731    0.2715 H   0  0  0  0  0  0  0  0  0  0  0  0
    7.3556   -3.8455    1.2850 H   0  0  0  0  0  0  0  0  0  0  0  0
    4.8247   -5.3960    0.5208 H   0  0  0  0  0  0  0  0  0  0  0  0
    5.1532   -2.7823    1.8898 H   0  0  0  0  0  0  0  0  0  0  0  0
    3.2418   -2.7307    2.9508 H   0  0  0  0  0  0  0  0  0  0  0  0
    2.3111   -3.5655    1.7833 H   0  0  0  0  0  0  0  0  0  0  0  0
    2.5633   -4.7339    4.0061 H   0  0  0  0  0  0  0  0  0  0  0  0
    2.9163   -5.7074    2.5995 H   0  0  0  0  0  0  0  0  0  0  0  0
    6.2050   -4.2993    5.0426 H   0  0  0  0  0  0  0  0  0  0  0  0
    4.5606   -3.8151    5.4333 H   0  0  0  0  0  0  0  0  0  0  0  0
    5.3849   -3.1253    4.0433 H   0  0  0  0  0  0  0  0  0  0  0  0
    5.6281   -6.5251    5.1632 H   0  0  0  0  0  0  0  0  0  0  0  0
    2.8373   -6.7684    5.0062 H   0  0  0  0  0  0  0  0  0  0  0  0
    5.2829   -8.5190    4.0025 H   0  0  0  0  0  0  0  0  0  0  0  0
    3.7810   -7.9694    3.2783 H   0  0  0  0  0  0  0  0  0  0  0  0
    6.5290   -7.5050    2.2985 H   0  0  0  0  0  0  0  0  0  0  0  0
    5.0018   -7.3729    1.4533 H   0  0  0  0  0  0  0  0  0  0  0  0
    6.6222   -5.3374    2.8900 H   0  0  0  0  0  0  0  0  0  0  0  0
  2  1  1  1
  1 22  1  0
  1 23  1  0
  1 24  1  0
  2  8  1  0
  2 12  1  0
  2  3  1  0
  3  4  2  0
  3  5  1  0
  5  6  1  0
  5 25  1  0
  5 26  1  0
  6  7  2  0
  6 27  1  0
  7  8  1  0
  8  9  2  0
  9 10  1  0
  9 28  1  0
 10 11  1  0
 10 29  1  0
 10 30  1  0
 11 21  1  0
 11 12  1  0
 11 31  1  6
 12 13  1  0
 12 32  1  1
 13 14  1  0
 13 33  1  0
 13 34  1  0
 14 15  1  0
 14 35  1  0
 14 36  1  0
 15 21  1  0
 15 16  1  1
 15 17  1  0
 16 37  1  0
 16 38  1  0
 16 39  1  0
 17 18  1  0
 17 19  1  0
 17 40  1  1
 18 41  1  0
 19 20  1  0
 19 42  1  0
 19 43  1  0
 20 21  1  0
 20 44  1  0
 20 45  1  0
 21 46  1  1
M  END
>  <i_m_ct_stereo_status>  (166) 
1

>  <s_m_source_file>  (166) 
/var/tmp/pbs.5076255.sched01/tmp2pvlagj1/41_74nrqse.sdf

>  <i_m_source_file_index>  (166) 
27

>  <i_lp_mmshare_version>  (166) 
48012

>  <i_f3d_flags>  (166) 
0

>  <s_epik_input>  (166) 
Tz1DMVtDSDJdW0NIXT1OQyhbQ0BAXTEyW0NIM10pPVtDSF1bQ0gyXVtDQEBIXTNbQ0BASF0yW0NIMl1bQ0gyXVtDQF00KFtDSDNdKVtDQEhdM1tDSDJdW0NIMl1bQ0BASF00W09IXQ==

>  <s_epik_cmdline>  (166) 
J2VwaWtfcHl0aG9uJywgJy1waHQnLCAnMi4wJywgJy1waCcsICc3LjAnLCAnLXRuJywgJzgnLCAnLW1hJywgJzIwMCcsICctaW1hZScsICc8aW5maWxlLm1hZT4nLCAnLW9tYWUnLCAnPG91dGZpbGUubWFlPic=

>  <r_lp_tautomer_probability>  (166) 
0.499993

>  <r_epik_Ionization_Penalty>  (166) 
2.1262e-06

>  <r_epik_Ionization_Penalty_Charging>  (166) 
0

>  <r_epik_Ionization_Penalty_Neutral>  (166) 
2.1262e-06

>  <r_epik_State_Penalty>  (166) 
0.41068

>  <r_epik_Charging_Adjusted_Penalty>  (166) 
0.41068

>  <i_epik_Tot_Q>  (166) 
0

>  <i_epik_Tot_abs_Q>  (166) 
0

>  <s_epik_Chemistry_Notes>  (166) 
This compound has an imine and may undergo hydrolysis.

>  <s_lp_Force_Field>  (166) 
OPLS3e

>  <r_lp_Energy>  (166) 
38.4039

>  <b_lp_Chiralities_Consistent>  (166) 
1

>  <s_lp_Variant>  (166) 
50:0-1

>  <s_i_glide_gridfile>  (166) 
pfpi4k_grid

>  <i_i_glide_lignum>  (166) 
27

>  <i_i_glide_rotatable_bonds>  (166) 
1

>  <r_i_docking_score>  (166) 
-3.39083

>  <r_i_glide_ligand_efficiency>  (166) 
-0.161468

>  <r_i_glide_ligand_efficiency_sa>  (166) 
-0.445478

>  <r_i_glide_ligand_efficiency_ln>  (166) 
-0.838375

>  <r_i_glide_gscore>  (166) 
-3.39083

>  <r_i_glide_lipo>  (166) 
-0.34328

>  <r_i_glide_hbond>  (166) 
0

>  <r_i_glide_metal>  (166) 
-0

>  <r_i_glide_rewards>  (166) 
-1.71188

>  <r_i_glide_evdw>  (166) 
-22.3965

>  <r_i_glide_ecoul>  (166) 
-1.43892

>  <r_i_glide_erotb>  (166) 
0

>  <r_i_glide_esite>  (166) 
0

>  <r_i_glide_emodel>  (166) 
-29.6127

>  <r_i_glide_energy>  (166) 
-23.8355

>  <r_i_glide_einternal>  (166) 
0.0557406

>  <r_i_glide_intrahb_reward>  (166) 
-0

>  <i_i_glide_confnum>  (166) 
1

>  <i_i_glide_posenum>  (166) 
9

>  <r_i_glide_eff_state_penalty>  (166) 
0

>  <ligand_id>  (166) 
50

>  <original_smiles>  (166) 
CC12C(=O)CC=NC1=CCC1C2CCC2(C)C(O)CCC12

>  <smiles>  (166) 
[H]OC1([H])C([H])([H])C([H])([H])C2([H])C3([H])C([H])([H])C([H])=C4N=C([H])C([H])([H])C(=O)C4(C([H])([H])[H])C3([H])C([H])([H])C([H])([H])C12C([H])([H])[H]

$$$$
50:0:2
     RDKit          3D

 46 49  0  0  1  0  0  0  0  0999 V2000
    3.7625   -1.7356    1.1794 C   0  0  0  0  0  0  0  0  0  0  0  0
    4.1084   -2.9984    0.3508 C   0  0  1  0  0  0  0  0  0  0  0  0
    3.1879   -3.0386   -0.8972 C   0  0  0  0  0  0  0  0  0  0  0  0
    2.2849   -3.8550   -1.0524 O   0  0  0  0  0  0  0  0  0  0  0  0
    3.4283   -1.9338   -1.9456 C   0  0  0  0  0  0  0  0  0  0  0  0
    4.8633   -1.4097   -1.9236 C   0  0  0  0  0  0  0  0  0  0  0  0
    5.7952   -1.8078   -1.1459 N   0  0  0  0  0  0  0  0  0  0  0  0
    5.5160   -2.8559   -0.2637 C   0  0  0  0  0  0  0  0  0  0  0  0
    6.4838   -3.7779   -0.0981 C   0  0  0  0  0  0  0  0  0  0  0  0
    6.3088   -5.0871    0.6411 C   0  0  0  0  0  0  0  0  0  0  0  0
    4.8234   -5.4826    0.8096 C   0  0  2  0  0  0  0  0  0  0  0  0
    4.0340   -4.2442    1.3191 C   0  0  2  0  0  0  0  0  0  0  0  0
    2.6186   -4.5652    1.8815 C   0  0  0  0  0  0  0  0  0  0  0  0
    2.3505   -6.0554    2.1442 C   0  0  0  0  0  0  0  0  0  0  0  0
    3.5684   -6.7893    2.7437 C   0  0  1  0  0  0  0  0  0  0  0  0
    3.9861   -6.1702    4.1002 C   0  0  0  0  0  0  0  0  0  0  0  0
    3.3296   -8.3076    2.9451 C   0  0  1  0  0  0  0  0  0  0  0  0
    2.0570   -8.6172    3.4725 O   0  0  0  0  0  0  0  0  0  0  0  0
    3.5484   -8.9609    1.5871 C   0  0  0  0  0  0  0  0  0  0  0  0
    4.5856   -8.0752    0.8838 C   0  0  0  0  0  0  0  0  0  0  0  0
    4.7167   -6.7652    1.7039 C   0  0  1  0  0  0  0  0  0  0  0  0
    3.8026   -0.8179    0.5944 H   0  0  0  0  0  0  0  0  0  0  0  0
    4.4561   -1.6092    2.0099 H   0  0  0  0  0  0  0  0  0  0  0  0
    2.7553   -1.7926    1.5922 H   0  0  0  0  0  0  0  0  0  0  0  0
    3.1904   -2.3028   -2.9447 H   0  0  0  0  0  0  0  0  0  0  0  0
    2.7560   -1.0972   -1.7476 H   0  0  0  0  0  0  0  0  0  0  0  0
    5.0397   -0.6116   -2.6503 H   0  0  0  0  0  0  0  0  0  0  0  0
    7.4539   -3.6318   -0.5519 H   0  0  0  0  0  0  0  0  0  0  0  0
    6.8363   -5.8686    0.0889 H   0  0  0  0  0  0  0  0  0  0  0  0
    6.8076   -4.9936    1.6097 H   0  0  0  0  0  0  0  0  0  0  0  0
    4.4252   -5.7131   -0.1794 H   0  0  0  0  0  0  0  0  0  0  0  0
    4.6031   -3.9356    2.1951 H   0  0  0  0  0  0  0  0  0  0  0  0
    2.5056   -4.0211    2.8188 H   0  0  0  0  0  0  0  0  0  0  0  0
    1.8157   -4.1768    1.2629 H   0  0  0  0  0  0  0  0  0  0  0  0
    1.4806   -6.1572    2.7925 H   0  0  0  0  0  0  0  0  0  0  0  0
    2.0808   -6.5290    1.1978 H   0  0  0  0  0  0  0  0  0  0  0  0
    4.8131   -6.7182    4.5547 H   0  0  0  0  0  0  0  0  0  0  0  0
    3.1559   -6.1872    4.8072 H   0  0  0  0  0  0  0  0  0  0  0  0
    4.3140   -5.1361    4.0089 H   0  0  0  0  0  0  0  0  0  0  0  0
    4.0827   -8.7049    3.6275 H   0  0  0  0  0  0  0  0  0  0  0  0
    2.0137   -9.5530    3.6194 H   0  0  0  0  0  0  0  0  0  0  0  0
    3.8851   -9.9950    1.6838 H   0  0  0  0  0  0  0  0  0  0  0  0
    2.6233   -8.9786    1.0104 H   0  0  0  0  0  0  0  0  0  0  0  0
    5.5465   -8.5890    0.8322 H   0  0  0  0  0  0  0  0  0  0  0  0
    4.2654   -7.8993   -0.1444 H   0  0  0  0  0  0  0  0  0  0  0  0
    5.6387   -6.8701    2.2786 H   0  0  0  0  0  0  0  0  0  0  0  0
  2  1  1  1
  1 22  1  0
  1 23  1  0
  1 24  1  0
  2  8  1  0
  2 12  1  0
  2  3  1  0
  3  4  2  0
  3  5  1  0
  5  6  1  0
  5 25  1  0
  5 26  1  0
  6  7  2  0
  6 27  1  0
  7  8  1  0
  8  9  2  0
  9 10  1  0
  9 28  1  0
 10 11  1  0
 10 29  1  0
 10 30  1  0
 11 21  1  0
 11 12  1  0
 11 31  1  6
 12 13  1  0
 12 32  1  1
 13 14  1  0
 13 33  1  0
 13 34  1  0
 14 15  1  0
 14 35  1  0
 14 36  1  0
 15 21  1  0
 15 16  1  1
 15 17  1  0
 16 37  1  0
 16 38  1  0
 16 39  1  0
 17 18  1  0
 17 19  1  0
 17 40  1  1
 18 41  1  0
 19 20  1  0
 19 42  1  0
 19 43  1  0
 20 21  1  0
 20 44  1  0
 20 45  1  0
 21 46  1  1
M  END
>  <i_m_ct_stereo_status>  (167) 
1

>  <s_m_source_file>  (167) 
/var/tmp/pbs.5076255.sched01/tmp2pvlagj1/41_74nrqse.sdf

>  <i_m_source_file_index>  (167) 
27

>  <i_lp_mmshare_version>  (167) 
48012

>  <i_f3d_flags>  (167) 
0

>  <s_epik_input>  (167) 
Tz1DMVtDSDJdW0NIXT1OQyhbQ0BAXTEyW0NIM10pPVtDSF1bQ0gyXVtDQEBIXTNbQ0BASF0yW0NIMl1bQ0gyXVtDQF00KFtDSDNdKVtDQEhdM1tDSDJdW0NIMl1bQ0BASF00W09IXQ==

>  <s_epik_cmdline>  (167) 
J2VwaWtfcHl0aG9uJywgJy1waHQnLCAnMi4wJywgJy1waCcsICc3LjAnLCAnLXRuJywgJzgnLCAnLW1hJywgJzIwMCcsICctaW1hZScsICc8aW5maWxlLm1hZT4nLCAnLW9tYWUnLCAnPG91dGZpbGUubWFlPic=

>  <r_lp_tautomer_probability>  (167) 
0.499993

>  <r_epik_Ionization_Penalty>  (167) 
2.1262e-06

>  <r_epik_Ionization_Penalty_Charging>  (167) 
0

>  <r_epik_Ionization_Penalty_Neutral>  (167) 
2.1262e-06

>  <r_epik_State_Penalty>  (167) 
0.41068

>  <r_epik_Charging_Adjusted_Penalty>  (167) 
0.41068

>  <i_epik_Tot_Q>  (167) 
0

>  <i_epik_Tot_abs_Q>  (167) 
0

>  <s_epik_Chemistry_Notes>  (167) 
This compound has an imine and may undergo hydrolysis.

>  <s_lp_Force_Field>  (167) 
OPLS3e

>  <r_lp_Energy>  (167) 
38.4039

>  <b_lp_Chiralities_Consistent>  (167) 
1

>  <s_lp_Variant>  (167) 
50:0-1

>  <s_i_glide_gridfile>  (167) 
pfpi4k_grid

>  <i_i_glide_lignum>  (167) 
27

>  <i_i_glide_rotatable_bonds>  (167) 
1

>  <r_i_docking_score>  (167) 
-3.28075

>  <r_i_glide_ligand_efficiency>  (167) 
-0.156226

>  <r_i_glide_ligand_efficiency_sa>  (167) 
-0.431016

>  <r_i_glide_ligand_efficiency_ln>  (167) 
-0.811158

>  <r_i_glide_gscore>  (167) 
-3.28075

>  <r_i_glide_lipo>  (167) 
-0.377027

>  <r_i_glide_hbond>  (167) 
-0.0234983

>  <r_i_glide_metal>  (167) 
-0

>  <r_i_glide_rewards>  (167) 
-1.44957

>  <r_i_glide_evdw>  (167) 
-24.7946

>  <r_i_glide_ecoul>  (167) 
-0.948435

>  <r_i_glide_erotb>  (167) 
0

>  <r_i_glide_esite>  (167) 
-0.0486594

>  <r_i_glide_emodel>  (167) 
-31.1832

>  <r_i_glide_energy>  (167) 
-25.743

>  <r_i_glide_einternal>  (167) 
0.330168

>  <r_i_glide_intrahb_reward>  (167) 
-0

>  <i_i_glide_confnum>  (167) 
1

>  <i_i_glide_posenum>  (167) 
8

>  <r_i_glide_eff_state_penalty>  (167) 
0

>  <ligand_id>  (167) 
50

>  <original_smiles>  (167) 
CC12C(=O)CC=NC1=CCC1C2CCC2(C)C(O)CCC12

>  <smiles>  (167) 
[H]OC1([H])C([H])([H])C([H])([H])C2([H])C3([H])C([H])([H])C([H])=C4N=C([H])C([H])([H])C(=O)C4(C([H])([H])[H])C3([H])C([H])([H])C([H])([H])C12C([H])([H])[H]

$$$$
50:1:0
     RDKit          3D

 46 49  0  0  1  0  0  0  0  0999 V2000
    4.2502   -1.9035    4.8857 C   0  0  0  0  0  0  0  0  0  0  0  0
    3.5448   -2.0304    3.5136 C   0  0  1  0  0  0  0  0  0  0  0  0
    2.7574   -3.3679    3.5260 C   0  0  0  0  0  0  0  0  0  0  0  0
    3.3018   -4.4139    3.2103 O   0  0  0  0  0  0  0  0  0  0  0  0
    1.3798   -3.3606    4.0668 C   0  0  0  0  0  0  0  0  0  0  0  0
    0.7342   -2.1886    4.1847 C   0  0  0  0  0  0  0  0  0  0  0  0
    1.2770   -0.9700    3.7789 N   0  0  0  0  0  0  0  0  0  0  0  0
    2.4926   -0.8962    3.3984 C   0  0  0  0  0  0  0  0  0  0  0  0
    3.0032    0.3652    2.7324 C   0  0  0  0  0  0  0  0  0  0  0  0
    3.4217    0.0855    1.2783 C   0  0  0  0  0  0  0  0  0  0  0  0
    3.9524   -1.3520    1.0333 C   0  0  2  0  0  0  0  0  0  0  0  0
    4.6045   -1.8796    2.3447 C   0  0  2  0  0  0  0  0  0  0  0  0
    5.6143   -3.0289    2.0796 C   0  0  0  0  0  0  0  0  0  0  0  0
    5.3106   -3.7946    0.7809 C   0  0  0  0  0  0  0  0  0  0  0  0
    5.4193   -2.8782   -0.4708 C   0  0  1  0  0  0  0  0  0  0  0  0
    6.9015   -2.8103   -0.9218 C   0  0  0  0  0  0  0  0  0  0  0  0
    4.5708   -3.3711   -1.6696 C   0  0  1  0  0  0  0  0  0  0  0  0
    3.2921   -3.8452   -1.2750 O   0  0  0  0  0  0  0  0  0  0  0  0
    4.3493   -2.1323   -2.5304 C   0  0  0  0  0  0  0  0  0  0  0  0
    4.2184   -0.9978   -1.5166 C   0  0  0  0  0  0  0  0  0  0  0  0
    4.8993   -1.4392   -0.1968 C   0  0  1  0  0  0  0  0  0  0  0  0
    3.5368   -1.9839    5.7048 H   0  0  0  0  0  0  0  0  0  0  0  0
    4.7558   -0.9436    4.9960 H   0  0  0  0  0  0  0  0  0  0  0  0
    4.9915   -2.6884    5.0256 H   0  0  0  0  0  0  0  0  0  0  0  0
    0.9420   -4.3092    4.3528 H   0  0  0  0  0  0  0  0  0  0  0  0
    3.8549    0.7392    3.2910 H   0  0  0  0  0  0  0  0  0  0  0  0
   -0.2836   -2.1507    4.5698 H   0  0  0  0  0  0  0  0  0  0  0  0
    2.2482    1.1534    2.7658 H   0  0  0  0  0  0  0  0  0  0  0  0
    4.1342    0.8430    0.9370 H   0  0  0  0  0  0  0  0  0  0  0  0
    2.5394    0.2016    0.6652 H   0  0  0  0  0  0  0  0  0  0  0  0
    3.0963   -2.0042    0.8148 H   0  0  0  0  0  0  0  0  0  0  0  0
    5.2691   -1.0814    2.6697 H   0  0  0  0  0  0  0  0  0  0  0  0
    6.6321   -2.6222    2.0273 H   0  0  0  0  0  0  0  0  0  0  0  0
    5.6398   -3.7281    2.9138 H   0  0  0  0  0  0  0  0  0  0  0  0
    6.0054   -4.6229    0.6823 H   0  0  0  0  0  0  0  0  0  0  0  0
    4.3226   -4.2591    0.8677 H   0  0  0  0  0  0  0  0  0  0  0  0
    7.0394   -2.1487   -1.7749 H   0  0  0  0  0  0  0  0  0  0  0  0
    7.2652   -3.7873   -1.2291 H   0  0  0  0  0  0  0  0  0  0  0  0
    7.5539   -2.4573   -0.1264 H   0  0  0  0  0  0  0  0  0  0  0  0
    5.0564   -4.1667   -2.2312 H   0  0  0  0  0  0  0  0  0  0  0  0
    3.0253   -4.5170   -1.8755 H   0  0  0  0  0  0  0  0  0  0  0  0
    5.2185   -1.9527   -3.1623 H   0  0  0  0  0  0  0  0  0  0  0  0
    3.4790   -2.1949   -3.1864 H   0  0  0  0  0  0  0  0  0  0  0  0
    4.6516   -0.0783   -1.9092 H   0  0  0  0  0  0  0  0  0  0  0  0
    3.1588   -0.7974   -1.3553 H   0  0  0  0  0  0  0  0  0  0  0  0
    5.7477   -0.7771   -0.0039 H   0  0  0  0  0  0  0  0  0  0  0  0
  2  1  1  1
  1 22  1  0
  1 23  1  0
  1 24  1  0
  2 12  1  0
  2  3  1  0
  2  8  1  0
  3  4  2  0
  3  5  1  0
  5  6  2  0
  5 25  1  0
  6  7  1  0
  6 27  1  0
  7  8  2  0
  8  9  1  0
  9 10  1  0
  9 28  1  0
  9 26  1  0
 10 11  1  0
 10 29  1  0
 10 30  1  0
 11 21  1  0
 11 12  1  0
 11 31  1  6
 12 13  1  0
 12 32  1  1
 13 14  1  0
 13 33  1  0
 13 34  1  0
 14 15  1  0
 14 35  1  0
 14 36  1  0
 15 21  1  0
 15 16  1  6
 15 17  1  0
 16 37  1  0
 16 38  1  0
 16 39  1  0
 17 18  1  0
 17 19  1  0
 17 40  1  6
 18 41  1  0
 19 20  1  0
 19 42  1  0
 19 43  1  0
 20 21  1  0
 20 44  1  0
 20 45  1  0
 21 46  1  1
M  END
>  <i_m_ct_stereo_status>  (168) 
1

>  <s_m_source_file>  (168) 
/var/tmp/pbs.5076255.sched01/tmp2pvlagj1/41_74nrqse.sdf

>  <i_m_source_file_index>  (168) 
28

>  <i_lp_mmshare_version>  (168) 
48012

>  <i_f3d_flags>  (168) 
0

>  <s_epik_input>  (168) 
Tz1DMVtDSDJdW0NIXT1OQyhbQ0BAXTEyW0NIM10pPVtDSF1bQ0gyXVtDQEBIXTNbQ0BASF0yW0NIMl1bQ0gyXVtDQF00KFtDSDNdKVtDQEhdM1tDSDJdW0NIMl1bQ0BASF00W09IXQ==

>  <s_epik_cmdline>  (168) 
J2VwaWtfcHl0aG9uJywgJy1waHQnLCAnMi4wJywgJy1waCcsICc3LjAnLCAnLXRuJywgJzgnLCAnLW1hJywgJzIwMCcsICctaW1hZScsICc8aW5maWxlLm1hZT4nLCAnLW9tYWUnLCAnPG91dGZpbGUubWFlPic=

>  <r_lp_tautomer_probability>  (168) 
0.499993

>  <r_epik_Ionization_Penalty>  (168) 
1.70129e-06

>  <r_epik_Ionization_Penalty_Charging>  (168) 
0

>  <r_epik_Ionization_Penalty_Neutral>  (168) 
1.70129e-06

>  <r_epik_State_Penalty>  (168) 
0.41068

>  <r_epik_Charging_Adjusted_Penalty>  (168) 
0.41068

>  <i_epik_Tot_Q>  (168) 
0

>  <i_epik_Tot_abs_Q>  (168) 
0

>  <s_epik_Chemistry_Notes>  (168) 
This compound has an imine and may undergo hydrolysis.

>  <s_lp_Force_Field>  (168) 
OPLS3e

>  <r_lp_Energy>  (168) 
49.7699

>  <b_lp_Chiralities_Consistent>  (168) 
1

>  <s_lp_Variant>  (168) 
50:0-2

>  <s_i_glide_gridfile>  (168) 
pfpi4k_grid

>  <i_i_glide_lignum>  (168) 
28

>  <i_i_glide_rotatable_bonds>  (168) 
1

>  <r_i_docking_score>  (168) 
-3.69904

>  <r_i_glide_ligand_efficiency>  (168) 
-0.176145

>  <r_i_glide_ligand_efficiency_sa>  (168) 
-0.48597

>  <r_i_glide_ligand_efficiency_ln>  (168) 
-0.91458

>  <r_i_glide_gscore>  (168) 
-3.69904

>  <r_i_glide_lipo>  (168) 
-0.307616

>  <r_i_glide_hbond>  (168) 
-0.32

>  <r_i_glide_metal>  (168) 
-0

>  <r_i_glide_rewards>  (168) 
-1.45129

>  <r_i_glide_evdw>  (168) 
-22.4294

>  <r_i_glide_ecoul>  (168) 
-3.32204

>  <r_i_glide_erotb>  (168) 
0

>  <r_i_glide_esite>  (168) 
-0.000357451

>  <r_i_glide_emodel>  (168) 
-30.6055

>  <r_i_glide_energy>  (168) 
-25.7515

>  <r_i_glide_einternal>  (168) 
1.07989

>  <r_i_glide_intrahb_reward>  (168) 
-0

>  <i_i_glide_confnum>  (168) 
1

>  <i_i_glide_posenum>  (168) 
24

>  <r_i_glide_eff_state_penalty>  (168) 
0

>  <ligand_id>  (168) 
50

>  <original_smiles>  (168) 
CC12C(=O)CC=NC1=CCC1C2CCC2(C)C(O)CCC12

>  <smiles>  (168) 
[H]OC1([H])C([H])([H])C([H])([H])C2([H])C3([H])C([H])([H])C([H])([H])C4=NC([H])=C([H])C(=O)C4(C([H])([H])[H])C3([H])C([H])([H])C([H])([H])C12C([H])([H])[H]

$$$$
50:1:1
     RDKit          3D

 46 49  0  0  1  0  0  0  0  0999 V2000
    4.8266   -3.1516    3.8253 C   0  0  0  0  0  0  0  0  0  0  0  0
    3.8443   -2.7996    2.6818 C   0  0  1  0  0  0  0  0  0  0  0  0
    2.7232   -3.8773    2.7089 C   0  0  0  0  0  0  0  0  0  0  0  0
    2.8308   -4.9406    2.0973 O   0  0  0  0  0  0  0  0  0  0  0  0
    1.5629   -3.6300    3.5837 C   0  0  0  0  0  0  0  0  0  0  0  0
    1.3329   -2.3824    4.0318 C   0  0  0  0  0  0  0  0  0  0  0  0
    2.0961   -1.2728    3.6744 N   0  0  0  0  0  0  0  0  0  0  0  0
    3.1816   -1.4286    3.0178 C   0  0  0  0  0  0  0  0  0  0  0  0
    3.9011   -0.2382    2.4169 C   0  0  0  0  0  0  0  0  0  0  0  0
    3.8913   -0.3036    0.8759 C   0  0  0  0  0  0  0  0  0  0  0  0
    3.9266   -1.7413    0.2988 C   0  0  2  0  0  0  0  0  0  0  0  0
    4.6470   -2.6778    1.3137 C   0  0  2  0  0  0  0  0  0  0  0  0
    5.1848   -3.9713    0.6409 C   0  0  0  0  0  0  0  0  0  0  0  0
    4.4140   -4.3347   -0.6402 C   0  0  0  0  0  0  0  0  0  0  0  0
    4.5088   -3.2303   -1.7291 C   0  0  1  0  0  0  0  0  0  0  0  0
    5.8106   -3.4315   -2.5331 C   0  0  0  0  0  0  0  0  0  0  0  0
    3.3163   -3.2182   -2.7269 C   0  0  1  0  0  0  0  0  0  0  0  0
    2.0554   -3.3788   -2.0909 O   0  0  0  0  0  0  0  0  0  0  0  0
    3.3464   -1.8280   -3.3382 C   0  0  0  0  0  0  0  0  0  0  0  0
    3.7740   -0.9582   -2.1680 C   0  0  0  0  0  0  0  0  0  0  0  0
    4.5332   -1.8079   -1.1332 C   0  0  1  0  0  0  0  0  0  0  0  0
    4.3139   -3.2214    4.7854 H   0  0  0  0  0  0  0  0  0  0  0  0
    5.6073   -2.3987    3.9403 H   0  0  0  0  0  0  0  0  0  0  0  0
    5.3201   -4.1097    3.6586 H   0  0  0  0  0  0  0  0  0  0  0  0
    0.9227   -4.4626    3.8402 H   0  0  0  0  0  0  0  0  0  0  0  0
    4.9276   -0.2264    2.7846 H   0  0  0  0  0  0  0  0  0  0  0  0
    0.4793   -2.1655    4.6647 H   0  0  0  0  0  0  0  0  0  0  0  0
    3.4358    0.6864    2.7580 H   0  0  0  0  0  0  0  0  0  0  0  0
    4.7147    0.2980    0.4834 H   0  0  0  0  0  0  0  0  0  0  0  0
    2.9770    0.1646    0.5218 H   0  0  0  0  0  0  0  0  0  0  0  0
    2.8913   -2.0898    0.2271 H   0  0  0  0  0  0  0  0  0  0  0  0
    5.5722   -2.1590    1.5679 H   0  0  0  0  0  0  0  0  0  0  0  0
    6.2411   -3.8412    0.3872 H   0  0  0  0  0  0  0  0  0  0  0  0
    5.1832   -4.8135    1.3286 H   0  0  0  0  0  0  0  0  0  0  0  0
    4.7839   -5.2774   -1.0356 H   0  0  0  0  0  0  0  0  0  0  0  0
    3.3787   -4.5387   -0.3666 H   0  0  0  0  0  0  0  0  0  0  0  0
    5.9660   -2.6522   -3.2713 H   0  0  0  0  0  0  0  0  0  0  0  0
    5.7599   -4.3610   -3.0863 H   0  0  0  0  0  0  0  0  0  0  0  0
    6.6958   -3.4559   -1.8975 H   0  0  0  0  0  0  0  0  0  0  0  0
    3.4211   -3.9735   -3.5041 H   0  0  0  0  0  0  0  0  0  0  0  0
    1.8160   -2.5600   -1.6673 H   0  0  0  0  0  0  0  0  0  0  0  0
    4.0650   -1.7537   -4.1536 H   0  0  0  0  0  0  0  0  0  0  0  0
    2.3744   -1.5246   -3.7320 H   0  0  0  0  0  0  0  0  0  0  0  0
    4.3362   -0.0774   -2.4875 H   0  0  0  0  0  0  0  0  0  0  0  0
    2.8276   -0.6683   -1.7196 H   0  0  0  0  0  0  0  0  0  0  0  0
    5.5599   -1.4482   -1.0594 H   0  0  0  0  0  0  0  0  0  0  0  0
  2  1  1  1
  1 22  1  0
  1 23  1  0
  1 24  1  0
  2 12  1  0
  2  3  1  0
  2  8  1  0
  3  4  2  0
  3  5  1  0
  5  6  2  0
  5 25  1  0
  6  7  1  0
  6 27  1  0
  7  8  2  0
  8  9  1  0
  9 10  1  0
  9 28  1  0
  9 26  1  0
 10 11  1  0
 10 29  1  0
 10 30  1  0
 11 21  1  0
 11 12  1  0
 11 31  1  6
 12 13  1  0
 12 32  1  1
 13 14  1  0
 13 33  1  0
 13 34  1  0
 14 15  1  0
 14 35  1  0
 14 36  1  0
 15 21  1  0
 15 16  1  6
 15 17  1  0
 16 37  1  0
 16 38  1  0
 16 39  1  0
 17 18  1  0
 17 19  1  0
 17 40  1  6
 18 41  1  0
 19 20  1  0
 19 42  1  0
 19 43  1  0
 20 21  1  0
 20 44  1  0
 20 45  1  0
 21 46  1  1
M  END
>  <i_m_ct_stereo_status>  (169) 
1

>  <s_m_source_file>  (169) 
/var/tmp/pbs.5076255.sched01/tmp2pvlagj1/41_74nrqse.sdf

>  <i_m_source_file_index>  (169) 
28

>  <i_lp_mmshare_version>  (169) 
48012

>  <i_f3d_flags>  (169) 
0

>  <s_epik_input>  (169) 
Tz1DMVtDSDJdW0NIXT1OQyhbQ0BAXTEyW0NIM10pPVtDSF1bQ0gyXVtDQEBIXTNbQ0BASF0yW0NIMl1bQ0gyXVtDQF00KFtDSDNdKVtDQEhdM1tDSDJdW0NIMl1bQ0BASF00W09IXQ==

>  <s_epik_cmdline>  (169) 
J2VwaWtfcHl0aG9uJywgJy1waHQnLCAnMi4wJywgJy1waCcsICc3LjAnLCAnLXRuJywgJzgnLCAnLW1hJywgJzIwMCcsICctaW1hZScsICc8aW5maWxlLm1hZT4nLCAnLW9tYWUnLCAnPG91dGZpbGUubWFlPic=

>  <r_lp_tautomer_probability>  (169) 
0.499993

>  <r_epik_Ionization_Penalty>  (169) 
1.70129e-06

>  <r_epik_Ionization_Penalty_Charging>  (169) 
0

>  <r_epik_Ionization_Penalty_Neutral>  (169) 
1.70129e-06

>  <r_epik_State_Penalty>  (169) 
0.41068

>  <r_epik_Charging_Adjusted_Penalty>  (169) 
0.41068

>  <i_epik_Tot_Q>  (169) 
0

>  <i_epik_Tot_abs_Q>  (169) 
0

>  <s_epik_Chemistry_Notes>  (169) 
This compound has an imine and may undergo hydrolysis.

>  <s_lp_Force_Field>  (169) 
OPLS3e

>  <r_lp_Energy>  (169) 
49.7699

>  <b_lp_Chiralities_Consistent>  (169) 
1

>  <s_lp_Variant>  (169) 
50:0-2

>  <s_i_glide_gridfile>  (169) 
pfpi4k_grid

>  <i_i_glide_lignum>  (169) 
28

>  <i_i_glide_rotatable_bonds>  (169) 
1

>  <r_i_docking_score>  (169) 
-3.43962

>  <r_i_glide_ligand_efficiency>  (169) 
-0.163792

>  <r_i_glide_ligand_efficiency_sa>  (169) 
-0.451888

>  <r_i_glide_ligand_efficiency_ln>  (169) 
-0.85044

>  <r_i_glide_gscore>  (169) 
-3.43962

>  <r_i_glide_lipo>  (169) 
-0.623271

>  <r_i_glide_hbond>  (169) 
-0.147405

>  <r_i_glide_metal>  (169) 
-0

>  <r_i_glide_rewards>  (169) 
-1.44957

>  <r_i_glide_evdw>  (169) 
-24.201

>  <r_i_glide_ecoul>  (169) 
-0.0403023

>  <r_i_glide_erotb>  (169) 
0

>  <r_i_glide_esite>  (169) 
-0.00328288

>  <r_i_glide_emodel>  (169) 
-29.0827

>  <r_i_glide_energy>  (169) 
-24.2413

>  <r_i_glide_einternal>  (169) 
0.39089

>  <r_i_glide_intrahb_reward>  (169) 
-0

>  <i_i_glide_confnum>  (169) 
2

>  <i_i_glide_posenum>  (169) 
15

>  <r_i_glide_eff_state_penalty>  (169) 
0

>  <ligand_id>  (169) 
50

>  <original_smiles>  (169) 
CC12C(=O)CC=NC1=CCC1C2CCC2(C)C(O)CCC12

>  <smiles>  (169) 
[H]OC1([H])C([H])([H])C([H])([H])C2([H])C3([H])C([H])([H])C([H])([H])C4=NC([H])=C([H])C(=O)C4(C([H])([H])[H])C3([H])C([H])([H])C([H])([H])C12C([H])([H])[H]

$$$$
50:1:2
     RDKit          3D

 46 49  0  0  1  0  0  0  0  0999 V2000
    3.4212   -1.4747    5.4952 C   0  0  0  0  0  0  0  0  0  0  0  0
    2.8149   -1.5697    4.0715 C   0  0  1  0  0  0  0  0  0  0  0  0
    1.7636   -2.7134    4.1041 C   0  0  0  0  0  0  0  0  0  0  0  0
    2.0890   -3.8775    3.9016 O   0  0  0  0  0  0  0  0  0  0  0  0
    0.3873   -2.3700    4.5085 C   0  0  0  0  0  0  0  0  0  0  0  0
   -0.0016   -1.0891    4.4899 C   0  0  0  0  0  0  0  0  0  0  0  0
    0.8125   -0.0428    4.0522 N   0  0  0  0  0  0  0  0  0  0  0  0
    2.0400   -0.2522    3.7856 C   0  0  0  0  0  0  0  0  0  0  0  0
    2.8637    0.8099    3.0761 C   0  0  0  0  0  0  0  0  0  0  0  0
    3.3124    0.3219    1.6849 C   0  0  0  0  0  0  0  0  0  0  0  0
    3.5566   -1.2067    1.6006 C   0  0  2  0  0  0  0  0  0  0  0  0
    3.9767   -1.7375    3.0055 C   0  0  2  0  0  0  0  0  0  0  0  0
    4.7301   -3.0934    2.9210 C   0  0  0  0  0  0  0  0  0  0  0  0
    4.3833   -3.8863    1.6487 C   0  0  0  0  0  0  0  0  0  0  0  0
    4.7744   -3.1205    0.3523 C   0  0  1  0  0  0  0  0  0  0  0  0
    6.2696   -3.4014    0.0425 C   0  0  0  0  0  0  0  0  0  0  0  0
    3.9361   -3.5247   -0.8886 C   0  0  1  0  0  0  0  0  0  0  0  0
    2.5555   -3.6614   -0.6096 O   0  0  0  0  0  0  0  0  0  0  0  0
    4.0666   -2.3380   -1.8419 C   0  0  0  0  0  0  0  0  0  0  0  0
    4.1056   -1.1133   -0.9235 C   0  0  0  0  0  0  0  0  0  0  0  0
    4.5580   -1.5868    0.4781 C   0  0  1  0  0  0  0  0  0  0  0  0
    2.6467   -1.3352    6.2487 H   0  0  0  0  0  0  0  0  0  0  0  0
    4.1109   -0.6345    5.5904 H   0  0  0  0  0  0  0  0  0  0  0  0
    3.9672   -2.3797    5.7599 H   0  0  0  0  0  0  0  0  0  0  0  0
   -0.2698   -3.1820    4.8101 H   0  0  0  0  0  0  0  0  0  0  0  0
    3.7298    1.0428    3.6879 H   0  0  0  0  0  0  0  0  0  0  0  0
   -1.0151   -0.8034    4.7690 H   0  0  0  0  0  0  0  0  0  0  0  0
    2.2911    1.7338    2.9897 H   0  0  0  0  0  0  0  0  0  0  0  0
    4.2026    0.8770    1.3679 H   0  0  0  0  0  0  0  0  0  0  0  0
    2.5390    0.5802    0.9720 H   0  0  0  0  0  0  0  0  0  0  0  0
    2.6001   -1.6842    1.3516 H   0  0  0  0  0  0  0  0  0  0  0  0
    4.7674   -1.0676    3.3360 H   0  0  0  0  0  0  0  0  0  0  0  0
    5.8143   -2.9143    2.9399 H   0  0  0  0  0  0  0  0  0  0  0  0
    4.5482   -3.7080    3.7995 H   0  0  0  0  0  0  0  0  0  0  0  0
    4.8866   -4.8475    1.6722 H   0  0  0  0  0  0  0  0  0  0  0  0
    3.3141   -4.1257    1.6714 H   0  0  0  0  0  0  0  0  0  0  0  0
    6.6188   -2.8448   -0.8265 H   0  0  0  0  0  0  0  0  0  0  0  0
    6.4377   -4.4560   -0.1694 H   0  0  0  0  0  0  0  0  0  0  0  0
    6.9172   -3.1275    0.8736 H   0  0  0  0  0  0  0  0  0  0  0  0
    4.2884   -4.4502   -1.3409 H   0  0  0  0  0  0  0  0  0  0  0  0
    2.1871   -2.7871   -0.5403 H   0  0  0  0  0  0  0  0  0  0  0  0
    4.9991   -2.4082   -2.4037 H   0  0  0  0  0  0  0  0  0  0  0  0
    3.2555   -2.2853   -2.5727 H   0  0  0  0  0  0  0  0  0  0  0  0
    4.7598   -0.3396   -1.3250 H   0  0  0  0  0  0  0  0  0  0  0  0
    3.1031   -0.6885   -0.8761 H   0  0  0  0  0  0  0  0  0  0  0  0
    5.5104   -1.1062    0.7149 H   0  0  0  0  0  0  0  0  0  0  0  0
  2  1  1  1
  1 22  1  0
  1 23  1  0
  1 24  1  0
  2 12  1  0
  2  3  1  0
  2  8  1  0
  3  4  2  0
  3  5  1  0
  5  6  2  0
  5 25  1  0
  6  7  1  0
  6 27  1  0
  7  8  2  0
  8  9  1  0
  9 10  1  0
  9 28  1  0
  9 26  1  0
 10 11  1  0
 10 29  1  0
 10 30  1  0
 11 21  1  0
 11 12  1  0
 11 31  1  6
 12 13  1  0
 12 32  1  1
 13 14  1  0
 13 33  1  0
 13 34  1  0
 14 15  1  0
 14 35  1  0
 14 36  1  0
 15 21  1  0
 15 16  1  6
 15 17  1  0
 16 37  1  0
 16 38  1  0
 16 39  1  0
 17 18  1  0
 17 19  1  0
 17 40  1  6
 18 41  1  0
 19 20  1  0
 19 42  1  0
 19 43  1  0
 20 21  1  0
 20 44  1  0
 20 45  1  0
 21 46  1  1
M  END
>  <i_m_ct_stereo_status>  (170) 
1

>  <s_m_source_file>  (170) 
/var/tmp/pbs.5076255.sched01/tmp2pvlagj1/41_74nrqse.sdf

>  <i_m_source_file_index>  (170) 
28

>  <i_lp_mmshare_version>  (170) 
48012

>  <i_f3d_flags>  (170) 
0

>  <s_epik_input>  (170) 
Tz1DMVtDSDJdW0NIXT1OQyhbQ0BAXTEyW0NIM10pPVtDSF1bQ0gyXVtDQEBIXTNbQ0BASF0yW0NIMl1bQ0gyXVtDQF00KFtDSDNdKVtDQEhdM1tDSDJdW0NIMl1bQ0BASF00W09IXQ==

>  <s_epik_cmdline>  (170) 
J2VwaWtfcHl0aG9uJywgJy1waHQnLCAnMi4wJywgJy1waCcsICc3LjAnLCAnLXRuJywgJzgnLCAnLW1hJywgJzIwMCcsICctaW1hZScsICc8aW5maWxlLm1hZT4nLCAnLW9tYWUnLCAnPG91dGZpbGUubWFlPic=

>  <r_lp_tautomer_probability>  (170) 
0.499993

>  <r_epik_Ionization_Penalty>  (170) 
1.70129e-06

>  <r_epik_Ionization_Penalty_Charging>  (170) 
0

>  <r_epik_Ionization_Penalty_Neutral>  (170) 
1.70129e-06

>  <r_epik_State_Penalty>  (170) 
0.41068

>  <r_epik_Charging_Adjusted_Penalty>  (170) 
0.41068

>  <i_epik_Tot_Q>  (170) 
0

>  <i_epik_Tot_abs_Q>  (170) 
0

>  <s_epik_Chemistry_Notes>  (170) 
This compound has an imine and may undergo hydrolysis.

>  <s_lp_Force_Field>  (170) 
OPLS3e

>  <r_lp_Energy>  (170) 
49.7699

>  <b_lp_Chiralities_Consistent>  (170) 
1

>  <s_lp_Variant>  (170) 
50:0-2

>  <s_i_glide_gridfile>  (170) 
pfpi4k_grid

>  <i_i_glide_lignum>  (170) 
28

>  <i_i_glide_rotatable_bonds>  (170) 
1

>  <r_i_docking_score>  (170) 
-2.95661

>  <r_i_glide_ligand_efficiency>  (170) 
-0.140791

>  <r_i_glide_ligand_efficiency_sa>  (170) 
-0.388432

>  <r_i_glide_ligand_efficiency_ln>  (170) 
-0.731016

>  <r_i_glide_gscore>  (170) 
-2.95661

>  <r_i_glide_lipo>  (170) 
-0.291864

>  <r_i_glide_hbond>  (170) 
-0.0468698

>  <r_i_glide_metal>  (170) 
-0

>  <r_i_glide_rewards>  (170) 
-1.46206

>  <r_i_glide_evdw>  (170) 
-21.5908

>  <r_i_glide_ecoul>  (170) 
-0.499073

>  <r_i_glide_erotb>  (170) 
0

>  <r_i_glide_esite>  (170) 
-0.00141294

>  <r_i_glide_emodel>  (170) 
-26.3427

>  <r_i_glide_energy>  (170) 
-22.0899

>  <r_i_glide_einternal>  (170) 
0.375379

>  <r_i_glide_intrahb_reward>  (170) 
-0

>  <i_i_glide_confnum>  (170) 
1

>  <i_i_glide_posenum>  (170) 
25

>  <r_i_glide_eff_state_penalty>  (170) 
0

>  <ligand_id>  (170) 
50

>  <original_smiles>  (170) 
CC12C(=O)CC=NC1=CCC1C2CCC2(C)C(O)CCC12

>  <smiles>  (170) 
[H]OC1([H])C([H])([H])C([H])([H])C2([H])C3([H])C([H])([H])C([H])([H])C4=NC([H])=C([H])C(=O)C4(C([H])([H])[H])C3([H])C([H])([H])C([H])([H])C12C([H])([H])[H]

$$$$
52:0:0
     RDKit          3D

 58 62  0  0  1  0  0  0  0  0999 V2000
    2.5119   -1.0318    3.5964 C   0  0  0  0  0  0  0  0  0  0  0  0
    3.3325   -2.0466    3.2830 C   0  0  0  0  0  0  0  0  0  0  0  0
    4.7733   -1.7309    2.8532 C   0  0  0  0  0  0  0  0  0  0  0  0
    5.4573   -0.8105    3.2980 O   0  0  0  0  0  0  0  0  0  0  0  0
    5.3175   -2.7108    1.7614 C   0  0  2  0  0  0  0  0  0  0  0  0
    6.7087   -2.9812    1.6796 O   0  0  0  0  0  0  0  0  0  0  0  0
    7.0365   -4.1991    0.9360 C   0  0  0  0  0  0  0  0  0  0  0  0
    8.0874   -3.7964   -0.1248 C   0  0  0  0  0  0  0  0  0  0  0  0
    7.7919   -5.1120    1.9229 C   0  0  0  0  0  0  0  0  0  0  0  0
    5.7445   -4.9847    0.3536 C   0  0  2  0  0  0  0  0  0  0  0  0
    5.1244   -4.3491   -0.8935 C   0  0  0  0  0  0  0  0  0  0  0  0
    5.1112   -2.8404   -0.9328 C   0  0  0  0  0  0  0  0  0  0  0  0
    5.2549   -2.2929   -2.0308 O   0  0  0  0  0  0  0  0  0  0  0  0
    4.8980   -2.0125    0.3486 C   0  0  0  0  0  0  0  0  0  0  0  0
    3.4197   -1.5656    0.2510 C   0  0  0  0  0  0  0  0  0  0  0  0
    5.7340   -0.7120    0.1817 C   0  0  0  0  0  0  0  0  0  0  0  0
    4.6625   -5.3503    1.4730 C   0  0  2  0  0  0  0  0  0  0  0  0
    3.0456   -5.3423    1.3397 C   0  0  2  0  0  0  0  0  0  0  0  0
    2.2138   -4.4844    2.4705 C   0  0  0  0  0  0  0  0  0  0  0  0
    2.9787   -3.5599    3.5619 C   0  0  1  0  0  0  0  0  0  0  0  0
    4.3246   -4.1896    3.7936 C   0  0  1  0  0  0  0  0  0  0  0  0
    4.2336   -5.3966    4.5078 O   0  0  0  0  0  0  0  0  0  0  0  0
    4.8619   -4.1153    2.3197 C   0  0  1  0  0  0  0  0  0  0  0  0
    2.6413   -6.6985    1.3884 O   0  0  0  0  0  0  0  0  0  0  0  0
    3.4743   -7.3845    2.3014 C   0  0  1  0  0  0  0  0  0  0  0  0
    3.2895   -8.9018    2.1406 C   0  0  0  0  0  0  0  0  0  0  0  0
    4.8925   -6.7829    2.0853 C   0  0  1  0  0  0  0  0  0  0  0  0
    5.6105   -7.6839    1.2714 O   0  0  0  0  0  0  0  0  0  0  0  0
    1.5157   -1.2074    3.9850 H   0  0  0  0  0  0  0  0  0  0  0  0
    2.8270   -0.0012    3.4852 H   0  0  0  0  0  0  0  0  0  0  0  0
    8.3760   -4.6603   -0.7067 H   0  0  0  0  0  0  0  0  0  0  0  0
    9.0132   -3.4381    0.3311 H   0  0  0  0  0  0  0  0  0  0  0  0
    7.7544   -3.0153   -0.8098 H   0  0  0  0  0  0  0  0  0  0  0  0
    8.0357   -6.0829    1.4855 H   0  0  0  0  0  0  0  0  0  0  0  0
    7.2150   -5.2892    2.8271 H   0  0  0  0  0  0  0  0  0  0  0  0
    8.7306   -4.6575    2.2407 H   0  0  0  0  0  0  0  0  0  0  0  0
    6.1552   -5.8908   -0.0755 H   0  0  0  0  0  0  0  0  0  0  0  0
    5.7510   -4.6291   -1.7382 H   0  0  0  0  0  0  0  0  0  0  0  0
    4.1434   -4.7444   -1.1257 H   0  0  0  0  0  0  0  0  0  0  0  0
    3.1903   -0.7041    0.8787 H   0  0  0  0  0  0  0  0  0  0  0  0
    2.7162   -2.3629    0.5084 H   0  0  0  0  0  0  0  0  0  0  0  0
    3.1546   -1.2419   -0.7598 H   0  0  0  0  0  0  0  0  0  0  0  0
    5.4462    0.0714    0.8806 H   0  0  0  0  0  0  0  0  0  0  0  0
    5.5949   -0.2612   -0.7974 H   0  0  0  0  0  0  0  0  0  0  0  0
    6.8066   -0.8855    0.3175 H   0  0  0  0  0  0  0  0  0  0  0  0
    2.7526   -4.9621    0.3601 H   0  0  0  0  0  0  0  0  0  0  0  0
    1.5037   -3.8298    1.9675 H   0  0  0  0  0  0  0  0  0  0  0  0
    1.5903   -5.1867    3.0293 H   0  0  0  0  0  0  0  0  0  0  0  0
    2.3979   -3.5740    4.4886 H   0  0  0  0  0  0  0  0  0  0  0  0
    4.9350   -3.5978    4.4807 H   0  0  0  0  0  0  0  0  0  0  0  0
    3.6821   -5.9899    4.0222 H   0  0  0  0  0  0  0  0  0  0  0  0
    4.1541   -3.6450    1.6733 H   0  0  0  0  0  0  0  0  0  0  0  0
    3.1171   -7.1482    3.3012 H   0  0  0  0  0  0  0  0  0  0  0  0
    3.9393   -9.4623    2.8117 H   0  0  0  0  0  0  0  0  0  0  0  0
    3.4773   -9.2396    1.1207 H   0  0  0  0  0  0  0  0  0  0  0  0
    2.2647   -9.1831    2.3840 H   0  0  0  0  0  0  0  0  0  0  0  0
    5.4776   -6.7682    3.0016 H   0  0  0  0  0  0  0  0  0  0  0  0
    5.6020   -8.5309    1.6924 H   0  0  0  0  0  0  0  0  0  0  0  0
  1  2  2  0
  1 29  1  0
  1 30  1  0
  2 20  1  0
  2  3  1  0
  3  4  2  0
  5  3  1  1
  5 14  1  0
  5 23  1  0
  5  6  1  0
  6  7  1  0
  7  8  1  0
  7  9  1  0
  7 10  1  0
  8 31  1  0
  8 32  1  0
  8 33  1  0
  9 34  1  0
  9 35  1  0
  9 36  1  0
 10 11  1  0
 10 17  1  0
 10 37  1  6
 11 12  1  0
 11 38  1  0
 11 39  1  0
 12 13  2  0
 12 14  1  0
 14 15  1  0
 14 16  1  0
 15 40  1  0
 15 41  1  0
 15 42  1  0
 16 43  1  0
 16 44  1  0
 16 45  1  0
 17 23  1  0
 17 27  1  0
 17 18  1  6
 18 19  1  0
 18 24  1  0
 18 46  1  6
 19 20  1  0
 19 47  1  0
 19 48  1  0
 20 21  1  0
 20 49  1  1
 21 22  1  0
 21 23  1  0
 21 50  1  1
 22 51  1  0
 23 52  1  1
 24 25  1  0
 25 26  1  0
 25 27  1  0
 25 53  1  1
 26 54  1  0
 26 55  1  0
 26 56  1  0
 27 28  1  0
 27 57  1  1
 28 58  1  0
M  END
>  <i_m_ct_stereo_status>  (171) 
1

>  <s_m_source_file>  (171) 
/var/tmp/pbs.5076255.sched01/tmp2pvlagj1/41_74nrqse.sdf

>  <i_m_source_file_index>  (171) 
33

>  <i_lp_mmshare_version>  (171) 
48012

>  <i_f3d_flags>  (171) 
0

>  <s_epik_input>  (171) 
Tz1DMUMoPVtDSDJdKVtDQEhdKFtDQEhdMltPSF0pW0NIMl1bQ0BIXShPW0NAQEhdKFtDSDNdKVtDQEhdM1tPSF0pQzMoW0NAQEhdMltDQEBdMTQ1KVtDQEhdKEMoTzQpKFtDSDNdKVtDSDNdKVtDSDJdQyg9TylDNShbQ0gzXSlbQ0gzXQ==

>  <s_epik_cmdline>  (171) 
J2VwaWtfcHl0aG9uJywgJy1waHQnLCAnMi4wJywgJy1waCcsICc3LjAnLCAnLXRuJywgJzgnLCAnLW1hJywgJzIwMCcsICctaW1hZScsICc8aW5maWxlLm1hZT4nLCAnLW9tYWUnLCAnPG91dGZpbGUubWFlPic=

>  <r_lp_tautomer_probability>  (171) 
1

>  <r_epik_Ionization_Penalty>  (171) 
5.50717e-07

>  <r_epik_Ionization_Penalty_Charging>  (171) 
0

>  <r_epik_Ionization_Penalty_Neutral>  (171) 
5.50717e-07

>  <r_epik_State_Penalty>  (171) 
-0

>  <r_epik_Charging_Adjusted_Penalty>  (171) 
0

>  <i_epik_Tot_Q>  (171) 
0

>  <i_epik_Tot_abs_Q>  (171) 
0

>  <s_lp_Force_Field>  (171) 
OPLS3e

>  <r_lp_Energy>  (171) 
186.653

>  <b_lp_Chiralities_Consistent>  (171) 
1

>  <s_lp_Variant>  (171) 
52:0-1

>  <s_i_glide_gridfile>  (171) 
pfpi4k_grid

>  <i_i_glide_lignum>  (171) 
33

>  <i_i_glide_rotatable_bonds>  (171) 
2

>  <r_i_docking_score>  (171) 
-3.19172

>  <r_i_glide_ligand_efficiency>  (171) 
-0.11399

>  <r_i_glide_ligand_efficiency_sa>  (171) 
-0.346141

>  <r_i_glide_ligand_efficiency_ln>  (171) 
-0.736744

>  <r_i_glide_gscore>  (171) 
-3.19172

>  <r_i_glide_lipo>  (171) 
-0.705017

>  <r_i_glide_hbond>  (171) 
0

>  <r_i_glide_metal>  (171) 
-0

>  <r_i_glide_rewards>  (171) 
-0.831778

>  <r_i_glide_evdw>  (171) 
-24.1905

>  <r_i_glide_ecoul>  (171) 
-2.96936

>  <r_i_glide_erotb>  (171) 
0

>  <r_i_glide_esite>  (171) 
0

>  <r_i_glide_emodel>  (171) 
-32.8155

>  <r_i_glide_energy>  (171) 
-27.1599

>  <r_i_glide_einternal>  (171) 
0.346832

>  <r_i_glide_intrahb_reward>  (171) 
-0

>  <i_i_glide_confnum>  (171) 
2

>  <i_i_glide_posenum>  (171) 
28

>  <r_i_glide_eff_state_penalty>  (171) 
0

>  <ligand_id>  (171) 
52

>  <original_smiles>  (171) 
C=C1C(=O)C23OC(C)(C)C(CC(=O)C2(C)C)C24C(CC1C(O)C23)OC(C)C4O

>  <smiles>  (171) 
[H]OC1([H])C2([H])C(=C([H])[H])C(=O)C34OC(C([H])([H])[H])(C([H])([H])[H])C([H])(C([H])([H])C(=O)C3(C([H])([H])[H])C([H])([H])[H])C3(C([H])(OC([H])(C([H])([H])[H])C3([H])O[H])C2([H])[H])C14[H]

$$$$
52:0:1
     RDKit          3D

 58 62  0  0  1  0  0  0  0  0999 V2000
    2.5092   -1.2430    3.7997 C   0  0  0  0  0  0  0  0  0  0  0  0
    3.3292   -2.2324    3.4075 C   0  0  0  0  0  0  0  0  0  0  0  0
    4.7613   -1.8754    2.9743 C   0  0  0  0  0  0  0  0  0  0  0  0
    5.4265   -0.9645    3.4536 O   0  0  0  0  0  0  0  0  0  0  0  0
    5.2948   -2.7895    1.8112 C   0  0  2  0  0  0  0  0  0  0  0  0
    6.6873   -3.0445    1.6732 O   0  0  0  0  0  0  0  0  0  0  0  0
    7.0105   -4.2213    0.8534 C   0  0  0  0  0  0  0  0  0  0  0  0
    8.0380   -3.7365   -0.1982 C   0  0  0  0  0  0  0  0  0  0  0  0
    7.7851   -5.1778    1.7833 C   0  0  0  0  0  0  0  0  0  0  0  0
    5.6991   -4.9743    0.2570 C   0  0  2  0  0  0  0  0  0  0  0  0
    5.0606   -4.2680   -0.9430 C   0  0  0  0  0  0  0  0  0  0  0  0
    5.0403   -2.7613   -0.8849 C   0  0  0  0  0  0  0  0  0  0  0  0
    5.1592   -2.1431   -1.9522 O   0  0  0  0  0  0  0  0  0  0  0  0
    4.8517   -2.0134    0.4520 C   0  0  0  0  0  0  0  0  0  0  0  0
    3.3655   -1.5679    0.4089 C   0  0  0  0  0  0  0  0  0  0  0  0
    5.6770   -0.6987    0.3548 C   0  0  0  0  0  0  0  0  0  0  0  0
    4.6422   -5.4108    1.3780 C   0  0  2  0  0  0  0  0  0  0  0  0
    3.0202   -5.4063    1.2777 C   0  0  2  0  0  0  0  0  0  0  0  0
    2.2027   -4.6146    2.4660 C   0  0  0  0  0  0  0  0  0  0  0  0
    2.9882   -3.7574    3.6004 C   0  0  1  0  0  0  0  0  0  0  0  0
    4.3444   -4.3883    3.7667 C   0  0  1  0  0  0  0  0  0  0  0  0
    4.2429   -5.6462    4.3863 O   0  0  0  0  0  0  0  0  0  0  0  0
    4.8541   -4.2248    2.2923 C   0  0  1  0  0  0  0  0  0  0  0  0
    2.6283   -6.7677    1.2506 O   0  0  0  0  0  0  0  0  0  0  0  0
    3.4784   -7.4980    2.1168 C   0  0  1  0  0  0  0  0  0  0  0  0
    3.2973   -9.0044    1.8643 C   0  0  0  0  0  0  0  0  0  0  0  0
    4.8847   -6.8745    1.9028 C   0  0  1  0  0  0  0  0  0  0  0  0
    5.5610   -7.7272    1.0077 O   0  0  0  0  0  0  0  0  0  0  0  0
    1.5256   -1.4508    4.1997 H   0  0  0  0  0  0  0  0  0  0  0  0
    2.8205   -0.2083    3.7413 H   0  0  0  0  0  0  0  0  0  0  0  0
    8.3324   -4.5504   -0.8493 H   0  0  0  0  0  0  0  0  0  0  0  0
    8.9635   -3.3924    0.2720 H   0  0  0  0  0  0  0  0  0  0  0  0
    7.6814   -2.9093   -0.8116 H   0  0  0  0  0  0  0  0  0  0  0  0
    8.0219   -6.1155    1.2804 H   0  0  0  0  0  0  0  0  0  0  0  0
    7.2259   -5.4130    2.6866 H   0  0  0  0  0  0  0  0  0  0  0  0
    8.7261   -4.7288    2.1090 H   0  0  0  0  0  0  0  0  0  0  0  0
    6.1067   -5.8529   -0.2277 H   0  0  0  0  0  0  0  0  0  0  0  0
    5.6672   -4.4930   -1.8161 H   0  0  0  0  0  0  0  0  0  0  0  0
    4.0708   -4.6479   -1.1789 H   0  0  0  0  0  0  0  0  0  0  0  0
    3.1533   -0.7476    1.0925 H   0  0  0  0  0  0  0  0  0  0  0  0
    2.6794   -2.3843    0.6326 H   0  0  0  0  0  0  0  0  0  0  0  0
    3.0846   -1.1848   -0.5745 H   0  0  0  0  0  0  0  0  0  0  0  0
    5.3941    0.0389    1.1037 H   0  0  0  0  0  0  0  0  0  0  0  0
    5.5053   -0.2172   -0.6003 H   0  0  0  0  0  0  0  0  0  0  0  0
    6.7512   -0.8688    0.4507 H   0  0  0  0  0  0  0  0  0  0  0  0
    2.7112   -4.9677    0.3277 H   0  0  0  0  0  0  0  0  0  0  0  0
    1.4613   -3.9496    2.0201 H   0  0  0  0  0  0  0  0  0  0  0  0
    1.6075   -5.3606    2.9972 H   0  0  0  0  0  0  0  0  0  0  0  0
    2.4279   -3.8310    4.5367 H   0  0  0  0  0  0  0  0  0  0  0  0
    4.9746   -3.8501    4.4822 H   0  0  0  0  0  0  0  0  0  0  0  0
    3.9470   -5.5215    5.2722 H   0  0  0  0  0  0  0  0  0  0  0  0
    4.1289   -3.7251    1.6884 H   0  0  0  0  0  0  0  0  0  0  0  0
    3.1320   -7.3223    3.1308 H   0  0  0  0  0  0  0  0  0  0  0  0
    3.9726   -9.5938    2.4838 H   0  0  0  0  0  0  0  0  0  0  0  0
    3.4701   -9.2831    0.8258 H   0  0  0  0  0  0  0  0  0  0  0  0
    2.2818   -9.3109    2.1110 H   0  0  0  0  0  0  0  0  0  0  0  0
    5.4968   -6.9064    2.8024 H   0  0  0  0  0  0  0  0  0  0  0  0
    4.9754   -7.8870    0.2835 H   0  0  0  0  0  0  0  0  0  0  0  0
  1  2  2  0
  1 29  1  0
  1 30  1  0
  2 20  1  0
  2  3  1  0
  3  4  2  0
  5  3  1  1
  5 14  1  0
  5 23  1  0
  5  6  1  0
  6  7  1  0
  7  8  1  0
  7  9  1  0
  7 10  1  0
  8 31  1  0
  8 32  1  0
  8 33  1  0
  9 34  1  0
  9 35  1  0
  9 36  1  0
 10 11  1  0
 10 17  1  0
 10 37  1  6
 11 12  1  0
 11 38  1  0
 11 39  1  0
 12 13  2  0
 12 14  1  0
 14 15  1  0
 14 16  1  0
 15 40  1  0
 15 41  1  0
 15 42  1  0
 16 43  1  0
 16 44  1  0
 16 45  1  0
 17 23  1  0
 17 27  1  0
 17 18  1  6
 18 19  1  0
 18 24  1  0
 18 46  1  6
 19 20  1  0
 19 47  1  0
 19 48  1  0
 20 21  1  0
 20 49  1  1
 21 22  1  0
 21 23  1  0
 21 50  1  1
 22 51  1  0
 23 52  1  1
 24 25  1  0
 25 26  1  0
 25 27  1  0
 25 53  1  1
 26 54  1  0
 26 55  1  0
 26 56  1  0
 27 28  1  0
 27 57  1  1
 28 58  1  0
M  END
>  <i_m_ct_stereo_status>  (172) 
1

>  <s_m_source_file>  (172) 
/var/tmp/pbs.5076255.sched01/tmp2pvlagj1/41_74nrqse.sdf

>  <i_m_source_file_index>  (172) 
33

>  <i_lp_mmshare_version>  (172) 
48012

>  <i_f3d_flags>  (172) 
0

>  <s_epik_input>  (172) 
Tz1DMUMoPVtDSDJdKVtDQEhdKFtDQEhdMltPSF0pW0NIMl1bQ0BIXShPW0NAQEhdKFtDSDNdKVtDQEhdM1tPSF0pQzMoW0NAQEhdMltDQEBdMTQ1KVtDQEhdKEMoTzQpKFtDSDNdKVtDSDNdKVtDSDJdQyg9TylDNShbQ0gzXSlbQ0gzXQ==

>  <s_epik_cmdline>  (172) 
J2VwaWtfcHl0aG9uJywgJy1waHQnLCAnMi4wJywgJy1waCcsICc3LjAnLCAnLXRuJywgJzgnLCAnLW1hJywgJzIwMCcsICctaW1hZScsICc8aW5maWxlLm1hZT4nLCAnLW9tYWUnLCAnPG91dGZpbGUubWFlPic=

>  <r_lp_tautomer_probability>  (172) 
1

>  <r_epik_Ionization_Penalty>  (172) 
5.50717e-07

>  <r_epik_Ionization_Penalty_Charging>  (172) 
0

>  <r_epik_Ionization_Penalty_Neutral>  (172) 
5.50717e-07

>  <r_epik_State_Penalty>  (172) 
-0

>  <r_epik_Charging_Adjusted_Penalty>  (172) 
0

>  <i_epik_Tot_Q>  (172) 
0

>  <i_epik_Tot_abs_Q>  (172) 
0

>  <s_lp_Force_Field>  (172) 
OPLS3e

>  <r_lp_Energy>  (172) 
186.653

>  <b_lp_Chiralities_Consistent>  (172) 
1

>  <s_lp_Variant>  (172) 
52:0-1

>  <s_i_glide_gridfile>  (172) 
pfpi4k_grid

>  <i_i_glide_lignum>  (172) 
33

>  <i_i_glide_rotatable_bonds>  (172) 
2

>  <r_i_docking_score>  (172) 
-3.17001

>  <r_i_glide_ligand_efficiency>  (172) 
-0.113215

>  <r_i_glide_ligand_efficiency_sa>  (172) 
-0.343786

>  <r_i_glide_ligand_efficiency_ln>  (172) 
-0.731732

>  <r_i_glide_gscore>  (172) 
-3.17001

>  <r_i_glide_lipo>  (172) 
-0.7831

>  <r_i_glide_hbond>  (172) 
0

>  <r_i_glide_metal>  (172) 
-0

>  <r_i_glide_rewards>  (172) 
-0.817632

>  <r_i_glide_evdw>  (172) 
-23.853

>  <r_i_glide_ecoul>  (172) 
-2.49998

>  <r_i_glide_erotb>  (172) 
0

>  <r_i_glide_esite>  (172) 
-0.00163137

>  <r_i_glide_emodel>  (172) 
-31.8364

>  <r_i_glide_energy>  (172) 
-26.353

>  <r_i_glide_einternal>  (172) 
0.411621

>  <r_i_glide_intrahb_reward>  (172) 
-0

>  <i_i_glide_confnum>  (172) 
1

>  <i_i_glide_posenum>  (172) 
32

>  <r_i_glide_eff_state_penalty>  (172) 
0

>  <ligand_id>  (172) 
52

>  <original_smiles>  (172) 
C=C1C(=O)C23OC(C)(C)C(CC(=O)C2(C)C)C24C(CC1C(O)C23)OC(C)C4O

>  <smiles>  (172) 
[H]OC1([H])C2([H])C(=C([H])[H])C(=O)C34OC(C([H])([H])[H])(C([H])([H])[H])C([H])(C([H])([H])C(=O)C3(C([H])([H])[H])C([H])([H])[H])C3(C([H])(OC([H])(C([H])([H])[H])C3([H])O[H])C2([H])[H])C14[H]

$$$$
52:0:2
     RDKit          3D

 58 62  0  0  1  0  0  0  0  0999 V2000
    5.1335   -7.4679    3.6811 C   0  0  0  0  0  0  0  0  0  0  0  0
    5.0631   -6.2278    3.1605 C   0  0  0  0  0  0  0  0  0  0  0  0
    5.3740   -5.0235    4.0663 C   0  0  0  0  0  0  0  0  0  0  0  0
    6.2071   -5.0240    4.9688 O   0  0  0  0  0  0  0  0  0  0  0  0
    4.5090   -3.7566    3.7391 C   0  0  2  0  0  0  0  0  0  0  0  0
    5.0213   -2.4499    4.0012 O   0  0  0  0  0  0  0  0  0  0  0  0
    4.3121   -1.3954    3.2592 C   0  0  0  0  0  0  0  0  0  0  0  0
    3.8522   -0.3291    4.2868 C   0  0  0  0  0  0  0  0  0  0  0  0
    5.4011   -0.7187    2.3969 C   0  0  0  0  0  0  0  0  0  0  0  0
    3.1049   -1.9266    2.3150 C   0  0  2  0  0  0  0  0  0  0  0  0
    1.8204   -2.2760    3.0755 C   0  0  0  0  0  0  0  0  0  0  0  0
    2.0065   -2.9576    4.4136 C   0  0  0  0  0  0  0  0  0  0  0  0
    1.1526   -2.7515    5.2808 O   0  0  0  0  0  0  0  0  0  0  0  0
    3.1724   -3.9363    4.6656 C   0  0  0  0  0  0  0  0  0  0  0  0
    2.4911   -5.3366    4.5849 C   0  0  0  0  0  0  0  0  0  0  0  0
    3.5866   -3.7681    6.1626 C   0  0  0  0  0  0  0  0  0  0  0  0
    3.5573   -3.0463    1.2695 C   0  0  2  0  0  0  0  0  0  0  0  0
    2.7346   -4.3474    0.7767 C   0  0  2  0  0  0  0  0  0  0  0  0
    3.4716   -5.8087    0.8907 C   0  0  0  0  0  0  0  0  0  0  0  0
    4.9178   -5.9591    1.6129 C   0  0  1  0  0  0  0  0  0  0  0  0
    5.6243   -4.6393    1.4309 C   0  0  1  0  0  0  0  0  0  0  0  0
    6.0280   -4.4243    0.1019 O   0  0  0  0  0  0  0  0  0  0  0  0
    4.5821   -3.7158    2.1607 C   0  0  1  0  0  0  0  0  0  0  0  0
    2.3690   -4.0883   -0.5652 O   0  0  0  0  0  0  0  0  0  0  0  0
    3.4440   -3.4219   -1.1984 C   0  0  1  0  0  0  0  0  0  0  0  0
    3.0023   -2.8593   -2.5590 C   0  0  0  0  0  0  0  0  0  0  0  0
    3.9631   -2.4300   -0.1200 C   0  0  1  0  0  0  0  0  0  0  0  0
    3.4182   -1.1551   -0.4144 O   0  0  0  0  0  0  0  0  0  0  0  0
    5.0046   -8.3479    3.0632 H   0  0  0  0  0  0  0  0  0  0  0  0
    5.3339   -7.6210    4.7302 H   0  0  0  0  0  0  0  0  0  0  0  0
    3.2456    0.4434    3.8116 H   0  0  0  0  0  0  0  0  0  0  0  0
    4.7056    0.1646    4.7551 H   0  0  0  0  0  0  0  0  0  0  0  0
    3.2711   -0.7471    5.1068 H   0  0  0  0  0  0  0  0  0  0  0  0
    4.9739    0.0539    1.7562 H   0  0  0  0  0  0  0  0  0  0  0  0
    5.9132   -1.4329    1.7554 H   0  0  0  0  0  0  0  0  0  0  0  0
    6.1724   -0.2545    3.0131 H   0  0  0  0  0  0  0  0  0  0  0  0
    2.7678   -1.0377    1.7925 H   0  0  0  0  0  0  0  0  0  0  0  0
    1.3120   -1.3384    3.2994 H   0  0  0  0  0  0  0  0  0  0  0  0
    1.1128   -2.8376    2.4754 H   0  0  0  0  0  0  0  0  0  0  0  0
    3.0809   -6.1130    5.0684 H   0  0  0  0  0  0  0  0  0  0  0  0
    2.2958   -5.6473    3.5628 H   0  0  0  0  0  0  0  0  0  0  0  0
    1.5350   -5.3519    5.1068 H   0  0  0  0  0  0  0  0  0  0  0  0
    4.2150   -4.5858    6.5173 H   0  0  0  0  0  0  0  0  0  0  0  0
    2.7348   -3.7607    6.8440 H   0  0  0  0  0  0  0  0  0  0  0  0
    4.1391   -2.8415    6.3346 H   0  0  0  0  0  0  0  0  0  0  0  0
    1.8195   -4.4335    1.3579 H   0  0  0  0  0  0  0  0  0  0  0  0
    2.7788   -6.5054    1.3651 H   0  0  0  0  0  0  0  0  0  0  0  0
    3.5823   -6.2075   -0.1192 H   0  0  0  0  0  0  0  0  0  0  0  0
    5.4716   -6.7521    1.1041 H   0  0  0  0  0  0  0  0  0  0  0  0
    6.5973   -4.6268    1.9329 H   0  0  0  0  0  0  0  0  0  0  0  0
    5.2827   -4.5558   -0.4678 H   0  0  0  0  0  0  0  0  0  0  0  0
    3.7728   -4.2932    2.5472 H   0  0  0  0  0  0  0  0  0  0  0  0
    4.2029   -4.1671   -1.4264 H   0  0  0  0  0  0  0  0  0  0  0  0
    3.7988   -2.2966   -3.0440 H   0  0  0  0  0  0  0  0  0  0  0  0
    2.1330   -2.2112   -2.4633 H   0  0  0  0  0  0  0  0  0  0  0  0
    2.7208   -3.6715   -3.2277 H   0  0  0  0  0  0  0  0  0  0  0  0
    5.0316   -2.2615   -0.2018 H   0  0  0  0  0  0  0  0  0  0  0  0
    2.4644   -1.2228   -0.5126 H   0  0  0  0  0  0  0  0  0  0  0  0
  1  2  2  0
  1 29  1  0
  1 30  1  0
  2 20  1  0
  2  3  1  0
  3  4  2  0
  5  3  1  1
  5 14  1  0
  5 23  1  0
  5  6  1  0
  6  7  1  0
  7  8  1  0
  7  9  1  0
  7 10  1  0
  8 31  1  0
  8 32  1  0
  8 33  1  0
  9 34  1  0
  9 35  1  0
  9 36  1  0
 10 11  1  0
 10 17  1  0
 10 37  1  6
 11 12  1  0
 11 38  1  0
 11 39  1  0
 12 13  2  0
 12 14  1  0
 14 15  1  0
 14 16  1  0
 15 40  1  0
 15 41  1  0
 15 42  1  0
 16 43  1  0
 16 44  1  0
 16 45  1  0
 17 23  1  0
 17 27  1  0
 17 18  1  6
 18 19  1  0
 18 24  1  0
 18 46  1  1
 19 20  1  0
 19 47  1  0
 19 48  1  0
 20 21  1  0
 20 49  1  6
 21 22  1  0
 21 23  1  0
 21 50  1  1
 22 51  1  0
 23 52  1  1
 24 25  1  0
 25 26  1  0
 25 27  1  0
 25 53  1  6
 26 54  1  0
 26 55  1  0
 26 56  1  0
 27 28  1  0
 27 57  1  1
 28 58  1  0
M  END
>  <i_m_ct_stereo_status>  (173) 
1

>  <s_m_source_file>  (173) 
/var/tmp/pbs.5076255.sched01/tmp2pvlagj1/41_74nrqse.sdf

>  <i_m_source_file_index>  (173) 
33

>  <i_lp_mmshare_version>  (173) 
48012

>  <i_f3d_flags>  (173) 
0

>  <s_epik_input>  (173) 
Tz1DMUMoPVtDSDJdKVtDQEhdKFtDQEhdMltPSF0pW0NIMl1bQ0BIXShPW0NAQEhdKFtDSDNdKVtDQEhdM1tPSF0pQzMoW0NAQEhdMltDQEBdMTQ1KVtDQEhdKEMoTzQpKFtDSDNdKVtDSDNdKVtDSDJdQyg9TylDNShbQ0gzXSlbQ0gzXQ==

>  <s_epik_cmdline>  (173) 
J2VwaWtfcHl0aG9uJywgJy1waHQnLCAnMi4wJywgJy1waCcsICc3LjAnLCAnLXRuJywgJzgnLCAnLW1hJywgJzIwMCcsICctaW1hZScsICc8aW5maWxlLm1hZT4nLCAnLW9tYWUnLCAnPG91dGZpbGUubWFlPic=

>  <r_lp_tautomer_probability>  (173) 
1

>  <r_epik_Ionization_Penalty>  (173) 
5.50717e-07

>  <r_epik_Ionization_Penalty_Charging>  (173) 
0

>  <r_epik_Ionization_Penalty_Neutral>  (173) 
5.50717e-07

>  <r_epik_State_Penalty>  (173) 
-0

>  <r_epik_Charging_Adjusted_Penalty>  (173) 
0

>  <i_epik_Tot_Q>  (173) 
0

>  <i_epik_Tot_abs_Q>  (173) 
0

>  <s_lp_Force_Field>  (173) 
OPLS3e

>  <r_lp_Energy>  (173) 
186.653

>  <b_lp_Chiralities_Consistent>  (173) 
1

>  <s_lp_Variant>  (173) 
52:0-1

>  <s_i_glide_gridfile>  (173) 
pfpi4k_grid

>  <i_i_glide_lignum>  (173) 
33

>  <i_i_glide_rotatable_bonds>  (173) 
2

>  <r_i_docking_score>  (173) 
-3.04299

>  <r_i_glide_ligand_efficiency>  (173) 
-0.108678

>  <r_i_glide_ligand_efficiency_sa>  (173) 
-0.330011

>  <r_i_glide_ligand_efficiency_ln>  (173) 
-0.702412

>  <r_i_glide_gscore>  (173) 
-3.04299

>  <r_i_glide_lipo>  (173) 
-0.325571

>  <r_i_glide_hbond>  (173) 
0

>  <r_i_glide_metal>  (173) 
-0

>  <r_i_glide_rewards>  (173) 
-0.75104

>  <r_i_glide_evdw>  (173) 
-22.9982

>  <r_i_glide_ecoul>  (173) 
-5.44314

>  <r_i_glide_erotb>  (173) 
0

>  <r_i_glide_esite>  (173) 
0

>  <r_i_glide_emodel>  (173) 
-33.9597

>  <r_i_glide_energy>  (173) 
-28.4413

>  <r_i_glide_einternal>  (173) 
0.0402307

>  <r_i_glide_intrahb_reward>  (173) 
-0

>  <i_i_glide_confnum>  (173) 
2

>  <i_i_glide_posenum>  (173) 
21

>  <r_i_glide_eff_state_penalty>  (173) 
0

>  <ligand_id>  (173) 
52

>  <original_smiles>  (173) 
C=C1C(=O)C23OC(C)(C)C(CC(=O)C2(C)C)C24C(CC1C(O)C23)OC(C)C4O

>  <smiles>  (173) 
[H]OC1([H])C2([H])C(=C([H])[H])C(=O)C34OC(C([H])([H])[H])(C([H])([H])[H])C([H])(C([H])([H])C(=O)C3(C([H])([H])[H])C([H])([H])[H])C3(C([H])(OC([H])(C([H])([H])[H])C3([H])O[H])C2([H])[H])C14[H]

$$$$
55:0:0
     RDKit          3D

 48 51  0  0  1  0  0  0  0  0999 V2000
   -4.5565    3.8911    2.1812 C   0  0  0  0  0  0  0  0  0  0  0  0
   -3.4679    4.9504    2.2033 C   0  0  0  0  0  0  0  0  0  0  0  0
   -3.8915    6.3020    1.6598 C   0  0  0  0  0  0  0  0  0  0  0  0
   -2.2138    4.7513    2.6451 C   0  0  0  0  0  0  0  0  0  0  0  0
   -1.6208    3.4760    3.2568 C   0  0  0  0  0  0  0  0  0  0  0  0
   -0.5738    3.7261    4.3754 C   0  0  1  0  0  0  0  0  0  0  0  0
   -1.2468    4.1643    5.5731 O   0  0  0  0  0  0  0  0  0  0  0  0
   -1.4028    3.0797    6.5182 C   0  0  0  0  0  0  0  0  0  0  0  0
   -0.7119    3.5035    7.8285 C   0  0  0  0  0  0  0  0  0  0  0  0
   -2.9003    2.8696    6.7678 C   0  0  0  0  0  0  0  0  0  0  0  0
   -0.7702    1.8411    5.8269 C   0  0  2  0  0  0  0  0  0  0  0  0
   -0.1046    0.7400    6.6384 C   0  0  0  0  0  0  0  0  0  0  0  0
   -0.0252   -0.5655    5.8484 C   0  0  0  0  0  0  0  0  0  0  0  0
   -0.3682   -1.5674    6.4933 O   0  0  0  0  0  0  0  0  0  0  0  0
    0.4019   -0.7225    4.4156 C   0  0  0  0  0  0  0  0  0  0  0  0
    0.3882   -2.3290    3.8397 Cl  0  0  0  0  0  0  0  0  0  0  0  0
    0.8435    0.2732    3.5659 C   0  0  0  0  0  0  0  0  0  0  0  0
    1.2746   -0.1305    2.1560 C   0  0  0  0  0  0  0  0  0  0  0  0
    0.9706    1.6918    3.9129 C   0  0  0  0  0  0  0  0  0  0  0  0
    1.9013    2.5325    3.4755 C   0  0  0  0  0  0  0  0  0  0  0  0
    1.8417    3.7730    4.3615 C   0  0  2  0  0  0  0  0  0  0  0  0
    1.3147    3.1758    5.5416 O   0  0  0  0  0  0  0  0  0  0  0  0
    0.2067    2.4974    4.9240 C   0  0  1  0  0  0  0  0  0  0  0  0
    0.6178    4.5863    3.9877 C   0  0  0  0  0  0  0  0  0  0  0  0
    0.6174    5.7528    3.5968 O   0  0  0  0  0  0  0  0  0  0  0  0
   -4.9795    3.8300    1.1778 H   0  0  0  0  0  0  0  0  0  0  0  0
   -5.3567    4.1397    2.8748 H   0  0  0  0  0  0  0  0  0  0  0  0
   -4.1792    2.8950    2.4223 H   0  0  0  0  0  0  0  0  0  0  0  0
   -4.7297    6.7028    2.2342 H   0  0  0  0  0  0  0  0  0  0  0  0
   -4.2151    6.1990    0.6184 H   0  0  0  0  0  0  0  0  0  0  0  0
   -3.0832    7.0292    1.6759 H   0  0  0  0  0  0  0  0  0  0  0  0
   -1.5347    5.5735    2.5156 H   0  0  0  0  0  0  0  0  0  0  0  0
   -2.4020    2.8281    3.6362 H   0  0  0  0  0  0  0  0  0  0  0  0
   -1.1464    2.9364    2.4327 H   0  0  0  0  0  0  0  0  0  0  0  0
   -0.7919    2.7350    8.6001 H   0  0  0  0  0  0  0  0  0  0  0  0
   -1.1726    4.4129    8.2321 H   0  0  0  0  0  0  0  0  0  0  0  0
    0.3478    3.7238    7.6949 H   0  0  0  0  0  0  0  0  0  0  0  0
   -3.0827    2.0262    7.4376 H   0  0  0  0  0  0  0  0  0  0  0  0
   -3.4024    2.6719    5.8267 H   0  0  0  0  0  0  0  0  0  0  0  0
   -3.3614    3.7477    7.2124 H   0  0  0  0  0  0  0  0  0  0  0  0
   -1.5400    1.3841    5.2053 H   0  0  0  0  0  0  0  0  0  0  0  0
    0.8837    1.0289    7.0007 H   0  0  0  0  0  0  0  0  0  0  0  0
   -0.7127    0.5449    7.5191 H   0  0  0  0  0  0  0  0  0  0  0  0
    1.4517    0.7295    1.5135 H   0  0  0  0  0  0  0  0  0  0  0  0
    0.4982   -0.7183    1.6772 H   0  0  0  0  0  0  0  0  0  0  0  0
    2.1837   -0.7275    2.1854 H   0  0  0  0  0  0  0  0  0  0  0  0
    2.6849    2.3577    2.7475 H   0  0  0  0  0  0  0  0  0  0  0  0
    2.7610    4.3327    4.4741 H   0  0  0  0  0  0  0  0  0  0  0  0
  1  2  1  0
  1 26  1  0
  1 27  1  0
  1 28  1  0
  2  3  1  0
  2  4  2  3
  3 29  1  0
  3 30  1  0
  3 31  1  0
  4  5  1  0
  4 32  1  0
  6  5  1  6
  5 33  1  0
  5 34  1  0
  6 23  1  0
  6 24  1  0
  6  7  1  0
  7  8  1  0
  8  9  1  0
  8 10  1  0
  8 11  1  0
  9 35  1  0
  9 36  1  0
  9 37  1  0
 10 38  1  0
 10 39  1  0
 10 40  1  0
 11 23  1  0
 11 12  1  0
 11 41  1  6
 12 13  1  0
 12 42  1  0
 12 43  1  0
 13 14  2  0
 13 15  1  0
 15 16  1  0
 15 17  2  0
 17 18  1  0
 17 19  1  0
 18 44  1  0
 18 45  1  0
 18 46  1  0
 19 23  1  0
 19 20  2  0
 20 21  1  0
 20 47  1  0
 21 22  1  0
 21 24  1  0
 21 48  1  1
 23 22  1  1
 24 25  2  0
M  END
>  <i_m_ct_stereo_status>  (174) 
1

>  <s_m_source_file>  (174) 
/var/tmp/pbs.5076255.sched01/tmp2pvlagj1/41_74nrqse.sdf

>  <i_m_source_file_index>  (174) 
37

>  <i_lp_mmshare_version>  (174) 
48012

>  <i_f3d_flags>  (174) 
0

>  <s_epik_input>  (174) 
W0NIM11DKFtDSDNdKT1bQ0hdW0NIMl1bQ0BdMShbQ0BAXTIzNClPQyhbQ0gzXSkoW0NIM10pW0NAQEhdMltDSDJdQyg9TylDKENsKT1DKFtDSDNdKUMzPVtDSF1bQ0BIXShPNClDMT1P

>  <s_epik_cmdline>  (174) 
J2VwaWtfcHl0aG9uJywgJy1waHQnLCAnMi4wJywgJy1waCcsICc3LjAnLCAnLXRuJywgJzgnLCAnLW1hJywgJzIwMCcsICctaW1hZScsICc8aW5maWxlLm1hZT4nLCAnLW9tYWUnLCAnPG91dGZpbGUubWFlPic=

>  <r_lp_tautomer_probability>  (174) 
1

>  <r_epik_Ionization_Penalty>  (174) 
1.83975e-05

>  <r_epik_Ionization_Penalty_Charging>  (174) 
0

>  <r_epik_Ionization_Penalty_Neutral>  (174) 
1.83975e-05

>  <r_epik_State_Penalty>  (174) 
-0

>  <r_epik_Charging_Adjusted_Penalty>  (174) 
0

>  <i_epik_Tot_Q>  (174) 
0

>  <i_epik_Tot_abs_Q>  (174) 
0

>  <s_lp_Force_Field>  (174) 
OPLS3e

>  <r_lp_Energy>  (174) 
24.9851

>  <b_lp_Chiralities_Consistent>  (174) 
1

>  <s_lp_Variant>  (174) 
55:0-1

>  <s_i_glide_gridfile>  (174) 
pfpi4k_grid

>  <i_i_glide_lignum>  (174) 
37

>  <i_i_glide_rotatable_bonds>  (174) 
2

>  <r_i_docking_score>  (174) 
-2.60695

>  <r_i_glide_ligand_efficiency>  (174) 
-0.104278

>  <r_i_glide_ligand_efficiency_sa>  (174) 
-0.304911

>  <r_i_glide_ligand_efficiency_ln>  (174) 
-0.617925

>  <r_i_glide_gscore>  (174) 
-2.60695

>  <r_i_glide_lipo>  (174) 
-0.490348

>  <r_i_glide_hbond>  (174) 
0

>  <r_i_glide_metal>  (174) 
-0

>  <r_i_glide_rewards>  (174) 
-0.935135

>  <r_i_glide_evdw>  (174) 
-21.6875

>  <r_i_glide_ecoul>  (174) 
-1.94944

>  <r_i_glide_erotb>  (174) 
0.291766

>  <r_i_glide_esite>  (174) 
-0.0964382

>  <r_i_glide_emodel>  (174) 
-26.7882

>  <r_i_glide_energy>  (174) 
-23.637

>  <r_i_glide_einternal>  (174) 
0.980369

>  <r_i_glide_intrahb_reward>  (174) 
-0

>  <i_i_glide_confnum>  (174) 
5

>  <i_i_glide_posenum>  (174) 
16

>  <r_i_glide_eff_state_penalty>  (174) 
0

>  <ligand_id>  (174) 
55

>  <original_smiles>  (174) 
CC(C)=CCC12OC(C)(C)C3CC(=O)C(Cl)=C(C)C4=CC(OC431)C2=O

>  <smiles>  (174) 
[H]C1=C2C(C([H])([H])[H])=C(Cl)C(=O)C([H])([H])C3([H])C24OC1([H])C(=O)C4(C([H])([H])C([H])=C(C([H])([H])[H])C([H])([H])[H])OC3(C([H])([H])[H])C([H])([H])[H]

$$$$
56:0:0
     RDKit          3D

 74 78  0  0  1  0  0  0  0  0999 V2000
    2.8573   -3.7636    6.8620 C   0  0  0  0  0  0  0  0  0  0  0  0
    2.7097   -3.5120    5.5430 C   0  0  0  0  0  0  0  0  0  0  0  0
    1.7138   -2.4193    5.1537 C   0  0  0  0  0  0  0  0  0  0  0  0
    3.6094   -4.1223    4.4393 C   0  0  2  0  0  0  0  0  0  0  0  0
    4.3868   -2.9119    3.8400 C   0  0  0  0  0  0  0  0  0  0  0  0
    5.5270   -3.1379    2.8411 C   0  0  0  0  0  0  0  0  0  0  0  0
    5.0792   -3.4181    1.4253 C   0  0  1  0  0  0  0  0  0  0  0  0
    4.2874   -2.2284    0.8758 C   0  0  0  0  0  0  0  0  0  0  0  0
    6.2085   -3.8013    0.4508 C   0  0  0  0  0  0  0  0  0  0  0  0
    5.8383   -5.2493    0.6091 C   0  0  0  0  0  0  0  0  0  0  0  0
    4.5048   -4.8412    1.2592 C   0  0  1  0  0  0  0  0  0  0  0  0
    4.0049   -5.7511    2.4103 C   0  0  2  0  0  0  0  0  0  0  0  0
    3.5329   -7.0210    1.7493 C   0  0  1  0  0  0  0  0  0  0  0  0
    4.3493   -8.0529    0.9383 C   0  0  1  0  0  0  0  0  0  0  0  0
    5.6961   -8.2839    1.2842 O   0  0  0  0  0  0  0  0  0  0  0  0
    3.3356   -9.0932    1.4412 C   0  0  0  0  0  0  0  0  0  0  0  0
    3.1330   -8.1587    2.6569 C   0  0  2  0  0  0  0  0  0  0  0  0
    1.9597   -7.8803    3.5661 C   0  0  2  0  0  0  0  0  0  0  0  0
    0.5184   -8.2519    3.0443 C   0  0  1  0  0  0  0  0  0  0  0  0
    0.1087   -7.5534    1.7155 C   0  0  0  0  0  0  0  0  0  0  0  0
    0.4380   -9.8047    2.8093 C   0  0  0  0  0  0  0  0  0  0  0  0
   -0.7058  -10.1973    2.0791 O   0  0  0  0  0  0  0  0  0  0  0  0
   -0.5584   -7.8824    4.1063 C   0  0  1  0  0  0  0  0  0  0  0  0
   -0.5281   -8.6769    5.2762 O   0  0  0  0  0  0  0  0  0  0  0  0
   -0.4022   -6.4472    4.5752 C   0  0  0  0  0  0  0  0  0  0  0  0
    0.9779   -6.1921    5.1989 C   0  0  0  0  0  0  0  0  0  0  0  0
    2.2506   -6.4991    4.3199 C   0  0  1  0  0  0  0  0  0  0  0  0
    3.3210   -6.9263    5.3752 C   0  0  0  0  0  0  0  0  0  0  0  0
    2.9180   -5.2285    3.4701 C   0  0  1  0  0  0  0  0  0  0  0  0
    1.8264   -4.5220    2.6318 C   0  0  0  0  0  0  0  0  0  0  0  0
    2.1833   -3.3047    7.5716 H   0  0  0  0  0  0  0  0  0  0  0  0
    3.6116   -4.4041    7.2887 H   0  0  0  0  0  0  0  0  0  0  0  0
    1.2843   -2.4978    4.1701 H   0  0  0  0  0  0  0  0  0  0  0  0
    2.2150   -1.4503    5.1662 H   0  0  0  0  0  0  0  0  0  0  0  0
    0.8828   -2.3956    5.8556 H   0  0  0  0  0  0  0  0  0  0  0  0
    4.3942   -4.6571    4.9676 H   0  0  0  0  0  0  0  0  0  0  0  0
    3.7174   -2.1504    3.4596 H   0  0  0  0  0  0  0  0  0  0  0  0
    4.8710   -2.4291    4.6919 H   0  0  0  0  0  0  0  0  0  0  0  0
    6.1707   -2.2556    2.8501 H   0  0  0  0  0  0  0  0  0  0  0  0
    6.1467   -3.9672    3.2000 H   0  0  0  0  0  0  0  0  0  0  0  0
    4.0232   -2.3939   -0.1704 H   0  0  0  0  0  0  0  0  0  0  0  0
    4.8724   -1.3079    0.9050 H   0  0  0  0  0  0  0  0  0  0  0  0
    3.3465   -2.0359    1.3841 H   0  0  0  0  0  0  0  0  0  0  0  0
    6.0524   -3.4570   -0.5716 H   0  0  0  0  0  0  0  0  0  0  0  0
    7.2190   -3.5728    0.8091 H   0  0  0  0  0  0  0  0  0  0  0  0
    5.7430   -5.8016   -0.3284 H   0  0  0  0  0  0  0  0  0  0  0  0
    6.5067   -5.7606    1.3060 H   0  0  0  0  0  0  0  0  0  0  0  0
    3.7831   -4.7650    0.4466 H   0  0  0  0  0  0  0  0  0  0  0  0
    4.8728   -6.0108    3.0038 H   0  0  0  0  0  0  0  0  0  0  0  0
    2.6882   -6.8045    1.0965 H   0  0  0  0  0  0  0  0  0  0  0  0
    4.2550   -7.9052   -0.1387 H   0  0  0  0  0  0  0  0  0  0  0  0
    5.7017   -8.4877    2.2049 H   0  0  0  0  0  0  0  0  0  0  0  0
    2.4674   -9.1881    0.7966 H   0  0  0  0  0  0  0  0  0  0  0  0
    3.7763  -10.0568    1.7029 H   0  0  0  0  0  0  0  0  0  0  0  0
    4.0082   -8.3632    3.2780 H   0  0  0  0  0  0  0  0  0  0  0  0
    2.0307   -8.6485    4.3321 H   0  0  0  0  0  0  0  0  0  0  0  0
   -0.9103   -7.8163    1.4203 H   0  0  0  0  0  0  0  0  0  0  0  0
    0.7500   -7.8121    0.8801 H   0  0  0  0  0  0  0  0  0  0  0  0
    0.0872   -6.4752    1.8133 H   0  0  0  0  0  0  0  0  0  0  0  0
    1.2982  -10.2152    2.2870 H   0  0  0  0  0  0  0  0  0  0  0  0
    0.4502  -10.3621    3.7481 H   0  0  0  0  0  0  0  0  0  0  0  0
   -0.4781  -10.1849    1.1501 H   0  0  0  0  0  0  0  0  0  0  0  0
   -1.5582   -8.0111    3.6839 H   0  0  0  0  0  0  0  0  0  0  0  0
   -0.8855   -9.5378    5.0780 H   0  0  0  0  0  0  0  0  0  0  0  0
   -0.5745   -5.7679    3.7625 H   0  0  0  0  0  0  0  0  0  0  0  0
   -1.1704   -6.2186    5.3242 H   0  0  0  0  0  0  0  0  0  0  0  0
    0.9307   -5.1602    5.5170 H   0  0  0  0  0  0  0  0  0  0  0  0
    1.0281   -6.7647    6.1240 H   0  0  0  0  0  0  0  0  0  0  0  0
    3.3889   -6.2479    6.1978 H   0  0  0  0  0  0  0  0  0  0  0  0
    4.3282   -7.0295    4.9719 H   0  0  0  0  0  0  0  0  0  0  0  0
    3.0801   -7.8556    5.8903 H   0  0  0  0  0  0  0  0  0  0  0  0
    1.5936   -5.0466    1.7028 H   0  0  0  0  0  0  0  0  0  0  0  0
    2.1370   -3.5264    2.3076 H   0  0  0  0  0  0  0  0  0  0  0  0
    0.8900   -4.3992    3.1712 H   0  0  0  0  0  0  0  0  0  0  0  0
  1  2  2  0
  1 31  1  0
  1 32  1  0
  2  3  1  0
  2  4  1  0
  3 33  1  0
  3 34  1  0
  3 35  1  0
  4 29  1  0
  4  5  1  0
  4 36  1  1
  5  6  1  0
  5 37  1  0
  5 38  1  0
  6  7  1  0
  6 39  1  0
  6 40  1  0
  7 11  1  0
  7  8  1  6
  7  9  1  0
  8 41  1  0
  8 42  1  0
  8 43  1  0
  9 10  1  0
  9 44  1  0
  9 45  1  0
 10 11  1  0
 10 46  1  0
 10 47  1  0
 11 12  1  0
 11 48  1  6
 12 29  1  0
 12 13  1  0
 12 49  1  1
 13 17  1  0
 13 14  1  0
 13 50  1  6
 14 15  1  0
 14 16  1  0
 14 51  1  6
 15 52  1  0
 16 17  1  0
 16 53  1  0
 16 54  1  0
 17 18  1  0
 17 55  1  1
 18 27  1  0
 18 19  1  0
 18 56  1  1
 19 20  1  6
 19 21  1  0
 19 23  1  0
 20 57  1  0
 20 58  1  0
 20 59  1  0
 21 22  1  0
 21 60  1  0
 21 61  1  0
 22 62  1  0
 23 24  1  0
 23 25  1  0
 23 63  1  6
 24 64  1  0
 25 26  1  0
 25 65  1  0
 25 66  1  0
 26 27  1  0
 26 67  1  0
 26 68  1  0
 27 28  1  1
 27 29  1  0
 28 69  1  0
 28 70  1  0
 28 71  1  0
 29 30  1  6
 30 72  1  0
 30 73  1  0
 30 74  1  0
M  END
>  <i_m_ct_stereo_status>  (175) 
1

>  <s_m_source_file>  (175) 
/var/tmp/pbs.5076255.sched01/tmp2pvlagj1/41_74nrqse.sdf

>  <i_m_source_file_index>  (175) 
38

>  <i_lp_mmshare_version>  (175) 
48012

>  <i_f3d_flags>  (175) 
0

>  <s_epik_input>  (175) 
W09IXVtDSDJdW0NAQF0xKFtDSDNdKVtDQEBIXShbT0hdKVtDSDJdW0NIMl1bQ0BdKFtDSDNdKShbQ0BAXTIoW0NIM10pW0NASF0oQyg9W0NIMl0pW0NIM10pW0NIMl1bQ0gyXTMpW0NAQEhdMVtDQEBIXShbQ0gyXVtDQEBIXTRbT0hdKVtDQEhdNFtDQEhdMltDQEBIXShbQ0BAXTM1W0NIM10pW0NIMl1bQ0gyXTU=

>  <s_epik_cmdline>  (175) 
J2VwaWtfcHl0aG9uJywgJy1waHQnLCAnMi4wJywgJy1waCcsICc3LjAnLCAnLXRuJywgJzgnLCAnLW1hJywgJzIwMCcsICctaW1hZScsICc8aW5maWxlLm1hZT4nLCAnLW9tYWUnLCAnPG91dGZpbGUubWFlPic=

>  <r_lp_tautomer_probability>  (175) 
1

>  <r_epik_Ionization_Penalty>  (175) 
4.39408e-06

>  <r_epik_Ionization_Penalty_Charging>  (175) 
0

>  <r_epik_Ionization_Penalty_Neutral>  (175) 
4.39408e-06

>  <r_epik_State_Penalty>  (175) 
-0

>  <r_epik_Charging_Adjusted_Penalty>  (175) 
0

>  <i_epik_Tot_Q>  (175) 
0

>  <i_epik_Tot_abs_Q>  (175) 
0

>  <s_lp_Force_Field>  (175) 
OPLS3e

>  <r_lp_Energy>  (175) 
117.522

>  <b_lp_Chiralities_Consistent>  (175) 
1

>  <s_lp_Variant>  (175) 
56:0-1

>  <s_i_glide_gridfile>  (175) 
pfpi4k_grid

>  <i_i_glide_lignum>  (175) 
38

>  <i_i_glide_rotatable_bonds>  (175) 
5

>  <r_i_docking_score>  (175) 
-3.34298

>  <r_i_glide_ligand_efficiency>  (175) 
-0.111433

>  <r_i_glide_ligand_efficiency_sa>  (175) 
-0.346247

>  <r_i_glide_ligand_efficiency_ln>  (175) 
-0.759562

>  <r_i_glide_gscore>  (175) 
-3.34298

>  <r_i_glide_lipo>  (175) 
-0.381975

>  <r_i_glide_hbond>  (175) 
-0.456

>  <r_i_glide_metal>  (175) 
-0

>  <r_i_glide_rewards>  (175) 
-0.568388

>  <r_i_glide_evdw>  (175) 
-16.6021

>  <r_i_glide_ecoul>  (175) 
-8.89437

>  <r_i_glide_erotb>  (175) 
0.227643

>  <r_i_glide_esite>  (175) 
0

>  <r_i_glide_emodel>  (175) 
-30.0966

>  <r_i_glide_energy>  (175) 
-25.4965

>  <r_i_glide_einternal>  (175) 
2.06852

>  <r_i_glide_intrahb_reward>  (175) 
-0

>  <i_i_glide_confnum>  (175) 
3

>  <i_i_glide_posenum>  (175) 
8

>  <r_i_glide_eff_state_penalty>  (175) 
0

>  <ligand_id>  (175) 
56

>  <original_smiles>  (175) 
C=C(C)C1CCC2(C)CCC2C2C3C(O)CC3C3C(C)(CO)C(O)CCC3(C)C12C

>  <smiles>  (175) 
[H]OC([H])([H])C1(C([H])([H])[H])C([H])(O[H])C([H])([H])C([H])([H])C2(C([H])([H])[H])C1([H])C1([H])C([H])([H])C([H])(O[H])C1([H])C1([H])C3([H])C([H])([H])C([H])([H])C3(C([H])([H])[H])C([H])([H])C([H])([H])C([H])(C(=C([H])[H])C([H])([H])[H])C12C([H])([H])[H]

$$$$
56:0:1
     RDKit          3D

 74 78  0  0  1  0  0  0  0  0999 V2000
    3.2931   -3.6913    6.5224 C   0  0  0  0  0  0  0  0  0  0  0  0
    2.7514   -3.7908    5.2907 C   0  0  0  0  0  0  0  0  0  0  0  0
    1.4197   -3.0894    5.0414 C   0  0  0  0  0  0  0  0  0  0  0  0
    3.4495   -4.4932    4.1012 C   0  0  2  0  0  0  0  0  0  0  0  0
    3.6911   -3.3461    3.0691 C   0  0  0  0  0  0  0  0  0  0  0  0
    4.5626   -3.5862    1.8282 C   0  0  0  0  0  0  0  0  0  0  0  0
    3.8408   -4.3137    0.7051 C   0  0  1  0  0  0  0  0  0  0  0  0
    2.6300   -3.4992    0.2170 C   0  0  0  0  0  0  0  0  0  0  0  0
    4.7338   -4.7008   -0.4848 C   0  0  0  0  0  0  0  0  0  0  0  0
    4.8076   -6.1135    0.0453 C   0  0  0  0  0  0  0  0  0  0  0  0
    3.6337   -5.8182    0.9887 C   0  0  1  0  0  0  0  0  0  0  0  0
    3.7309   -6.4823    2.3994 C   0  0  2  0  0  0  0  0  0  0  0  0
    3.4463   -7.9675    2.1655 C   0  0  1  0  0  0  0  0  0  0  0  0
    4.2793   -8.9805    1.3558 C   0  0  1  0  0  0  0  0  0  0  0  0
    5.6845   -8.8246    1.2840 O   0  0  0  0  0  0  0  0  0  0  0  0
    3.7619  -10.0294    2.3589 C   0  0  0  0  0  0  0  0  0  0  0  0
    3.6671   -8.8571    3.3511 C   0  0  2  0  0  0  0  0  0  0  0  0
    2.7262   -8.5905    4.5173 C   0  0  2  0  0  0  0  0  0  0  0  0
    1.3638   -9.4054    4.5970 C   0  0  1  0  0  0  0  0  0  0  0  0
    0.4378   -9.1934    3.3715 C   0  0  0  0  0  0  0  0  0  0  0  0
    1.6210  -10.9506    4.6886 C   0  0  0  0  0  0  0  0  0  0  0  0
    2.6118  -11.3422    5.6314 O   0  0  0  0  0  0  0  0  0  0  0  0
    0.5256   -8.9793    5.8461 C   0  0  1  0  0  0  0  0  0  0  0  0
    1.0474   -9.4222    7.0884 O   0  0  0  0  0  0  0  0  0  0  0  0
    0.3925   -7.4611    5.9418 C   0  0  0  0  0  0  0  0  0  0  0  0
    1.7615   -6.7635    6.0174 C   0  0  0  0  0  0  0  0  0  0  0  0
    2.8140   -7.0267    4.8756 C   0  0  1  0  0  0  0  0  0  0  0  0
    4.1972   -6.9247    5.6049 C   0  0  0  0  0  0  0  0  0  0  0  0
    2.8472   -5.9250    3.6259 C   0  0  1  0  0  0  0  0  0  0  0  0
    1.4214   -5.7081    3.0650 C   0  0  0  0  0  0  0  0  0  0  0  0
    2.7469   -3.1924    7.3111 H   0  0  0  0  0  0  0  0  0  0  0  0
    4.2686   -4.0763    6.7819 H   0  0  0  0  0  0  0  0  0  0  0  0
    0.7965   -3.5359    4.2761 H   0  0  0  0  0  0  0  0  0  0  0  0
    1.6254   -2.0654    4.7236 H   0  0  0  0  0  0  0  0  0  0  0  0
    0.8321   -3.0380    5.9570 H   0  0  0  0  0  0  0  0  0  0  0  0
    4.4616   -4.7033    4.4381 H   0  0  0  0  0  0  0  0  0  0  0  0
    2.7573   -2.8709    2.7874 H   0  0  0  0  0  0  0  0  0  0  0  0
    4.2170   -2.5639    3.6193 H   0  0  0  0  0  0  0  0  0  0  0  0
    4.9259   -2.6262    1.4569 H   0  0  0  0  0  0  0  0  0  0  0  0
    5.4590   -4.1354    2.1215 H   0  0  0  0  0  0  0  0  0  0  0  0
    2.1555   -3.9882   -0.6371 H   0  0  0  0  0  0  0  0  0  0  0  0
    2.9257   -2.5048   -0.1171 H   0  0  0  0  0  0  0  0  0  0  0  0
    1.8534   -3.3707    0.9618 H   0  0  0  0  0  0  0  0  0  0  0  0
    4.2230   -4.6509   -1.4492 H   0  0  0  0  0  0  0  0  0  0  0  0
    5.6942   -4.1892   -0.5240 H   0  0  0  0  0  0  0  0  0  0  0  0
    4.5993   -6.8840   -0.6940 H   0  0  0  0  0  0  0  0  0  0  0  0
    5.7514   -6.2830    0.5656 H   0  0  0  0  0  0  0  0  0  0  0  0
    2.7220   -6.1168    0.4695 H   0  0  0  0  0  0  0  0  0  0  0  0
    4.7678   -6.3944    2.7247 H   0  0  0  0  0  0  0  0  0  0  0  0
    2.4266   -8.0761    1.7920 H   0  0  0  0  0  0  0  0  0  0  0  0
    3.8824   -9.1498    0.3481 H   0  0  0  0  0  0  0  0  0  0  0  0
    5.9971   -8.7593    2.1781 H   0  0  0  0  0  0  0  0  0  0  0  0
    2.8220  -10.4633    2.0151 H   0  0  0  0  0  0  0  0  0  0  0  0
    4.4922  -10.7908    2.6377 H   0  0  0  0  0  0  0  0  0  0  0  0
    4.6861   -8.7140    3.7158 H   0  0  0  0  0  0  0  0  0  0  0  0
    3.2141   -9.0690    5.3564 H   0  0  0  0  0  0  0  0  0  0  0  0
   -0.4867   -9.7617    3.4820 H   0  0  0  0  0  0  0  0  0  0  0  0
    0.8798   -9.5157    2.4317 H   0  0  0  0  0  0  0  0  0  0  0  0
    0.1366   -8.1591    3.2540 H   0  0  0  0  0  0  0  0  0  0  0  0
    0.6902  -11.4671    4.9300 H   0  0  0  0  0  0  0  0  0  0  0  0
    1.9301  -11.3620    3.7325 H   0  0  0  0  0  0  0  0  0  0  0  0
    2.1996  -11.8101    6.3609 H   0  0  0  0  0  0  0  0  0  0  0  0
   -0.4731   -9.4165    5.7724 H   0  0  0  0  0  0  0  0  0  0  0  0
    1.1329  -10.3710    7.0814 H   0  0  0  0  0  0  0  0  0  0  0  0
   -0.2119   -7.0706    5.1285 H   0  0  0  0  0  0  0  0  0  0  0  0
   -0.1731   -7.2077    6.8388 H   0  0  0  0  0  0  0  0  0  0  0  0
    1.5414   -5.7164    6.1577 H   0  0  0  0  0  0  0  0  0  0  0  0
    2.2009   -7.0758    6.9669 H   0  0  0  0  0  0  0  0  0  0  0  0
    4.2864   -6.0390    6.2120 H   0  0  0  0  0  0  0  0  0  0  0  0
    5.0432   -6.9434    4.9230 H   0  0  0  0  0  0  0  0  0  0  0  0
    4.3752   -7.7196    6.3292 H   0  0  0  0  0  0  0  0  0  0  0  0
    1.1013   -6.4944    2.3872 H   0  0  0  0  0  0  0  0  0  0  0  0
    1.3629   -4.7934    2.4859 H   0  0  0  0  0  0  0  0  0  0  0  0
    0.6755   -5.6221    3.8431 H   0  0  0  0  0  0  0  0  0  0  0  0
  1  2  2  0
  1 31  1  0
  1 32  1  0
  2  3  1  0
  2  4  1  0
  3 33  1  0
  3 34  1  0
  3 35  1  0
  4 29  1  0
  4  5  1  0
  4 36  1  1
  5  6  1  0
  5 37  1  0
  5 38  1  0
  6  7  1  0
  6 39  1  0
  6 40  1  0
  7 11  1  0
  7  8  1  6
  7  9  1  0
  8 41  1  0
  8 42  1  0
  8 43  1  0
  9 10  1  0
  9 44  1  0
  9 45  1  0
 10 11  1  0
 10 46  1  0
 10 47  1  0
 11 12  1  0
 11 48  1  6
 12 29  1  0
 12 13  1  0
 12 49  1  1
 13 17  1  0
 13 14  1  0
 13 50  1  6
 14 15  1  0
 14 16  1  0
 14 51  1  6
 15 52  1  0
 16 17  1  0
 16 53  1  0
 16 54  1  0
 17 18  1  0
 17 55  1  1
 18 27  1  0
 18 19  1  0
 18 56  1  1
 19 20  1  6
 19 21  1  0
 19 23  1  0
 20 57  1  0
 20 58  1  0
 20 59  1  0
 21 22  1  0
 21 60  1  0
 21 61  1  0
 22 62  1  0
 23 24  1  0
 23 25  1  0
 23 63  1  6
 24 64  1  0
 25 26  1  0
 25 65  1  0
 25 66  1  0
 26 27  1  0
 26 67  1  0
 26 68  1  0
 27 28  1  1
 27 29  1  0
 28 69  1  0
 28 70  1  0
 28 71  1  0
 29 30  1  6
 30 72  1  0
 30 73  1  0
 30 74  1  0
M  END
>  <i_m_ct_stereo_status>  (176) 
1

>  <s_m_source_file>  (176) 
/var/tmp/pbs.5076255.sched01/tmp2pvlagj1/41_74nrqse.sdf

>  <i_m_source_file_index>  (176) 
38

>  <i_lp_mmshare_version>  (176) 
48012

>  <i_f3d_flags>  (176) 
0

>  <s_epik_input>  (176) 
W09IXVtDSDJdW0NAQF0xKFtDSDNdKVtDQEBIXShbT0hdKVtDSDJdW0NIMl1bQ0BdKFtDSDNdKShbQ0BAXTIoW0NIM10pW0NASF0oQyg9W0NIMl0pW0NIM10pW0NIMl1bQ0gyXTMpW0NAQEhdMVtDQEBIXShbQ0gyXVtDQEBIXTRbT0hdKVtDQEhdNFtDQEhdMltDQEBIXShbQ0BAXTM1W0NIM10pW0NIMl1bQ0gyXTU=

>  <s_epik_cmdline>  (176) 
J2VwaWtfcHl0aG9uJywgJy1waHQnLCAnMi4wJywgJy1waCcsICc3LjAnLCAnLXRuJywgJzgnLCAnLW1hJywgJzIwMCcsICctaW1hZScsICc8aW5maWxlLm1hZT4nLCAnLW9tYWUnLCAnPG91dGZpbGUubWFlPic=

>  <r_lp_tautomer_probability>  (176) 
1

>  <r_epik_Ionization_Penalty>  (176) 
4.39408e-06

>  <r_epik_Ionization_Penalty_Charging>  (176) 
0

>  <r_epik_Ionization_Penalty_Neutral>  (176) 
4.39408e-06

>  <r_epik_State_Penalty>  (176) 
-0

>  <r_epik_Charging_Adjusted_Penalty>  (176) 
0

>  <i_epik_Tot_Q>  (176) 
0

>  <i_epik_Tot_abs_Q>  (176) 
0

>  <s_lp_Force_Field>  (176) 
OPLS3e

>  <r_lp_Energy>  (176) 
117.522

>  <b_lp_Chiralities_Consistent>  (176) 
1

>  <s_lp_Variant>  (176) 
56:0-1

>  <s_i_glide_gridfile>  (176) 
pfpi4k_grid

>  <i_i_glide_lignum>  (176) 
38

>  <i_i_glide_rotatable_bonds>  (176) 
5

>  <r_i_docking_score>  (176) 
-2.5404

>  <r_i_glide_ligand_efficiency>  (176) 
-0.0846799

>  <r_i_glide_ligand_efficiency_sa>  (176) 
-0.26312

>  <r_i_glide_ligand_efficiency_ln>  (176) 
-0.577206

>  <r_i_glide_gscore>  (176) 
-2.5404

>  <r_i_glide_lipo>  (176) 
-0.132578

>  <r_i_glide_hbond>  (176) 
0

>  <r_i_glide_metal>  (176) 
-0

>  <r_i_glide_rewards>  (176) 
-0.568388

>  <r_i_glide_evdw>  (176) 
-17.9755

>  <r_i_glide_ecoul>  (176) 
-7.78865

>  <r_i_glide_erotb>  (176) 
0.227643

>  <r_i_glide_esite>  (176) 
0

>  <r_i_glide_emodel>  (176) 
-28.38

>  <r_i_glide_energy>  (176) 
-25.7642

>  <r_i_glide_einternal>  (176) 
3.57545

>  <r_i_glide_intrahb_reward>  (176) 
-0

>  <i_i_glide_confnum>  (176) 
1

>  <i_i_glide_posenum>  (176) 
22

>  <r_i_glide_eff_state_penalty>  (176) 
0

>  <ligand_id>  (176) 
56

>  <original_smiles>  (176) 
C=C(C)C1CCC2(C)CCC2C2C3C(O)CC3C3C(C)(CO)C(O)CCC3(C)C12C

>  <smiles>  (176) 
[H]OC([H])([H])C1(C([H])([H])[H])C([H])(O[H])C([H])([H])C([H])([H])C2(C([H])([H])[H])C1([H])C1([H])C([H])([H])C([H])(O[H])C1([H])C1([H])C3([H])C([H])([H])C([H])([H])C3(C([H])([H])[H])C([H])([H])C([H])([H])C([H])(C(=C([H])[H])C([H])([H])[H])C12C([H])([H])[H]

$$$$
56:0:2
     RDKit          3D

 74 78  0  0  1  0  0  0  0  0999 V2000
    6.4524   -8.4316    3.0003 C   0  0  0  0  0  0  0  0  0  0  0  0
    5.1981   -8.4186    2.5042 C   0  0  0  0  0  0  0  0  0  0  0  0
    4.9604   -9.0988    1.1599 C   0  0  0  0  0  0  0  0  0  0  0  0
    3.9789   -7.8370    3.2619 C   0  0  2  0  0  0  0  0  0  0  0  0
    3.0440   -9.0700    3.4875 C   0  0  0  0  0  0  0  0  0  0  0  0
    1.8127   -8.9600    4.3994 C   0  0  0  0  0  0  0  0  0  0  0  0
    0.6144   -8.2953    3.7359 C   0  0  1  0  0  0  0  0  0  0  0  0
    0.1574   -9.1032    2.5067 C   0  0  0  0  0  0  0  0  0  0  0  0
   -0.5787   -8.0352    4.6727 C   0  0  0  0  0  0  0  0  0  0  0  0
   -0.1494   -6.5925    4.7993 C   0  0  0  0  0  0  0  0  0  0  0  0
    0.7741   -6.7666    3.5812 C   0  0  1  0  0  0  0  0  0  0  0  0
    2.1356   -6.0015    3.6647 C   0  0  2  0  0  0  0  0  0  0  0  0
    1.7799   -4.5315    3.4439 C   0  0  1  0  0  0  0  0  0  0  0  0
    0.9172   -3.6197    4.3417 C   0  0  1  0  0  0  0  0  0  0  0  0
    0.9050   -3.8289    5.7378 O   0  0  0  0  0  0  0  0  0  0  0  0
    1.8106   -2.4738    3.8323 C   0  0  0  0  0  0  0  0  0  0  0  0
    2.8948   -3.5546    3.6614 C   0  0  2  0  0  0  0  0  0  0  0  0
    4.0469   -3.6868    2.6715 C   0  0  2  0  0  0  0  0  0  0  0  0
    4.0002   -2.8433    1.3249 C   0  0  1  0  0  0  0  0  0  0  0  0
    2.7656   -3.1325    0.4351 C   0  0  0  0  0  0  0  0  0  0  0  0
    4.0002   -1.3136    1.6585 C   0  0  0  0  0  0  0  0  0  0  0  0
    3.9962   -0.4974    0.5040 O   0  0  0  0  0  0  0  0  0  0  0  0
    5.2727   -3.1407    0.4719 C   0  0  1  0  0  0  0  0  0  0  0  0
    6.4642   -2.6064    1.0285 O   0  0  0  0  0  0  0  0  0  0  0  0
    5.4905   -4.6329    0.2752 C   0  0  0  0  0  0  0  0  0  0  0  0
    5.6609   -5.3683    1.6106 C   0  0  0  0  0  0  0  0  0  0  0  0
    4.5313   -5.2228    2.6988 C   0  0  1  0  0  0  0  0  0  0  0  0
    5.3053   -5.3105    4.0555 C   0  0  0  0  0  0  0  0  0  0  0  0
    3.3756   -6.4262    2.7258 C   0  0  1  0  0  0  0  0  0  0  0  0
    2.7924   -6.6416    1.3092 C   0  0  0  0  0  0  0  0  0  0  0  0
    7.2593   -8.8484    2.4126 H   0  0  0  0  0  0  0  0  0  0  0  0
    6.7157   -8.0567    3.9782 H   0  0  0  0  0  0  0  0  0  0  0  0
    4.1391   -8.7006    0.5768 H   0  0  0  0  0  0  0  0  0  0  0  0
    4.7314  -10.1499    1.3433 H   0  0  0  0  0  0  0  0  0  0  0  0
    5.8542   -9.0660    0.5386 H   0  0  0  0  0  0  0  0  0  0  0  0
    4.3299   -7.6388    4.2717 H   0  0  0  0  0  0  0  0  0  0  0  0
    2.7708   -9.5354    2.5455 H   0  0  0  0  0  0  0  0  0  0  0  0
    3.6667   -9.8268    3.9675 H   0  0  0  0  0  0  0  0  0  0  0  0
    1.5284   -9.9591    4.7371 H   0  0  0  0  0  0  0  0  0  0  0  0
    2.0895   -8.4254    5.3095 H   0  0  0  0  0  0  0  0  0  0  0  0
   -0.7482   -8.6750    2.0727 H   0  0  0  0  0  0  0  0  0  0  0  0
   -0.0819  -10.1328    2.7740 H   0  0  0  0  0  0  0  0  0  0  0  0
    0.8814   -9.1341    1.6988 H   0  0  0  0  0  0  0  0  0  0  0  0
   -1.5531   -8.1316    4.1879 H   0  0  0  0  0  0  0  0  0  0  0  0
   -0.5513   -8.5954    5.6076 H   0  0  0  0  0  0  0  0  0  0  0  0
   -0.9539   -5.8715    4.6728 H   0  0  0  0  0  0  0  0  0  0  0  0
    0.3930   -6.4313    5.7306 H   0  0  0  0  0  0  0  0  0  0  0  0
    0.2146   -6.4851    2.6900 H   0  0  0  0  0  0  0  0  0  0  0  0
    2.4981   -6.1030    4.6867 H   0  0  0  0  0  0  0  0  0  0  0  0
    1.3814   -4.4179    2.4384 H   0  0  0  0  0  0  0  0  0  0  0  0
   -0.1119   -3.5093    3.9892 H   0  0  0  0  0  0  0  0  0  0  0  0
    1.8042   -3.9843    6.0014 H   0  0  0  0  0  0  0  0  0  0  0  0
    1.4023   -2.0411    2.9179 H   0  0  0  0  0  0  0  0  0  0  0  0
    2.0562   -1.7189    4.5819 H   0  0  0  0  0  0  0  0  0  0  0  0
    3.3047   -3.7064    4.6611 H   0  0  0  0  0  0  0  0  0  0  0  0
    4.8509   -3.1317    3.1494 H   0  0  0  0  0  0  0  0  0  0  0  0
    2.7941   -2.5463   -0.4835 H   0  0  0  0  0  0  0  0  0  0  0  0
    1.8285   -2.8805    0.9237 H   0  0  0  0  0  0  0  0  0  0  0  0
    2.7227   -4.1640    0.1077 H   0  0  0  0  0  0  0  0  0  0  0  0
    3.1413   -1.0123    2.2476 H   0  0  0  0  0  0  0  0  0  0  0  0
    4.8686   -1.0461    2.2637 H   0  0  0  0  0  0  0  0  0  0  0  0
    3.1614   -0.6053    0.0699 H   0  0  0  0  0  0  0  0  0  0  0  0
    5.1658   -2.6763   -0.5104 H   0  0  0  0  0  0  0  0  0  0  0  0
    6.5887   -2.9801    1.8872 H   0  0  0  0  0  0  0  0  0  0  0  0
    4.6951   -5.0658   -0.3271 H   0  0  0  0  0  0  0  0  0  0  0  0
    6.3894   -4.7850   -0.3199 H   0  0  0  0  0  0  0  0  0  0  0  0
    5.8660   -6.3929    1.3454 H   0  0  0  0  0  0  0  0  0  0  0  0
    6.6023   -5.0110    2.0334 H   0  0  0  0  0  0  0  0  0  0  0  0
    5.9817   -6.1495    4.0936 H   0  0  0  0  0  0  0  0  0  0  0  0
    4.6516   -5.3875    4.9203 H   0  0  0  0  0  0  0  0  0  0  0  0
    5.9618   -4.4612    4.2427 H   0  0  0  0  0  0  0  0  0  0  0  0
    2.0443   -5.9072    1.0299 H   0  0  0  0  0  0  0  0  0  0  0  0
    2.2828   -7.5956    1.2372 H   0  0  0  0  0  0  0  0  0  0  0  0
    3.5501   -6.6463    0.5365 H   0  0  0  0  0  0  0  0  0  0  0  0
  1  2  2  0
  1 31  1  0
  1 32  1  0
  2  3  1  0
  2  4  1  0
  3 33  1  0
  3 34  1  0
  3 35  1  0
  4 29  1  0
  4  5  1  0
  4 36  1  1
  5  6  1  0
  5 37  1  0
  5 38  1  0
  6  7  1  0
  6 39  1  0
  6 40  1  0
  7 11  1  0
  7  8  1  6
  7  9  1  0
  8 41  1  0
  8 42  1  0
  8 43  1  0
  9 10  1  0
  9 44  1  0
  9 45  1  0
 10 11  1  0
 10 46  1  0
 10 47  1  0
 11 12  1  0
 11 48  1  6
 12 29  1  0
 12 13  1  0
 12 49  1  1
 13 17  1  0
 13 14  1  0
 13 50  1  6
 14 15  1  0
 14 16  1  0
 14 51  1  6
 15 52  1  0
 16 17  1  0
 16 53  1  0
 16 54  1  0
 17 18  1  0
 17 55  1  1
 18 27  1  0
 18 19  1  0
 18 56  1  1
 19 20  1  6
 19 21  1  0
 19 23  1  0
 20 57  1  0
 20 58  1  0
 20 59  1  0
 21 22  1  0
 21 60  1  0
 21 61  1  0
 22 62  1  0
 23 24  1  0
 23 25  1  0
 23 63  1  6
 24 64  1  0
 25 26  1  0
 25 65  1  0
 25 66  1  0
 26 27  1  0
 26 67  1  0
 26 68  1  0
 27 28  1  1
 27 29  1  0
 28 69  1  0
 28 70  1  0
 28 71  1  0
 29 30  1  6
 30 72  1  0
 30 73  1  0
 30 74  1  0
M  END
>  <i_m_ct_stereo_status>  (177) 
1

>  <s_m_source_file>  (177) 
/var/tmp/pbs.5076255.sched01/tmp2pvlagj1/41_74nrqse.sdf

>  <i_m_source_file_index>  (177) 
38

>  <i_lp_mmshare_version>  (177) 
48012

>  <i_f3d_flags>  (177) 
0

>  <s_epik_input>  (177) 
W09IXVtDSDJdW0NAQF0xKFtDSDNdKVtDQEBIXShbT0hdKVtDSDJdW0NIMl1bQ0BdKFtDSDNdKShbQ0BAXTIoW0NIM10pW0NASF0oQyg9W0NIMl0pW0NIM10pW0NIMl1bQ0gyXTMpW0NAQEhdMVtDQEBIXShbQ0gyXVtDQEBIXTRbT0hdKVtDQEhdNFtDQEhdMltDQEBIXShbQ0BAXTM1W0NIM10pW0NIMl1bQ0gyXTU=

>  <s_epik_cmdline>  (177) 
J2VwaWtfcHl0aG9uJywgJy1waHQnLCAnMi4wJywgJy1waCcsICc3LjAnLCAnLXRuJywgJzgnLCAnLW1hJywgJzIwMCcsICctaW1hZScsICc8aW5maWxlLm1hZT4nLCAnLW9tYWUnLCAnPG91dGZpbGUubWFlPic=

>  <r_lp_tautomer_probability>  (177) 
1

>  <r_epik_Ionization_Penalty>  (177) 
4.39408e-06

>  <r_epik_Ionization_Penalty_Charging>  (177) 
0

>  <r_epik_Ionization_Penalty_Neutral>  (177) 
4.39408e-06

>  <r_epik_State_Penalty>  (177) 
-0

>  <r_epik_Charging_Adjusted_Penalty>  (177) 
0

>  <i_epik_Tot_Q>  (177) 
0

>  <i_epik_Tot_abs_Q>  (177) 
0

>  <s_lp_Force_Field>  (177) 
OPLS3e

>  <r_lp_Energy>  (177) 
117.522

>  <b_lp_Chiralities_Consistent>  (177) 
1

>  <s_lp_Variant>  (177) 
56:0-1

>  <s_i_glide_gridfile>  (177) 
pfpi4k_grid

>  <i_i_glide_lignum>  (177) 
38

>  <i_i_glide_rotatable_bonds>  (177) 
5

>  <r_i_docking_score>  (177) 
-1.9902

>  <r_i_glide_ligand_efficiency>  (177) 
-0.06634

>  <r_i_glide_ligand_efficiency_sa>  (177) 
-0.206134

>  <r_i_glide_ligand_efficiency_ln>  (177) 
-0.452195

>  <r_i_glide_gscore>  (177) 
-1.9902

>  <r_i_glide_lipo>  (177) 
-0.238609

>  <r_i_glide_hbond>  (177) 
0

>  <r_i_glide_metal>  (177) 
-0

>  <r_i_glide_rewards>  (177) 
-0.568388

>  <r_i_glide_evdw>  (177) 
-20.9585

>  <r_i_glide_ecoul>  (177) 
-2.41945

>  <r_i_glide_erotb>  (177) 
0.227643

>  <r_i_glide_esite>  (177) 
0

>  <r_i_glide_emodel>  (177) 
-27.004

>  <r_i_glide_energy>  (177) 
-23.378

>  <r_i_glide_einternal>  (177) 
0.0367805

>  <r_i_glide_intrahb_reward>  (177) 
-0

>  <i_i_glide_confnum>  (177) 
1

>  <i_i_glide_posenum>  (177) 
14

>  <r_i_glide_eff_state_penalty>  (177) 
0

>  <ligand_id>  (177) 
56

>  <original_smiles>  (177) 
C=C(C)C1CCC2(C)CCC2C2C3C(O)CC3C3C(C)(CO)C(O)CCC3(C)C12C

>  <smiles>  (177) 
[H]OC([H])([H])C1(C([H])([H])[H])C([H])(O[H])C([H])([H])C([H])([H])C2(C([H])([H])[H])C1([H])C1([H])C([H])([H])C([H])(O[H])C1([H])C1([H])C3([H])C([H])([H])C([H])([H])C3(C([H])([H])[H])C([H])([H])C([H])([H])C([H])(C(=C([H])[H])C([H])([H])[H])C12C([H])([H])[H]

$$$$
57:0:0
     RDKit          3D

 52 56  0  0  1  0  0  0  0  0999 V2000
   -0.1626  -10.0944    3.2021 C   0  0  0  0  0  0  0  0  0  0  0  0
    0.8852   -9.0577    2.7706 C   0  0  2  0  0  0  0  0  0  0  0  0
    2.2941   -9.7319    2.7011 C   0  0  0  0  0  0  0  0  0  0  0  0
    3.4999   -9.1666    3.5511 C   0  0  0  0  0  0  0  0  0  0  0  0
    3.9802   -7.6653    3.4721 C   0  0  2  0  0  0  0  0  0  0  0  0
    3.0481   -6.6003    4.1179 C   0  0  2  0  0  0  0  0  0  0  0  0
    2.6095   -6.7050    5.4792 O   0  0  0  0  0  0  0  0  0  0  0  0
    1.4704   -5.8431    5.6931 C   0  0  2  0  0  0  0  0  0  0  0  0
    1.7240   -5.1338    7.0434 C   0  0  0  0  0  0  0  0  0  0  0  0
    0.1474   -6.6662    5.7687 C   0  0  0  0  0  0  0  0  0  0  0  0
   -0.2961   -7.3097    4.4280 C   0  0  0  0  0  0  0  0  0  0  0  0
    0.9527   -7.8153    3.6714 C   0  0  2  0  0  0  0  0  0  0  0  0
    1.8616   -6.6214    3.1685 C   0  0  1  0  0  0  0  0  0  0  0  0
    1.1223   -5.4144    3.3257 O   0  0  0  0  0  0  0  0  0  0  0  0
    1.3700   -4.8102    4.7077 O   0  0  0  0  0  0  0  0  0  0  0  0
    2.5783   -6.7561    1.7583 C   0  0  1  0  0  0  0  0  0  0  0  0
    2.3174   -5.6025    0.7737 C   0  0  0  0  0  0  0  0  0  0  0  0
    1.4089   -5.7354   -0.1038 N   0  0  0  0  0  0  0  0  0  0  0  0
    1.4425   -4.6567   -1.0603 O   0  0  0  0  0  0  0  0  0  0  0  0
    3.2536   -4.4047    0.9317 C   0  0  0  0  0  0  0  0  0  0  0  0
    4.7380   -4.8039    0.9168 C   0  0  0  0  0  0  0  0  0  0  0  0
    5.0098   -5.8476    1.9981 C   0  0  0  0  0  0  0  0  0  0  0  0
    5.9561   -5.7185    2.7568 O   0  0  0  0  0  0  0  0  0  0  0  0
    4.0885   -7.1014    2.0276 C   0  0  1  0  0  0  0  0  0  0  0  0
    4.7241   -8.0570    0.9876 C   0  0  0  0  0  0  0  0  0  0  0  0
   -0.0192  -10.4211    4.2299 H   0  0  0  0  0  0  0  0  0  0  0  0
   -0.1029  -10.9775    2.5668 H   0  0  0  0  0  0  0  0  0  0  0  0
   -1.1774   -9.7128    3.1042 H   0  0  0  0  0  0  0  0  0  0  0  0
    0.5725   -8.7681    1.7712 H   0  0  0  0  0  0  0  0  0  0  0  0
    2.1861  -10.7755    3.0104 H   0  0  0  0  0  0  0  0  0  0  0  0
    2.5491   -9.8491    1.6509 H   0  0  0  0  0  0  0  0  0  0  0  0
    3.3299   -9.4193    4.5987 H   0  0  0  0  0  0  0  0  0  0  0  0
    4.3559   -9.7819    3.2765 H   0  0  0  0  0  0  0  0  0  0  0  0
    4.9379   -7.6320    3.9851 H   0  0  0  0  0  0  0  0  0  0  0  0
    3.5361   -5.6178    4.0824 H   0  0  0  0  0  0  0  0  0  0  0  0
    2.6175   -4.5216    6.9678 H   0  0  0  0  0  0  0  0  0  0  0  0
    1.8786   -5.8425    7.8511 H   0  0  0  0  0  0  0  0  0  0  0  0
    0.9039   -4.4813    7.3116 H   0  0  0  0  0  0  0  0  0  0  0  0
    0.2890   -7.4635    6.4994 H   0  0  0  0  0  0  0  0  0  0  0  0
   -0.6638   -6.0597    6.1559 H   0  0  0  0  0  0  0  0  0  0  0  0
   -0.9700   -8.1260    4.6841 H   0  0  0  0  0  0  0  0  0  0  0  0
   -0.8877   -6.6100    3.8361 H   0  0  0  0  0  0  0  0  0  0  0  0
    1.4074   -8.3209    4.5185 H   0  0  0  0  0  0  0  0  0  0  0  0
    2.1938   -7.6042    1.2181 H   0  0  0  0  0  0  0  0  0  0  0  0
    1.9511   -5.0370   -1.7767 H   0  0  0  0  0  0  0  0  0  0  0  0
    3.0833   -3.6307    0.1776 H   0  0  0  0  0  0  0  0  0  0  0  0
    3.0316   -3.9311    1.8903 H   0  0  0  0  0  0  0  0  0  0  0  0
    5.0157   -5.2179   -0.0533 H   0  0  0  0  0  0  0  0  0  0  0  0
    5.3805   -3.9343    1.0796 H   0  0  0  0  0  0  0  0  0  0  0  0
    4.1760   -8.9760    0.8034 H   0  0  0  0  0  0  0  0  0  0  0  0
    5.7310   -8.3483    1.2859 H   0  0  0  0  0  0  0  0  0  0  0  0
    4.8073   -7.5674    0.0151 H   0  0  0  0  0  0  0  0  0  0  0  0
  1  2  1  0
  1 26  1  0
  1 27  1  0
  1 28  1  0
  2 12  1  0
  2  3  1  0
  2 29  1  6
  3  4  1  0
  3 30  1  0
  3 31  1  0
  4  5  1  0
  4 32  1  0
  4 33  1  0
  5 24  1  0
  5  6  1  0
  5 34  1  1
  6 13  1  0
  6  7  1  0
  6 35  1  1
  7  8  1  0
  8 15  1  0
  8  9  1  1
  8 10  1  0
  9 36  1  0
  9 37  1  0
  9 38  1  0
 10 11  1  0
 10 39  1  0
 10 40  1  0
 11 12  1  0
 11 41  1  0
 11 42  1  0
 12 13  1  0
 12 43  1  1
 13 14  1  6
 13 16  1  0
 14 15  1  0
 16 24  1  0
 16 17  1  0
 16 44  1  6
 17 18  2  3
 17 20  1  0
 18 19  1  0
 19 45  1  0
 20 21  1  0
 20 46  1  0
 20 47  1  0
 21 22  1  0
 21 48  1  0
 21 49  1  0
 22 23  2  0
 22 24  1  0
 24 25  1  6
 25 50  1  0
 25 51  1  0
 25 52  1  0
M  END
>  <i_m_ct_stereo_status>  (178) 
1

>  <s_m_source_file>  (178) 
/var/tmp/pbs.5076255.sched01/tmp2pvlagj1/41_74nrqse.sdf

>  <i_m_source_file_index>  (178) 
39

>  <i_lp_mmshare_version>  (178) 
48012

>  <i_f3d_flags>  (178) 
0

>  <s_epik_input>  (178) 
TzFPW0NAQF0oTzIpKFtDSDNdKVtDSDJdW0NIMl1bQ0BIXTNbQ0BIXShbQ0gzXSlbQ0gyXVtDSDJdW0NASF0oW0NASF0yW0NAXTEzNClbQ0BAXTUoW0NIM10pW0NAQEhdNC9DKD1OL1tPSF0pW0NIMl1bQ0gyXUM1PU8=

>  <s_epik_cmdline>  (178) 
J2VwaWtfcHl0aG9uJywgJy1waHQnLCAnMi4wJywgJy1waCcsICc3LjAnLCAnLXRuJywgJzgnLCAnLW1hJywgJzIwMCcsICctaW1hZScsICc8aW5maWxlLm1hZT4nLCAnLW9tYWUnLCAnPG91dGZpbGUubWFlPic=

>  <r_lp_tautomer_probability>  (178) 
1

>  <r_epik_Ionization_Penalty>  (178) 
7.86516e-06

>  <r_epik_Ionization_Penalty_Charging>  (178) 
0

>  <r_epik_Ionization_Penalty_Neutral>  (178) 
7.86516e-06

>  <r_epik_State_Penalty>  (178) 
-0

>  <r_epik_Charging_Adjusted_Penalty>  (178) 
0

>  <i_epik_Tot_Q>  (178) 
0

>  <i_epik_Tot_abs_Q>  (178) 
0

>  <s_epik_Chemistry_Notes>  (178) 
This compound has an imine and may undergo hydrolysis.

>  <s_lp_Force_Field>  (178) 
OPLS3e

>  <r_lp_Energy>  (178) 
87.6225

>  <b_lp_Chiralities_Consistent>  (178) 
1

>  <s_lp_Variant>  (178) 
57:0-1

>  <s_i_glide_gridfile>  (178) 
pfpi4k_grid

>  <i_i_glide_lignum>  (178) 
39

>  <i_i_glide_rotatable_bonds>  (178) 
1

>  <r_i_docking_score>  (178) 
-3.68104

>  <r_i_glide_ligand_efficiency>  (178) 
-0.147241

>  <r_i_glide_ligand_efficiency_sa>  (178) 
-0.430537

>  <r_i_glide_ligand_efficiency_ln>  (178) 
-0.872516

>  <r_i_glide_gscore>  (178) 
-3.68104

>  <r_i_glide_lipo>  (178) 
-0.116257

>  <r_i_glide_hbond>  (178) 
-0.32

>  <r_i_glide_metal>  (178) 
-0

>  <r_i_glide_rewards>  (178) 
-1.059

>  <r_i_glide_evdw>  (178) 
-19.9719

>  <r_i_glide_ecoul>  (178) 
-7.43179

>  <r_i_glide_erotb>  (178) 
0.156014

>  <r_i_glide_esite>  (178) 
-0.228429

>  <r_i_glide_emodel>  (178) 
-32.8955

>  <r_i_glide_energy>  (178) 
-27.4037

>  <r_i_glide_einternal>  (178) 
1.97403

>  <r_i_glide_intrahb_reward>  (178) 
-0

>  <i_i_glide_confnum>  (178) 
2

>  <i_i_glide_posenum>  (178) 
13

>  <r_i_glide_eff_state_penalty>  (178) 
0

>  <ligand_id>  (178) 
57

>  <original_smiles>  (178) 
CC1CCC2C3OC4(C)CCC1C3(OO4)C1C(=NO)CCC(=O)C21C

>  <smiles>  (178) 
[H]ON=C1C([H])([H])C([H])([H])C(=O)C2(C([H])([H])[H])C1([H])C13OOC4(C([H])([H])[H])OC1([H])C2([H])C([H])([H])C([H])([H])C([H])(C([H])([H])[H])C3([H])C([H])([H])C4([H])[H]

$$$$
57:0:1
     RDKit          3D

 52 56  0  0  1  0  0  0  0  0999 V2000
   -1.7643   -8.2479    3.9444 C   0  0  0  0  0  0  0  0  0  0  0  0
   -0.3466   -8.0025    3.3960 C   0  0  2  0  0  0  0  0  0  0  0  0
    0.4105   -9.3647    3.2538 C   0  0  0  0  0  0  0  0  0  0  0  0
    1.7916   -9.6037    3.9854 C   0  0  0  0  0  0  0  0  0  0  0  0
    3.0389   -8.6496    3.8107 C   0  0  2  0  0  0  0  0  0  0  0  0
    2.9433   -7.2496    4.4790 C   0  0  2  0  0  0  0  0  0  0  0  0
    2.6533   -7.0820    5.8687 O   0  0  0  0  0  0  0  0  0  0  0  0
    2.2317   -5.7319    6.1421 C   0  0  2  0  0  0  0  0  0  0  0  0
    2.9670   -5.3087    7.4252 C   0  0  0  0  0  0  0  0  0  0  0  0
    0.6883   -5.6453    6.3399 C   0  0  0  0  0  0  0  0  0  0  0  0
   -0.1559   -5.9063    5.0674 C   0  0  0  0  0  0  0  0  0  0  0  0
    0.4993   -7.0272    4.2318 C   0  0  2  0  0  0  0  0  0  0  0  0
    1.8929   -6.5782    3.6143 C   0  0  1  0  0  0  0  0  0  0  0  0
    2.0218   -5.1610    3.7683 O   0  0  0  0  0  0  0  0  0  0  0  0
    2.6507   -4.8079    5.1328 O   0  0  0  0  0  0  0  0  0  0  0  0
    2.2883   -7.0827    2.1534 C   0  0  1  0  0  0  0  0  0  0  0  0
    2.6675   -5.9932    1.1348 C   0  0  0  0  0  0  0  0  0  0  0  0
    1.7993   -5.6111    0.2791 N   0  0  0  0  0  0  0  0  0  0  0  0
    2.3656   -4.6509   -0.6316 O   0  0  0  0  0  0  0  0  0  0  0  0
    4.1271   -5.5399    1.2054 C   0  0  0  0  0  0  0  0  0  0  0  0
    5.0913   -6.7299    1.0907 C   0  0  0  0  0  0  0  0  0  0  0  0
    4.8044   -7.7517    2.1858 C   0  0  0  0  0  0  0  0  0  0  0  0
    5.7254   -8.1941    2.8726 O   0  0  0  0  0  0  0  0  0  0  0  0
    3.3376   -8.2409    2.3345 C   0  0  1  0  0  0  0  0  0  0  0  0
    3.2215   -9.3877    1.3045 C   0  0  0  0  0  0  0  0  0  0  0  0
   -1.7409   -8.6128    4.9723 H   0  0  0  0  0  0  0  0  0  0  0  0
   -2.2849   -9.0012    3.3544 H   0  0  0  0  0  0  0  0  0  0  0  0
   -2.3719   -7.3456    3.9110 H   0  0  0  0  0  0  0  0  0  0  0  0
   -0.5162   -7.5803    2.4087 H   0  0  0  0  0  0  0  0  0  0  0  0
   -0.2471  -10.1603    3.6174 H   0  0  0  0  0  0  0  0  0  0  0  0
    0.4689   -9.5948    2.1953 H   0  0  0  0  0  0  0  0  0  0  0  0
    1.5990   -9.7212    5.0548 H   0  0  0  0  0  0  0  0  0  0  0  0
    2.1153  -10.5981    3.6769 H   0  0  0  0  0  0  0  0  0  0  0  0
    3.8842   -9.1820    4.2516 H   0  0  0  0  0  0  0  0  0  0  0  0
    3.8985   -6.7353    4.3694 H   0  0  0  0  0  0  0  0  0  0  0  0
    4.0449   -5.3212    7.2612 H   0  0  0  0  0  0  0  0  0  0  0  0
    2.7522   -5.9817    8.2560 H   0  0  0  0  0  0  0  0  0  0  0  0
    2.6960   -4.2987    7.7338 H   0  0  0  0  0  0  0  0  0  0  0  0
    0.4068   -6.3815    7.0971 H   0  0  0  0  0  0  0  0  0  0  0  0
    0.4042   -4.6813    6.7635 H   0  0  0  0  0  0  0  0  0  0  0  0
   -1.1559   -6.1804    5.3982 H   0  0  0  0  0  0  0  0  0  0  0  0
   -0.2661   -4.9899    4.4899 H   0  0  0  0  0  0  0  0  0  0  0  0
    0.6533   -7.7102    5.0615 H   0  0  0  0  0  0  0  0  0  0  0  0
    1.4321   -7.5538    1.6894 H   0  0  0  0  0  0  0  0  0  0  0  0
    2.6016   -5.1946   -1.3852 H   0  0  0  0  0  0  0  0  0  0  0  0
    4.3735   -4.8085    0.4373 H   0  0  0  0  0  0  0  0  0  0  0  0
    4.2804   -5.0313    2.1587 H   0  0  0  0  0  0  0  0  0  0  0  0
    4.9877   -7.2119    0.1167 H   0  0  0  0  0  0  0  0  0  0  0  0
    6.1253   -6.3884    1.1647 H   0  0  0  0  0  0  0  0  0  0  0  0
    2.2299   -9.8086    1.1932 H   0  0  0  0  0  0  0  0  0  0  0  0
    3.8845  -10.2102    1.5695 H   0  0  0  0  0  0  0  0  0  0  0  0
    3.5163   -9.0624    0.3076 H   0  0  0  0  0  0  0  0  0  0  0  0
  1  2  1  0
  1 26  1  0
  1 27  1  0
  1 28  1  0
  2 12  1  0
  2  3  1  0
  2 29  1  6
  3  4  1  0
  3 30  1  0
  3 31  1  0
  4  5  1  0
  4 32  1  0
  4 33  1  0
  5 24  1  0
  5  6  1  0
  5 34  1  1
  6 13  1  0
  6  7  1  0
  6 35  1  1
  7  8  1  0
  8 15  1  0
  8  9  1  1
  8 10  1  0
  9 36  1  0
  9 37  1  0
  9 38  1  0
 10 11  1  0
 10 39  1  0
 10 40  1  0
 11 12  1  0
 11 41  1  0
 11 42  1  0
 12 13  1  0
 12 43  1  1
 13 14  1  6
 13 16  1  0
 14 15  1  0
 16 24  1  0
 16 17  1  0
 16 44  1  6
 17 18  2  3
 17 20  1  0
 18 19  1  0
 19 45  1  0
 20 21  1  0
 20 46  1  0
 20 47  1  0
 21 22  1  0
 21 48  1  0
 21 49  1  0
 22 23  2  0
 22 24  1  0
 24 25  1  6
 25 50  1  0
 25 51  1  0
 25 52  1  0
M  END
>  <i_m_ct_stereo_status>  (179) 
1

>  <s_m_source_file>  (179) 
/var/tmp/pbs.5076255.sched01/tmp2pvlagj1/41_74nrqse.sdf

>  <i_m_source_file_index>  (179) 
39

>  <i_lp_mmshare_version>  (179) 
48012

>  <i_f3d_flags>  (179) 
0

>  <s_epik_input>  (179) 
TzFPW0NAQF0oTzIpKFtDSDNdKVtDSDJdW0NIMl1bQ0BIXTNbQ0BIXShbQ0gzXSlbQ0gyXVtDSDJdW0NASF0oW0NASF0yW0NAXTEzNClbQ0BAXTUoW0NIM10pW0NAQEhdNC9DKD1OL1tPSF0pW0NIMl1bQ0gyXUM1PU8=

>  <s_epik_cmdline>  (179) 
J2VwaWtfcHl0aG9uJywgJy1waHQnLCAnMi4wJywgJy1waCcsICc3LjAnLCAnLXRuJywgJzgnLCAnLW1hJywgJzIwMCcsICctaW1hZScsICc8aW5maWxlLm1hZT4nLCAnLW9tYWUnLCAnPG91dGZpbGUubWFlPic=

>  <r_lp_tautomer_probability>  (179) 
1

>  <r_epik_Ionization_Penalty>  (179) 
7.86516e-06

>  <r_epik_Ionization_Penalty_Charging>  (179) 
0

>  <r_epik_Ionization_Penalty_Neutral>  (179) 
7.86516e-06

>  <r_epik_State_Penalty>  (179) 
-0

>  <r_epik_Charging_Adjusted_Penalty>  (179) 
0

>  <i_epik_Tot_Q>  (179) 
0

>  <i_epik_Tot_abs_Q>  (179) 
0

>  <s_epik_Chemistry_Notes>  (179) 
This compound has an imine and may undergo hydrolysis.

>  <s_lp_Force_Field>  (179) 
OPLS3e

>  <r_lp_Energy>  (179) 
87.6225

>  <b_lp_Chiralities_Consistent>  (179) 
1

>  <s_lp_Variant>  (179) 
57:0-1

>  <s_i_glide_gridfile>  (179) 
pfpi4k_grid

>  <i_i_glide_lignum>  (179) 
39

>  <i_i_glide_rotatable_bonds>  (179) 
1

>  <r_i_docking_score>  (179) 
-3.66241

>  <r_i_glide_ligand_efficiency>  (179) 
-0.146496

>  <r_i_glide_ligand_efficiency_sa>  (179) 
-0.428358

>  <r_i_glide_ligand_efficiency_ln>  (179) 
-0.8681

>  <r_i_glide_gscore>  (179) 
-3.66241

>  <r_i_glide_lipo>  (179) 
-0.130632

>  <r_i_glide_hbond>  (179) 
-0.32

>  <r_i_glide_metal>  (179) 
-0

>  <r_i_glide_rewards>  (179) 
-1.04231

>  <r_i_glide_evdw>  (179) 
-21.6164

>  <r_i_glide_ecoul>  (179) 
-7.07937

>  <r_i_glide_erotb>  (179) 
0.156014

>  <r_i_glide_esite>  (179) 
-0.182758

>  <r_i_glide_emodel>  (179) 
-34.306

>  <r_i_glide_energy>  (179) 
-28.6958

>  <r_i_glide_einternal>  (179) 
2.00467

>  <r_i_glide_intrahb_reward>  (179) 
-0

>  <i_i_glide_confnum>  (179) 
2

>  <i_i_glide_posenum>  (179) 
15

>  <r_i_glide_eff_state_penalty>  (179) 
0

>  <ligand_id>  (179) 
57

>  <original_smiles>  (179) 
CC1CCC2C3OC4(C)CCC1C3(OO4)C1C(=NO)CCC(=O)C21C

>  <smiles>  (179) 
[H]ON=C1C([H])([H])C([H])([H])C(=O)C2(C([H])([H])[H])C1([H])C13OOC4(C([H])([H])[H])OC1([H])C2([H])C([H])([H])C([H])([H])C([H])(C([H])([H])[H])C3([H])C([H])([H])C4([H])[H]

$$$$
57:0:2
     RDKit          3D

 52 56  0  0  1  0  0  0  0  0999 V2000
   -0.9506   -9.3604    2.8795 C   0  0  0  0  0  0  0  0  0  0  0  0
    0.4038   -8.6777    2.6093 C   0  0  2  0  0  0  0  0  0  0  0  0
    1.5267   -9.7603    2.4689 C   0  0  0  0  0  0  0  0  0  0  0  0
    2.8137   -9.7294    3.3838 C   0  0  0  0  0  0  0  0  0  0  0  0
    3.7512   -8.4669    3.5087 C   0  0  2  0  0  0  0  0  0  0  0  0
    3.1751   -7.2510    4.2906 C   0  0  2  0  0  0  0  0  0  0  0  0
    2.6727   -7.3649    5.6228 O   0  0  0  0  0  0  0  0  0  0  0  0
    1.8525   -6.2277    5.9598 C   0  0  2  0  0  0  0  0  0  0  0  0
    2.2659   -5.8136    7.3812 C   0  0  0  0  0  0  0  0  0  0  0  0
    0.3347   -6.5803    5.9061 C   0  0  0  0  0  0  0  0  0  0  0  0
   -0.2310   -6.8699    4.4939 C   0  0  0  0  0  0  0  0  0  0  0  0
    0.8195   -7.6442    3.6681 C   0  0  2  0  0  0  0  0  0  0  0  0
    2.0984   -6.7634    3.3408 C   0  0  1  0  0  0  0  0  0  0  0  0
    1.8029   -5.3974    3.6539 O   0  0  0  0  0  0  0  0  0  0  0  0
    2.1194   -5.0902    5.1316 O   0  0  0  0  0  0  0  0  0  0  0  0
    2.8074   -6.9382    1.9254 C   0  0  1  0  0  0  0  0  0  0  0  0
    2.9879   -5.6590    1.0935 C   0  0  0  0  0  0  0  0  0  0  0  0
    2.1657   -5.4113    0.1509 N   0  0  0  0  0  0  0  0  0  0  0  0
    2.5803   -4.2550   -0.5879 O   0  0  0  0  0  0  0  0  0  0  0  0
    4.2401   -4.8459    1.4421 C   0  0  0  0  0  0  0  0  0  0  0  0
    5.5124   -5.7047    1.3700 C   0  0  0  0  0  0  0  0  0  0  0  0
    5.3857   -6.9105    2.2982 C   0  0  0  0  0  0  0  0  0  0  0  0
    6.2940   -7.1870    3.0775 O   0  0  0  0  0  0  0  0  0  0  0  0
    4.1117   -7.7884    2.1507 C   0  0  1  0  0  0  0  0  0  0  0  0
    4.4561   -8.7536    0.9912 C   0  0  0  0  0  0  0  0  0  0  0  0
   -0.9521   -9.8349    3.8569 H   0  0  0  0  0  0  0  0  0  0  0  0
   -1.1541  -10.1348    2.1383 H   0  0  0  0  0  0  0  0  0  0  0  0
   -1.7814   -8.6586    2.8337 H   0  0  0  0  0  0  0  0  0  0  0  0
    0.2560   -8.1808    1.6540 H   0  0  0  0  0  0  0  0  0  0  0  0
    1.0777  -10.7445    2.6301 H   0  0  0  0  0  0  0  0  0  0  0  0
    1.7955   -9.8124    1.4191 H   0  0  0  0  0  0  0  0  0  0  0  0
    2.5262  -10.0446    4.3898 H   0  0  0  0  0  0  0  0  0  0  0  0
    3.4394  -10.5488    3.0283 H   0  0  0  0  0  0  0  0  0  0  0  0
    4.6474   -8.8123    4.0267 H   0  0  0  0  0  0  0  0  0  0  0  0
    3.9526   -6.4933    4.3913 H   0  0  0  0  0  0  0  0  0  0  0  0
    3.3152   -5.5178    7.3977 H   0  0  0  0  0  0  0  0  0  0  0  0
    2.1440   -6.6314    8.0932 H   0  0  0  0  0  0  0  0  0  0  0  0
    1.6831   -4.9661    7.7434 H   0  0  0  0  0  0  0  0  0  0  0  0
    0.1801   -7.4675    6.5276 H   0  0  0  0  0  0  0  0  0  0  0  0
   -0.2635   -5.7981    6.3754 H   0  0  0  0  0  0  0  0  0  0  0  0
   -1.1453   -7.4469    4.6272 H   0  0  0  0  0  0  0  0  0  0  0  0
   -0.5303   -5.9450    4.0048 H   0  0  0  0  0  0  0  0  0  0  0  0
    1.0504   -8.3737    4.4374 H   0  0  0  0  0  0  0  0  0  0  0  0
    2.1882   -7.5466    1.2790 H   0  0  0  0  0  0  0  0  0  0  0  0
    2.5587   -4.5844   -1.4795 H   0  0  0  0  0  0  0  0  0  0  0  0
    4.3665   -3.9709    0.8071 H   0  0  0  0  0  0  0  0  0  0  0  0
    4.1214   -4.4544    2.4533 H   0  0  0  0  0  0  0  0  0  0  0  0
    5.6814   -6.0529    0.3499 H   0  0  0  0  0  0  0  0  0  0  0  0
    6.3886   -5.1156    1.6507 H   0  0  0  0  0  0  0  0  0  0  0  0
    3.6511   -9.4123    0.6887 H   0  0  0  0  0  0  0  0  0  0  0  0
    5.2957   -9.3951    1.2534 H   0  0  0  0  0  0  0  0  0  0  0  0
    4.7362   -8.2063    0.0883 H   0  0  0  0  0  0  0  0  0  0  0  0
  1  2  1  0
  1 26  1  0
  1 27  1  0
  1 28  1  0
  2 12  1  0
  2  3  1  0
  2 29  1  6
  3  4  1  0
  3 30  1  0
  3 31  1  0
  4  5  1  0
  4 32  1  0
  4 33  1  0
  5 24  1  0
  5  6  1  0
  5 34  1  1
  6 13  1  0
  6  7  1  0
  6 35  1  1
  7  8  1  0
  8 15  1  0
  8  9  1  1
  8 10  1  0
  9 36  1  0
  9 37  1  0
  9 38  1  0
 10 11  1  0
 10 39  1  0
 10 40  1  0
 11 12  1  0
 11 41  1  0
 11 42  1  0
 12 13  1  0
 12 43  1  1
 13 14  1  1
 13 16  1  0
 14 15  1  0
 16 24  1  0
 16 17  1  0
 16 44  1  6
 17 18  2  3
 17 20  1  0
 18 19  1  0
 19 45  1  0
 20 21  1  0
 20 46  1  0
 20 47  1  0
 21 22  1  0
 21 48  1  0
 21 49  1  0
 22 23  2  0
 22 24  1  0
 24 25  1  6
 25 50  1  0
 25 51  1  0
 25 52  1  0
M  END
>  <i_m_ct_stereo_status>  (180) 
1

>  <s_m_source_file>  (180) 
/var/tmp/pbs.5076255.sched01/tmp2pvlagj1/41_74nrqse.sdf

>  <i_m_source_file_index>  (180) 
39

>  <i_lp_mmshare_version>  (180) 
48012

>  <i_f3d_flags>  (180) 
0

>  <s_epik_input>  (180) 
TzFPW0NAQF0oTzIpKFtDSDNdKVtDSDJdW0NIMl1bQ0BIXTNbQ0BIXShbQ0gzXSlbQ0gyXVtDSDJdW0NASF0oW0NASF0yW0NAXTEzNClbQ0BAXTUoW0NIM10pW0NAQEhdNC9DKD1OL1tPSF0pW0NIMl1bQ0gyXUM1PU8=

>  <s_epik_cmdline>  (180) 
J2VwaWtfcHl0aG9uJywgJy1waHQnLCAnMi4wJywgJy1waCcsICc3LjAnLCAnLXRuJywgJzgnLCAnLW1hJywgJzIwMCcsICctaW1hZScsICc8aW5maWxlLm1hZT4nLCAnLW9tYWUnLCAnPG91dGZpbGUubWFlPic=

>  <r_lp_tautomer_probability>  (180) 
1

>  <r_epik_Ionization_Penalty>  (180) 
7.86516e-06

>  <r_epik_Ionization_Penalty_Charging>  (180) 
0

>  <r_epik_Ionization_Penalty_Neutral>  (180) 
7.86516e-06

>  <r_epik_State_Penalty>  (180) 
-0

>  <r_epik_Charging_Adjusted_Penalty>  (180) 
0

>  <i_epik_Tot_Q>  (180) 
0

>  <i_epik_Tot_abs_Q>  (180) 
0

>  <s_epik_Chemistry_Notes>  (180) 
This compound has an imine and may undergo hydrolysis.

>  <s_lp_Force_Field>  (180) 
OPLS3e

>  <r_lp_Energy>  (180) 
87.6225

>  <b_lp_Chiralities_Consistent>  (180) 
1

>  <s_lp_Variant>  (180) 
57:0-1

>  <s_i_glide_gridfile>  (180) 
pfpi4k_grid

>  <i_i_glide_lignum>  (180) 
39

>  <i_i_glide_rotatable_bonds>  (180) 
1

>  <r_i_docking_score>  (180) 
-3.15565

>  <r_i_glide_ligand_efficiency>  (180) 
-0.126226

>  <r_i_glide_ligand_efficiency_sa>  (180) 
-0.369087

>  <r_i_glide_ligand_efficiency_ln>  (180) 
-0.747983

>  <r_i_glide_gscore>  (180) 
-3.15565

>  <r_i_glide_lipo>  (180) 
-0.200355

>  <r_i_glide_hbond>  (180) 
-0.285516

>  <r_i_glide_metal>  (180) 
-0

>  <r_i_glide_rewards>  (180) 
-1.04449

>  <r_i_glide_evdw>  (180) 
-23.7516

>  <r_i_glide_ecoul>  (180) 
-3.03225

>  <r_i_glide_erotb>  (180) 
0.156014

>  <r_i_glide_esite>  (180) 
-0.138887

>  <r_i_glide_emodel>  (180) 
-31.4349

>  <r_i_glide_energy>  (180) 
-26.7839

>  <r_i_glide_einternal>  (180) 
1.44168

>  <r_i_glide_intrahb_reward>  (180) 
-0

>  <i_i_glide_confnum>  (180) 
2

>  <i_i_glide_posenum>  (180) 
14

>  <r_i_glide_eff_state_penalty>  (180) 
0

>  <ligand_id>  (180) 
57

>  <original_smiles>  (180) 
CC1CCC2C3OC4(C)CCC1C3(OO4)C1C(=NO)CCC(=O)C21C

>  <smiles>  (180) 
[H]ON=C1C([H])([H])C([H])([H])C(=O)C2(C([H])([H])[H])C1([H])C13OOC4(C([H])([H])[H])OC1([H])C2([H])C([H])([H])C([H])([H])C([H])(C([H])([H])[H])C3([H])C([H])([H])C4([H])[H]

$$$$
57:1:0
     RDKit          3D

 52 56  0  0  1  0  0  0  0  0999 V2000
    2.3441   -6.3984    3.5060 C   0  0  0  0  0  0  0  0  0  0  0  0
    2.9627   -5.4004    2.5059 C   0  0  2  0  0  0  0  0  0  0  0  0
    4.5037   -5.6387    2.3966 C   0  0  0  0  0  0  0  0  0  0  0  0
    5.5232   -4.4663    2.6844 C   0  0  0  0  0  0  0  0  0  0  0  0
    5.4700   -3.0712    1.9439 C   0  0  2  0  0  0  0  0  0  0  0  0
    4.3070   -2.1204    2.3332 C   0  0  2  0  0  0  0  0  0  0  0  0
    4.0540   -1.7543    3.6914 O   0  0  0  0  0  0  0  0  0  0  0  0
    2.7197   -1.2145    3.8224 C   0  0  2  0  0  0  0  0  0  0  0  0
    2.8446    0.0405    4.7084 C   0  0  0  0  0  0  0  0  0  0  0  0
    1.7520   -2.2469    4.4784 C   0  0  0  0  0  0  0  0  0  0  0  0
    1.4330   -3.4866    3.6050 C   0  0  0  0  0  0  0  0  0  0  0  0
    2.6966   -3.9211    2.8347 C   0  0  2  0  0  0  0  0  0  0  0  0
    3.1213   -2.8575    1.7355 C   0  0  1  0  0  0  0  0  0  0  0  0
    2.0527   -1.9237    1.5855 O   0  0  0  0  0  0  0  0  0  0  0  0
    2.1967   -0.7530    2.5747 O   0  0  0  0  0  0  0  0  0  0  0  0
    3.7048   -3.3820    0.3449 C   0  0  1  0  0  0  0  0  0  0  0  0
    3.0238   -2.8467   -0.9388 C   0  0  0  0  0  0  0  0  0  0  0  0
    2.1448   -3.4404   -1.6440 N   0  0  0  0  0  0  0  0  0  0  0  0
    1.7617   -4.6563   -1.0404 O   0  0  0  0  0  0  0  0  0  0  0  0
    3.5403   -1.5031   -1.4288 C   0  0  0  0  0  0  0  0  0  0  0  0
    5.0572   -1.4945   -1.6115 C   0  0  0  0  0  0  0  0  0  0  0  0
    5.7209   -1.8548   -0.2911 C   0  0  0  0  0  0  0  0  0  0  0  0
    6.6286   -1.1574    0.1443 O   0  0  0  0  0  0  0  0  0  0  0  0
    5.2624   -3.1647    0.4064 C   0  0  1  0  0  0  0  0  0  0  0  0
    6.0886   -4.2574   -0.3021 C   0  0  0  0  0  0  0  0  0  0  0  0
    2.6700   -6.2084    4.5279 H   0  0  0  0  0  0  0  0  0  0  0  0
    2.6263   -7.4231    3.2579 H   0  0  0  0  0  0  0  0  0  0  0  0
    1.2551   -6.3670    3.4802 H   0  0  0  0  0  0  0  0  0  0  0  0
    2.4933   -5.6511    1.5580 H   0  0  0  0  0  0  0  0  0  0  0  0
    4.7744   -6.4331    3.0950 H   0  0  0  0  0  0  0  0  0  0  0  0
    4.6948   -6.1142    1.4388 H   0  0  0  0  0  0  0  0  0  0  0  0
    5.5429   -4.2816    3.7601 H   0  0  0  0  0  0  0  0  0  0  0  0
    6.5108   -4.8856    2.4835 H   0  0  0  0  0  0  0  0  0  0  0  0
    6.4066   -2.5700    2.1790 H   0  0  0  0  0  0  0  0  0  0  0  0
    4.4446   -1.1589    1.8312 H   0  0  0  0  0  0  0  0  0  0  0  0
    3.4745    0.7802    4.2173 H   0  0  0  0  0  0  0  0  0  0  0  0
    3.2921   -0.1844    5.6735 H   0  0  0  0  0  0  0  0  0  0  0  0
    1.8790    0.5105    4.8840 H   0  0  0  0  0  0  0  0  0  0  0  0
    2.2055   -2.5882    5.4092 H   0  0  0  0  0  0  0  0  0  0  0  0
    0.8173   -1.7721    4.7697 H   0  0  0  0  0  0  0  0  0  0  0  0
    1.0768   -4.2650    4.2745 H   0  0  0  0  0  0  0  0  0  0  0  0
    0.6114   -3.2707    2.9258 H   0  0  0  0  0  0  0  0  0  0  0  0
    3.3667   -3.8774    3.6856 H   0  0  0  0  0  0  0  0  0  0  0  0
    3.5981   -4.4518    0.2694 H   0  0  0  0  0  0  0  0  0  0  0  0
    2.1027   -5.2811   -1.6999 H   0  0  0  0  0  0  0  0  0  0  0  0
    3.0551   -1.2358   -2.3696 H   0  0  0  0  0  0  0  0  0  0  0  0
    3.2524   -0.7414   -0.7033 H   0  0  0  0  0  0  0  0  0  0  0  0
    5.3571   -2.2182   -2.3719 H   0  0  0  0  0  0  0  0  0  0  0  0
    5.3973   -0.5144   -1.9528 H   0  0  0  0  0  0  0  0  0  0  0  0
    5.8725   -5.2709    0.0082 H   0  0  0  0  0  0  0  0  0  0  0  0
    7.1559   -4.1035   -0.1518 H   0  0  0  0  0  0  0  0  0  0  0  0
    5.9077   -4.2350   -1.3773 H   0  0  0  0  0  0  0  0  0  0  0  0
  1  2  1  0
  1 26  1  0
  1 27  1  0
  1 28  1  0
  2 12  1  0
  2  3  1  0
  2 29  1  6
  3  4  1  0
  3 30  1  0
  3 31  1  0
  4  5  1  0
  4 32  1  0
  4 33  1  0
  5 24  1  0
  5  6  1  0
  5 34  1  6
  6 13  1  0
  6  7  1  0
  6 35  1  6
  7  8  1  0
  8 15  1  0
  8  9  1  1
  8 10  1  0
  9 36  1  0
  9 37  1  0
  9 38  1  0
 10 11  1  0
 10 39  1  0
 10 40  1  0
 11 12  1  0
 11 41  1  0
 11 42  1  0
 12 13  1  0
 12 43  1  1
 13 14  1  6
 13 16  1  0
 14 15  1  0
 16 24  1  0
 16 17  1  0
 16 44  1  1
 17 18  2  3
 17 20  1  0
 18 19  1  0
 19 45  1  0
 20 21  1  0
 20 46  1  0
 20 47  1  0
 21 22  1  0
 21 48  1  0
 21 49  1  0
 22 23  2  0
 22 24  1  0
 24 25  1  6
 25 50  1  0
 25 51  1  0
 25 52  1  0
M  END
>  <i_m_ct_stereo_status>  (181) 
1

>  <s_m_source_file>  (181) 
/var/tmp/pbs.5076255.sched01/tmp2pvlagj1/41_74nrqse.sdf

>  <i_m_source_file_index>  (181) 
40

>  <i_lp_mmshare_version>  (181) 
48012

>  <i_f3d_flags>  (181) 
0

>  <s_epik_input>  (181) 
TzFPW0NAQF0oTzIpKFtDSDNdKVtDSDJdW0NIMl1bQ0BIXTNbQ0BIXShbQ0gzXSlbQ0gyXVtDSDJdW0NASF0oW0NASF0yW0NAXTEzNClbQ0BAXTUoW0NIM10pW0NAQEhdNC9DKD1OL1tPSF0pW0NIMl1bQ0gyXUM1PU8=

>  <s_epik_cmdline>  (181) 
J2VwaWtfcHl0aG9uJywgJy1waHQnLCAnMi4wJywgJy1waCcsICc3LjAnLCAnLXRuJywgJzgnLCAnLW1hJywgJzIwMCcsICctaW1hZScsICc8aW5maWxlLm1hZT4nLCAnLW9tYWUnLCAnPG91dGZpbGUubWFlPic=

>  <r_lp_tautomer_probability>  (181) 
1

>  <r_epik_Ionization_Penalty>  (181) 
7.86516e-06

>  <r_epik_Ionization_Penalty_Charging>  (181) 
0

>  <r_epik_Ionization_Penalty_Neutral>  (181) 
7.86516e-06

>  <r_epik_State_Penalty>  (181) 
-0

>  <r_epik_Charging_Adjusted_Penalty>  (181) 
0

>  <i_epik_Tot_Q>  (181) 
0

>  <i_epik_Tot_abs_Q>  (181) 
0

>  <s_epik_Chemistry_Notes>  (181) 
This compound has an imine and may undergo hydrolysis.

>  <s_lp_Force_Field>  (181) 
OPLS3e

>  <r_lp_Energy>  (181) 
87.0098

>  <b_lp_Chiralities_Consistent>  (181) 
1

>  <s_lp_Variant>  (181) 
57:0-2

>  <s_i_glide_gridfile>  (181) 
pfpi4k_grid

>  <i_i_glide_lignum>  (181) 
40

>  <i_i_glide_rotatable_bonds>  (181) 
1

>  <r_i_docking_score>  (181) 
-3.27214

>  <r_i_glide_ligand_efficiency>  (181) 
-0.130886

>  <r_i_glide_ligand_efficiency_sa>  (181) 
-0.382712

>  <r_i_glide_ligand_efficiency_ln>  (181) 
-0.775596

>  <r_i_glide_gscore>  (181) 
-3.27214

>  <r_i_glide_lipo>  (181) 
-0.181431

>  <r_i_glide_hbond>  (181) 
-0.318182

>  <r_i_glide_metal>  (181) 
-0

>  <r_i_glide_rewards>  (181) 
-1.02667

>  <r_i_glide_evdw>  (181) 
-18.8902

>  <r_i_glide_ecoul>  (181) 
-5.5614

>  <r_i_glide_erotb>  (181) 
0.156014

>  <r_i_glide_esite>  (181) 
-0.123149

>  <r_i_glide_emodel>  (181) 
-28.2883

>  <r_i_glide_energy>  (181) 
-24.4516

>  <r_i_glide_einternal>  (181) 
1.88885

>  <r_i_glide_intrahb_reward>  (181) 
-0

>  <i_i_glide_confnum>  (181) 
2

>  <i_i_glide_posenum>  (181) 
2

>  <r_i_glide_eff_state_penalty>  (181) 
0

>  <ligand_id>  (181) 
57

>  <original_smiles>  (181) 
CC1CCC2C3OC4(C)CCC1C3(OO4)C1C(=NO)CCC(=O)C21C

>  <smiles>  (181) 
[H]ON=C1C([H])([H])C([H])([H])C(=O)C2(C([H])([H])[H])C1([H])C13OOC4(C([H])([H])[H])OC1([H])C2([H])C([H])([H])C([H])([H])C([H])(C([H])([H])[H])C3([H])C([H])([H])C4([H])[H]

$$$$
57:1:1
     RDKit          3D

 52 56  0  0  1  0  0  0  0  0999 V2000
    1.9926   -1.3437    2.9594 C   0  0  0  0  0  0  0  0  0  0  0  0
    2.5608   -2.7759    2.9106 C   0  0  2  0  0  0  0  0  0  0  0  0
    3.2686   -3.1213    4.2623 C   0  0  0  0  0  0  0  0  0  0  0  0
    4.7825   -3.5810    4.2930 C   0  0  0  0  0  0  0  0  0  0  0  0
    5.3308   -4.7978    3.4537 C   0  0  2  0  0  0  0  0  0  0  0  0
    5.4486   -4.5796    1.9159 C   0  0  2  0  0  0  0  0  0  0  0  0
    6.1673   -3.4834    1.3556 O   0  0  0  0  0  0  0  0  0  0  0  0
    5.7917   -3.2837   -0.0250 C   0  0  2  0  0  0  0  0  0  0  0  0
    7.1032   -3.0427   -0.7909 C   0  0  0  0  0  0  0  0  0  0  0  0
    4.8304   -2.0688   -0.1885 C   0  0  0  0  0  0  0  0  0  0  0  0
    3.4188   -2.2554    0.4167 C   0  0  0  0  0  0  0  0  0  0  0  0
    3.5284   -3.0382    1.7425 C   0  0  2  0  0  0  0  0  0  0  0  0
    3.9841   -4.5421    1.5156 C   0  0  1  0  0  0  0  0  0  0  0  0
    3.9020   -4.8330    0.1153 O   0  0  0  0  0  0  0  0  0  0  0  0
    5.2117   -4.4571   -0.6047 O   0  0  0  0  0  0  0  0  0  0  0  0
    3.3501   -5.6909    2.4251 C   0  0  1  0  0  0  0  0  0  0  0  0
    2.7112   -6.8817    1.6522 C   0  0  0  0  0  0  0  0  0  0  0  0
    1.4804   -7.0296    1.3510 N   0  0  0  0  0  0  0  0  0  0  0  0
    0.6846   -5.9327    1.8231 O   0  0  0  0  0  0  0  0  0  0  0  0
    3.6916   -7.9866    1.2803 C   0  0  0  0  0  0  0  0  0  0  0  0
    4.5084   -8.4893    2.4750 C   0  0  0  0  0  0  0  0  0  0  0  0
    5.2698   -7.3281    3.0962 C   0  0  0  0  0  0  0  0  0  0  0  0
    6.4776   -7.4184    3.3123 O   0  0  0  0  0  0  0  0  0  0  0  0
    4.4411   -6.0767    3.4987 C   0  0  1  0  0  0  0  0  0  0  0  0
    3.8727   -6.4361    4.8891 C   0  0  0  0  0  0  0  0  0  0  0  0
    2.7837   -0.5930    2.9918 H   0  0  0  0  0  0  0  0  0  0  0  0
    1.3677   -1.2043    3.8411 H   0  0  0  0  0  0  0  0  0  0  0  0
    1.3598   -1.1364    2.0952 H   0  0  0  0  0  0  0  0  0  0  0  0
    1.6811   -3.4035    2.7893 H   0  0  0  0  0  0  0  0  0  0  0  0
    3.2254   -2.2363    4.9014 H   0  0  0  0  0  0  0  0  0  0  0  0
    2.6271   -3.8136    4.7980 H   0  0  0  0  0  0  0  0  0  0  0  0
    5.4094   -2.7119    4.0860 H   0  0  0  0  0  0  0  0  0  0  0  0
    4.9960   -3.8059    5.3376 H   0  0  0  0  0  0  0  0  0  0  0  0
    6.3259   -5.0075    3.8435 H   0  0  0  0  0  0  0  0  0  0  0  0
    5.9350   -5.4458    1.4692 H   0  0  0  0  0  0  0  0  0  0  0  0
    7.7496   -3.9158   -0.7098 H   0  0  0  0  0  0  0  0  0  0  0  0
    7.6591   -2.1911   -0.3918 H   0  0  0  0  0  0  0  0  0  0  0  0
    6.9268   -2.8657   -1.8538 H   0  0  0  0  0  0  0  0  0  0  0  0
    5.2974   -1.2042    0.2902 H   0  0  0  0  0  0  0  0  0  0  0  0
    4.7311   -1.7868   -1.2388 H   0  0  0  0  0  0  0  0  0  0  0  0
    3.0018   -1.2615    0.5662 H   0  0  0  0  0  0  0  0  0  0  0  0
    2.7509   -2.7468   -0.2914 H   0  0  0  0  0  0  0  0  0  0  0  0
    4.3425   -2.4539    2.1536 H   0  0  0  0  0  0  0  0  0  0  0  0
    2.5456   -5.2886    3.0248 H   0  0  0  0  0  0  0  0  0  0  0  0
    1.2629   -5.5269    2.4469 H   0  0  0  0  0  0  0  0  0  0  0  0
    3.1450   -8.8335    0.8619 H   0  0  0  0  0  0  0  0  0  0  0  0
    4.3552   -7.6144    0.4974 H   0  0  0  0  0  0  0  0  0  0  0  0
    3.8511   -8.9323    3.2244 H   0  0  0  0  0  0  0  0  0  0  0  0
    5.1998   -9.2732    2.1626 H   0  0  0  0  0  0  0  0  0  0  0  0
    3.2180   -5.6930    5.3251 H   0  0  0  0  0  0  0  0  0  0  0  0
    4.6782   -6.6031    5.6041 H   0  0  0  0  0  0  0  0  0  0  0  0
    3.2865   -7.3571    4.8505 H   0  0  0  0  0  0  0  0  0  0  0  0
  1  2  1  0
  1 26  1  0
  1 27  1  0
  1 28  1  0
  2 12  1  0
  2  3  1  0
  2 29  1  6
  3  4  1  0
  3 30  1  0
  3 31  1  0
  4  5  1  0
  4 32  1  0
  4 33  1  0
  5 24  1  0
  5  6  1  0
  5 34  1  1
  6 13  1  0
  6  7  1  0
  6 35  1  6
  7  8  1  0
  8 15  1  0
  8  9  1  6
  8 10  1  0
  9 36  1  0
  9 37  1  0
  9 38  1  0
 10 11  1  0
 10 39  1  0
 10 40  1  0
 11 12  1  0
 11 41  1  0
 11 42  1  0
 12 13  1  0
 12 43  1  1
 13 14  1  6
 13 16  1  0
 14 15  1  0
 16 24  1  0
 16 17  1  0
 16 44  1  1
 17 18  2  3
 17 20  1  0
 18 19  1  0
 19 45  1  0
 20 21  1  0
 20 46  1  0
 20 47  1  0
 21 22  1  0
 21 48  1  0
 21 49  1  0
 22 23  2  0
 22 24  1  0
 24 25  1  1
 25 50  1  0
 25 51  1  0
 25 52  1  0
M  END
>  <i_m_ct_stereo_status>  (182) 
1

>  <s_m_source_file>  (182) 
/var/tmp/pbs.5076255.sched01/tmp2pvlagj1/41_74nrqse.sdf

>  <i_m_source_file_index>  (182) 
40

>  <i_lp_mmshare_version>  (182) 
48012

>  <i_f3d_flags>  (182) 
0

>  <s_epik_input>  (182) 
TzFPW0NAQF0oTzIpKFtDSDNdKVtDSDJdW0NIMl1bQ0BIXTNbQ0BIXShbQ0gzXSlbQ0gyXVtDSDJdW0NASF0oW0NASF0yW0NAXTEzNClbQ0BAXTUoW0NIM10pW0NAQEhdNC9DKD1OL1tPSF0pW0NIMl1bQ0gyXUM1PU8=

>  <s_epik_cmdline>  (182) 
J2VwaWtfcHl0aG9uJywgJy1waHQnLCAnMi4wJywgJy1waCcsICc3LjAnLCAnLXRuJywgJzgnLCAnLW1hJywgJzIwMCcsICctaW1hZScsICc8aW5maWxlLm1hZT4nLCAnLW9tYWUnLCAnPG91dGZpbGUubWFlPic=

>  <r_lp_tautomer_probability>  (182) 
1

>  <r_epik_Ionization_Penalty>  (182) 
7.86516e-06

>  <r_epik_Ionization_Penalty_Charging>  (182) 
0

>  <r_epik_Ionization_Penalty_Neutral>  (182) 
7.86516e-06

>  <r_epik_State_Penalty>  (182) 
-0

>  <r_epik_Charging_Adjusted_Penalty>  (182) 
0

>  <i_epik_Tot_Q>  (182) 
0

>  <i_epik_Tot_abs_Q>  (182) 
0

>  <s_epik_Chemistry_Notes>  (182) 
This compound has an imine and may undergo hydrolysis.

>  <s_lp_Force_Field>  (182) 
OPLS3e

>  <r_lp_Energy>  (182) 
87.0098

>  <b_lp_Chiralities_Consistent>  (182) 
1

>  <s_lp_Variant>  (182) 
57:0-2

>  <s_i_glide_gridfile>  (182) 
pfpi4k_grid

>  <i_i_glide_lignum>  (182) 
40

>  <i_i_glide_rotatable_bonds>  (182) 
1

>  <r_i_docking_score>  (182) 
-2.66787

>  <r_i_glide_ligand_efficiency>  (182) 
-0.106715

>  <r_i_glide_ligand_efficiency_sa>  (182) 
-0.312036

>  <r_i_glide_ligand_efficiency_ln>  (182) 
-0.632365

>  <r_i_glide_gscore>  (182) 
-2.66787

>  <r_i_glide_lipo>  (182) 
-0.132242

>  <r_i_glide_hbond>  (182) 
0

>  <r_i_glide_metal>  (182) 
-0

>  <r_i_glide_rewards>  (182) 
-1.11659

>  <r_i_glide_evdw>  (182) 
-21.7677

>  <r_i_glide_ecoul>  (182) 
-2.33021

>  <r_i_glide_erotb>  (182) 
0.156014

>  <r_i_glide_esite>  (182) 
-0.137127

>  <r_i_glide_emodel>  (182) 
-28.1404

>  <r_i_glide_energy>  (182) 
-24.0979

>  <r_i_glide_einternal>  (182) 
0.158311

>  <r_i_glide_intrahb_reward>  (182) 
-0

>  <i_i_glide_confnum>  (182) 
1

>  <i_i_glide_posenum>  (182) 
3

>  <r_i_glide_eff_state_penalty>  (182) 
0

>  <ligand_id>  (182) 
57

>  <original_smiles>  (182) 
CC1CCC2C3OC4(C)CCC1C3(OO4)C1C(=NO)CCC(=O)C21C

>  <smiles>  (182) 
[H]ON=C1C([H])([H])C([H])([H])C(=O)C2(C([H])([H])[H])C1([H])C13OOC4(C([H])([H])[H])OC1([H])C2([H])C([H])([H])C([H])([H])C([H])(C([H])([H])[H])C3([H])C([H])([H])C4([H])[H]

$$$$
57:1:2
     RDKit          3D

 52 56  0  0  1  0  0  0  0  0999 V2000
    6.1744   -7.8119    3.4192 C   0  0  0  0  0  0  0  0  0  0  0  0
    5.5179   -6.4672    3.0455 C   0  0  2  0  0  0  0  0  0  0  0  0
    5.3948   -5.5640    4.3152 C   0  0  0  0  0  0  0  0  0  0  0  0
    3.9898   -4.9979    4.7700 C   0  0  0  0  0  0  0  0  0  0  0  0
    3.0494   -4.1613    3.8229 C   0  0  2  0  0  0  0  0  0  0  0  0
    2.3393   -4.9379    2.6841 C   0  0  2  0  0  0  0  0  0  0  0  0
    1.5494   -6.1025    2.9427 O   0  0  0  0  0  0  0  0  0  0  0  0
    1.3537   -6.8533    1.7218 C   0  0  2  0  0  0  0  0  0  0  0  0
   -0.1268   -7.2535    1.7054 C   0  0  0  0  0  0  0  0  0  0  0  0
    2.2630   -8.1198    1.6787 C   0  0  0  0  0  0  0  0  0  0  0  0
    3.7757   -7.8345    1.5275 C   0  0  0  0  0  0  0  0  0  0  0  0
    4.1409   -6.5930    2.3706 C   0  0  2  0  0  0  0  0  0  0  0  0
    3.5135   -5.2626    1.7771 C   0  0  1  0  0  0  0  0  0  0  0  0
    2.9966   -5.5545    0.4731 O   0  0  0  0  0  0  0  0  0  0  0  0
    1.5379   -6.0295    0.5608 O   0  0  0  0  0  0  0  0  0  0  0  0
    4.3685   -3.9189    1.8269 C   0  0  1  0  0  0  0  0  0  0  0  0
    4.5321   -3.1813    0.4688 C   0  0  0  0  0  0  0  0  0  0  0  0
    5.5308   -3.2327   -0.3187 N   0  0  0  0  0  0  0  0  0  0  0  0
    6.5384   -4.1296    0.1602 O   0  0  0  0  0  0  0  0  0  0  0  0
    3.4066   -2.2229    0.1208 C   0  0  0  0  0  0  0  0  0  0  0  0
    3.1055   -1.2257    1.2429 C   0  0  0  0  0  0  0  0  0  0  0  0
    2.7562   -1.9921    2.5103 C   0  0  0  0  0  0  0  0  0  0  0  0
    1.7401   -1.7205    3.1418 O   0  0  0  0  0  0  0  0  0  0  0  0
    3.7760   -3.0524    3.0047 C   0  0  1  0  0  0  0  0  0  0  0  0
    4.8264   -2.2281    3.7895 C   0  0  0  0  0  0  0  0  0  0  0  0
    5.5308   -8.4191    4.0575 H   0  0  0  0  0  0  0  0  0  0  0  0
    7.1127   -7.6547    3.9529 H   0  0  0  0  0  0  0  0  0  0  0  0
    6.4235   -8.3947    2.5327 H   0  0  0  0  0  0  0  0  0  0  0  0
    6.2247   -6.0177    2.3498 H   0  0  0  0  0  0  0  0  0  0  0  0
    5.7646   -6.1334    5.1709 H   0  0  0  0  0  0  0  0  0  0  0  0
    6.1411   -4.7795    4.2334 H   0  0  0  0  0  0  0  0  0  0  0  0
    3.4091   -5.8197    5.1927 H   0  0  0  0  0  0  0  0  0  0  0  0
    4.2009   -4.3677    5.6336 H   0  0  0  0  0  0  0  0  0  0  0  0
    2.2850   -3.7342    4.4653 H   0  0  0  0  0  0  0  0  0  0  0  0
    1.6523   -4.2667    2.1640 H   0  0  0  0  0  0  0  0  0  0  0  0
   -0.7534   -6.3703    1.6768 H   0  0  0  0  0  0  0  0  0  0  0  0
   -0.4074   -7.8355    2.5830 H   0  0  0  0  0  0  0  0  0  0  0  0
   -0.3814   -7.8397    0.8255 H   0  0  0  0  0  0  0  0  0  0  0  0
    2.0988   -8.6863    2.5948 H   0  0  0  0  0  0  0  0  0  0  0  0
    1.9475   -8.7927    0.8795 H   0  0  0  0  0  0  0  0  0  0  0  0
    4.2923   -8.7251    1.8751 H   0  0  0  0  0  0  0  0  0  0  0  0
    4.0590   -7.7162    0.4809 H   0  0  0  0  0  0  0  0  0  0  0  0
    3.6083   -6.8982    3.2670 H   0  0  0  0  0  0  0  0  0  0  0  0
    5.3843   -4.1172    2.1490 H   0  0  0  0  0  0  0  0  0  0  0  0
    6.1164   -4.5599    0.8791 H   0  0  0  0  0  0  0  0  0  0  0  0
    3.6567   -1.6754   -0.7867 H   0  0  0  0  0  0  0  0  0  0  0  0
    2.5205   -2.8049   -0.1071 H   0  0  0  0  0  0  0  0  0  0  0  0
    3.9675   -0.5845    1.4318 H   0  0  0  0  0  0  0  0  0  0  0  0
    2.2817   -0.5647    0.9556 H   0  0  0  0  0  0  0  0  0  0  0  0
    5.6579   -2.8022    4.1769 H   0  0  0  0  0  0  0  0  0  0  0  0
    4.3653   -1.7235    4.6363 H   0  0  0  0  0  0  0  0  0  0  0  0
    5.2664   -1.4530    3.1611 H   0  0  0  0  0  0  0  0  0  0  0  0
  1  2  1  0
  1 26  1  0
  1 27  1  0
  1 28  1  0
  2 12  1  0
  2  3  1  0
  2 29  1  6
  3  4  1  0
  3 30  1  0
  3 31  1  0
  4  5  1  0
  4 32  1  0
  4 33  1  0
  5 24  1  0
  5  6  1  0
  5 34  1  1
  6 13  1  0
  6  7  1  0
  6 35  1  6
  7  8  1  0
  8 15  1  0
  8  9  1  1
  8 10  1  0
  9 36  1  0
  9 37  1  0
  9 38  1  0
 10 11  1  0
 10 39  1  0
 10 40  1  0
 11 12  1  0
 11 41  1  0
 11 42  1  0
 12 13  1  0
 12 43  1  1
 13 14  1  6
 13 16  1  0
 14 15  1  0
 16 24  1  0
 16 17  1  0
 16 44  1  1
 17 18  2  3
 17 20  1  0
 18 19  1  0
 19 45  1  0
 20 21  1  0
 20 46  1  0
 20 47  1  0
 21 22  1  0
 21 48  1  0
 21 49  1  0
 22 23  2  0
 22 24  1  0
 24 25  1  1
 25 50  1  0
 25 51  1  0
 25 52  1  0
M  END
>  <i_m_ct_stereo_status>  (183) 
1

>  <s_m_source_file>  (183) 
/var/tmp/pbs.5076255.sched01/tmp2pvlagj1/41_74nrqse.sdf

>  <i_m_source_file_index>  (183) 
40

>  <i_lp_mmshare_version>  (183) 
48012

>  <i_f3d_flags>  (183) 
0

>  <s_epik_input>  (183) 
TzFPW0NAQF0oTzIpKFtDSDNdKVtDSDJdW0NIMl1bQ0BIXTNbQ0BIXShbQ0gzXSlbQ0gyXVtDSDJdW0NASF0oW0NASF0yW0NAXTEzNClbQ0BAXTUoW0NIM10pW0NAQEhdNC9DKD1OL1tPSF0pW0NIMl1bQ0gyXUM1PU8=

>  <s_epik_cmdline>  (183) 
J2VwaWtfcHl0aG9uJywgJy1waHQnLCAnMi4wJywgJy1waCcsICc3LjAnLCAnLXRuJywgJzgnLCAnLW1hJywgJzIwMCcsICctaW1hZScsICc8aW5maWxlLm1hZT4nLCAnLW9tYWUnLCAnPG91dGZpbGUubWFlPic=

>  <r_lp_tautomer_probability>  (183) 
1

>  <r_epik_Ionization_Penalty>  (183) 
7.86516e-06

>  <r_epik_Ionization_Penalty_Charging>  (183) 
0

>  <r_epik_Ionization_Penalty_Neutral>  (183) 
7.86516e-06

>  <r_epik_State_Penalty>  (183) 
-0

>  <r_epik_Charging_Adjusted_Penalty>  (183) 
0

>  <i_epik_Tot_Q>  (183) 
0

>  <i_epik_Tot_abs_Q>  (183) 
0

>  <s_epik_Chemistry_Notes>  (183) 
This compound has an imine and may undergo hydrolysis.

>  <s_lp_Force_Field>  (183) 
OPLS3e

>  <r_lp_Energy>  (183) 
87.0098

>  <b_lp_Chiralities_Consistent>  (183) 
1

>  <s_lp_Variant>  (183) 
57:0-2

>  <s_i_glide_gridfile>  (183) 
pfpi4k_grid

>  <i_i_glide_lignum>  (183) 
40

>  <i_i_glide_rotatable_bonds>  (183) 
1

>  <r_i_docking_score>  (183) 
-2.4054

>  <r_i_glide_ligand_efficiency>  (183) 
-0.0962161

>  <r_i_glide_ligand_efficiency_sa>  (183) 
-0.281338

>  <r_i_glide_ligand_efficiency_ln>  (183) 
-0.570153

>  <r_i_glide_gscore>  (183) 
-2.4054

>  <r_i_glide_lipo>  (183) 
-0.0783039

>  <r_i_glide_hbond>  (183) 
-0.122637

>  <r_i_glide_metal>  (183) 
-0

>  <r_i_glide_rewards>  (183) 
-1.05431

>  <r_i_glide_evdw>  (183) 
-23.371

>  <r_i_glide_ecoul>  (183) 
-0.558974

>  <r_i_glide_erotb>  (183) 
0.156014

>  <r_i_glide_esite>  (183) 
-0.0537664

>  <r_i_glide_emodel>  (183) 
-27.4765

>  <r_i_glide_energy>  (183) 
-23.93

>  <r_i_glide_einternal>  (183) 
0.0105394

>  <r_i_glide_intrahb_reward>  (183) 
-0

>  <i_i_glide_confnum>  (183) 
1

>  <i_i_glide_posenum>  (183) 
11

>  <r_i_glide_eff_state_penalty>  (183) 
0

>  <ligand_id>  (183) 
57

>  <original_smiles>  (183) 
CC1CCC2C3OC4(C)CCC1C3(OO4)C1C(=NO)CCC(=O)C21C

>  <smiles>  (183) 
[H]ON=C1C([H])([H])C([H])([H])C(=O)C2(C([H])([H])[H])C1([H])C13OOC4(C([H])([H])[H])OC1([H])C2([H])C([H])([H])C([H])([H])C([H])(C([H])([H])[H])C3([H])C([H])([H])C4([H])[H]

$$$$
58:0:0
     RDKit          3D

 54 59  0  0  1  0  0  0  0  0999 V2000
    2.1425    3.0336    2.2663 C   0  0  0  0  0  0  0  0  0  0  0  0
    0.8490    2.7583    2.9154 N   0  0  2  0  0  0  0  0  0  0  0  0
    0.6464    3.5726    4.1549 C   0  0  0  0  0  0  0  0  0  0  0  0
   -0.4844    3.0585    5.1288 C   0  0  1  0  0  0  0  0  0  0  0  0
   -0.6060    4.0259    6.3280 C   0  0  0  0  0  0  0  0  0  0  0  0
   -1.8703    2.8150    4.4372 C   0  0  1  0  0  0  0  0  0  0  0  0
   -2.3322    3.8355    3.3780 C   0  0  0  0  0  0  0  0  0  0  0  0
   -1.8052    4.9356    3.2786 O   0  0  0  0  0  0  0  0  0  0  0  0
   -3.5450    3.4766    2.5229 C   0  0  0  0  0  0  0  0  0  0  0  0
   -4.2083    4.6482    2.0820 O   0  0  0  0  0  0  0  0  0  0  0  0
   -1.8168    1.3571    3.9404 C   0  0  0  0  0  0  0  0  0  0  0  0
   -0.3687    0.9229    4.2298 C   0  0  2  0  0  0  0  0  0  0  0  0
   -0.0660   -0.5257    4.4211 C   0  0  0  0  0  0  0  0  0  0  0  0
    0.9287   -1.0142    3.5775 C   0  0  0  0  0  0  0  0  0  0  0  0
    1.3745   -2.3341    3.7690 C   0  0  0  0  0  0  0  0  0  0  0  0
    0.7757   -3.0869    4.8110 C   0  0  0  0  0  0  0  0  0  0  0  0
   -0.1720   -2.5064    5.6953 C   0  0  0  0  0  0  0  0  0  0  0  0
   -0.6353   -3.2299    6.7577 O   0  0  0  0  0  0  0  0  0  0  0  0
   -0.5891   -1.1600    5.5471 C   0  0  0  0  0  0  0  0  0  0  0  0
   -1.3250   -0.4503    6.4649 O   0  0  0  0  0  0  0  0  0  0  0  0
   -0.9646    0.9397    6.7101 C   0  0  1  0  0  0  0  0  0  0  0  0
   -0.0485    1.0177    7.9618 C   0  0  1  0  0  0  0  0  0  0  0  0
   -0.1862   -0.0610    8.8654 O   0  0  0  0  0  0  0  0  0  0  0  0
    1.3372    1.1365    7.3925 C   0  0  0  0  0  0  0  0  0  0  0  0
    1.3186    1.4796    6.1061 C   0  0  0  0  0  0  0  0  0  0  0  0
   -0.0983    1.6196    5.5600 C   0  0  2  0  0  0  0  0  0  0  0  0
    1.5454    0.1875    2.8672 C   0  0  0  0  0  0  0  0  0  0  0  0
    0.4928    1.3074    3.0173 C   0  0  2  0  0  0  0  0  0  0  0  0
    2.9950    2.7231    2.8749 H   0  0  0  0  0  0  0  0  0  0  0  0
    2.2420    4.1044    2.0683 H   0  0  0  0  0  0  0  0  0  0  0  0
    2.1776    2.5109    1.3098 H   0  0  0  0  0  0  0  0  0  0  0  0
    1.5881    3.6430    4.7012 H   0  0  0  0  0  0  0  0  0  0  0  0
    0.4844    4.6045    3.8445 H   0  0  0  0  0  0  0  0  0  0  0  0
   -1.3813    3.7205    7.0285 H   0  0  0  0  0  0  0  0  0  0  0  0
   -0.8572    5.0300    5.9969 H   0  0  0  0  0  0  0  0  0  0  0  0
    0.3241    4.0943    6.8918 H   0  0  0  0  0  0  0  0  0  0  0  0
   -2.6314    2.8645    5.2127 H   0  0  0  0  0  0  0  0  0  0  0  0
   -3.2035    2.9029    1.6660 H   0  0  0  0  0  0  0  0  0  0  0  0
   -4.2171    2.8585    3.1095 H   0  0  0  0  0  0  0  0  0  0  0  0
   -4.9490    4.3982    1.5463 H   0  0  0  0  0  0  0  0  0  0  0  0
   -2.5342    0.7614    4.5095 H   0  0  0  0  0  0  0  0  0  0  0  0
   -2.1013    1.2652    2.8956 H   0  0  0  0  0  0  0  0  0  0  0  0
    2.1968   -2.7349    3.1903 H   0  0  0  0  0  0  0  0  0  0  0  0
    1.1193   -4.0951    4.9786 H   0  0  0  0  0  0  0  0  0  0  0  0
   -0.2083   -4.0685    6.8514 H   0  0  0  0  0  0  0  0  0  0  0  0
   -1.9060    1.4632    6.8926 H   0  0  0  0  0  0  0  0  0  0  0  0
   -0.2515    1.9401    8.5063 H   0  0  0  0  0  0  0  0  0  0  0  0
    0.2771    0.1582    9.6626 H   0  0  0  0  0  0  0  0  0  0  0  0
    2.2300    0.9811    7.9789 H   0  0  0  0  0  0  0  0  0  0  0  0
    2.2059    1.6119    5.4999 H   0  0  0  0  0  0  0  0  0  0  0  0
    2.4709    0.4512    3.3826 H   0  0  0  0  0  0  0  0  0  0  0  0
    1.7681   -0.0340    1.8207 H   0  0  0  0  0  0  0  0  0  0  0  0
   -0.1154    1.1508    2.1262 H   0  0  0  0  0  0  0  0  0  0  0  0
    0.2056    3.1715    2.2384 H   0  0  0  0  0  0  0  0  0  0  0  0
  1  2  1  0
  1 29  1  0
  1 30  1  0
  1 31  1  0
  2 28  1  0
  2  3  1  0
  2 54  1  6
  3  4  1  0
  3 32  1  0
  3 33  1  0
  4 26  1  0
  4  5  1  1
  4  6  1  0
  5 34  1  0
  5 35  1  0
  5 36  1  0
  6  7  1  0
  6 11  1  0
  6 37  1  1
  7  8  2  0
  7  9  1  0
  9 10  1  0
  9 38  1  0
  9 39  1  0
 10 40  1  0
 12 11  1  6
 11 41  1  0
 11 42  1  0
 12 26  1  0
 12 28  1  0
 12 13  1  0
 13 19  2  0
 13 14  1  0
 14 15  2  0
 14 27  1  0
 15 16  1  0
 15 43  1  0
 16 17  2  0
 16 44  1  0
 17 18  1  0
 17 19  1  0
 18 45  1  0
 19 20  1  0
 20 21  1  0
 21 26  1  0
 21 22  1  0
 21 46  1  1
 22 23  1  0
 22 24  1  0
 22 47  1  1
 23 48  1  0
 24 25  2  0
 24 49  1  0
 26 25  1  1
 25 50  1  0
 27 28  1  0
 27 51  1  0
 27 52  1  0
 28 53  1  6
M  CHG  1   2   1
M  END
>  <i_m_ct_stereo_status>  (184) 
1

>  <s_m_source_file>  (184) 
/var/tmp/pbs.5076255.sched01/tmp2pvlagj1/41_74nrqse.sdf

>  <i_m_source_file_index>  (184) 
41

>  <i_lp_mmshare_version>  (184) 
48012

>  <i_f3d_flags>  (184) 
0

>  <s_epik_input>  (184) 
W09IXVtDSDJdQyg9TylbQ0BASF0oW0NIMl0xKVtDQEBdKFtDSDNdKShbQ0BdMjNbQ0BdMTQ1KVtDSDJdTihbQ0gzXSlbQ0BIXTVbQ0gyXWM2YzRjKGMoW09IXSlbY0hdW2NIXTYpT1tDQEhdMltDQEBIXShbT0hdKVtDSF09W0NIXTM=

>  <s_epik_cmdline>  (184) 
J2VwaWtfcHl0aG9uJywgJy1waHQnLCAnMi4wJywgJy1waCcsICc3LjAnLCAnLXRuJywgJzgnLCAnLW1hJywgJzIwMCcsICctaW1hZScsICc8aW5maWxlLm1hZT4nLCAnLW9tYWUnLCAnPG91dGZpbGUubWFlPic=

>  <r_lp_tautomer_probability>  (184) 
0.9999

>  <r_epik_Ionization_Penalty>  (184) 
0.126429

>  <r_epik_Ionization_Penalty_Charging>  (184) 
0.12337

>  <r_epik_Ionization_Penalty_Neutral>  (184) 
0.00305888

>  <r_epik_State_Penalty>  (184) 
0.260038

>  <r_epik_Charging_Adjusted_Penalty>  (184) 
0.383408

>  <i_epik_Tot_Q>  (184) 
1

>  <i_epik_Tot_abs_Q>  (184) 
1

>  <s_lp_Force_Field>  (184) 
OPLS3e

>  <r_lp_Energy>  (184) 
81.5271

>  <b_lp_Chiralities_Consistent>  (184) 
1

>  <s_lp_Variant>  (184) 
58:0-1

>  <s_i_glide_gridfile>  (184) 
pfpi4k_grid

>  <i_i_glide_lignum>  (184) 
41

>  <i_i_glide_rotatable_bonds>  (184) 
5

>  <r_i_docking_score>  (184) 
-4.37813

>  <r_i_glide_ligand_efficiency>  (184) 
-0.156362

>  <r_i_glide_ligand_efficiency_sa>  (184) 
-0.474807

>  <r_i_glide_ligand_efficiency_ln>  (184) 
-1.0106

>  <r_i_glide_gscore>  (184) 
-4.37813

>  <r_i_glide_lipo>  (184) 
-0.140967

>  <r_i_glide_hbond>  (184) 
-0.445847

>  <r_i_glide_metal>  (184) 
-0

>  <r_i_glide_rewards>  (184) 
-0.787871

>  <r_i_glide_evdw>  (184) 
-18.5318

>  <r_i_glide_ecoul>  (184) 
-14.4642

>  <r_i_glide_erotb>  (184) 
0.263097

>  <r_i_glide_esite>  (184) 
-0.170317

>  <r_i_glide_emodel>  (184) 
-43.8808

>  <r_i_glide_energy>  (184) 
-32.996

>  <r_i_glide_einternal>  (184) 
3.49973

>  <r_i_glide_intrahb_reward>  (184) 
-0

>  <i_i_glide_confnum>  (184) 
2

>  <i_i_glide_posenum>  (184) 
13

>  <r_i_glide_eff_state_penalty>  (184) 
0

>  <ligand_id>  (184) 
58

>  <original_smiles>  (184) 
CN1CC2(C)C(C(=O)CO)CC34c5c(ccc(O)c5OC5C(O)C=CC523)CC14

>  <smiles>  (184) 
[H]Oc1c([H])c([H])c2c3c1OC1([H])C([H])(O[H])C([H])=C([H])C14C31C([H])([H])C([H])(C(=O)C([H])([H])O[H])C4(C([H])([H])[H])C([H])([H])[N+]([H])(C([H])([H])[H])C1([H])C2([H])[H]

$$$$
58:0:1
     RDKit          3D

 54 59  0  0  1  0  0  0  0  0999 V2000
    6.4841   -6.7563    1.8773 C   0  0  0  0  0  0  0  0  0  0  0  0
    5.1732   -6.1283    1.5874 N   0  0  2  0  0  0  0  0  0  0  0  0
    4.9110   -4.9266    2.4433 C   0  0  0  0  0  0  0  0  0  0  0  0
    3.4081   -4.4440    2.4823 C   0  0  1  0  0  0  0  0  0  0  0  0
    3.3037   -3.1725    3.3517 C   0  0  0  0  0  0  0  0  0  0  0  0
    2.7543   -4.2258    1.0716 C   0  0  1  0  0  0  0  0  0  0  0  0
    3.5868   -3.5398   -0.0358 C   0  0  0  0  0  0  0  0  0  0  0  0
    4.7134   -3.0915    0.1711 O   0  0  0  0  0  0  0  0  0  0  0  0
    2.9609   -3.4147   -1.4224 C   0  0  0  0  0  0  0  0  0  0  0  0
    3.0195   -2.0696   -1.8535 O   0  0  0  0  0  0  0  0  0  0  0  0
    2.1609   -5.6065    0.6862 C   0  0  0  0  0  0  0  0  0  0  0  0
    2.6481   -6.5366    1.8199 C   0  0  2  0  0  0  0  0  0  0  0  0
    1.8722   -7.7734    2.1471 C   0  0  0  0  0  0  0  0  0  0  0  0
    2.6329   -8.9438    2.1133 C   0  0  0  0  0  0  0  0  0  0  0  0
    2.0270  -10.1382    2.5345 C   0  0  0  0  0  0  0  0  0  0  0  0
    0.6805  -10.0889    2.9720 C   0  0  0  0  0  0  0  0  0  0  0  0
   -0.0131   -8.8553    3.0905 C   0  0  0  0  0  0  0  0  0  0  0  0
   -1.2506   -8.8321    3.6711 O   0  0  0  0  0  0  0  0  0  0  0  0
    0.6016   -7.6362    2.7051 C   0  0  0  0  0  0  0  0  0  0  0  0
    0.0982   -6.3813    2.9843 O   0  0  0  0  0  0  0  0  0  0  0  0
    1.0353   -5.3442    3.3982 C   0  0  1  0  0  0  0  0  0  0  0  0
    1.0232   -5.2545    4.9503 C   0  0  1  0  0  0  0  0  0  0  0  0
   -0.1570   -5.7281    5.5676 O   0  0  0  0  0  0  0  0  0  0  0  0
    2.2468   -6.0165    5.3673 C   0  0  0  0  0  0  0  0  0  0  0  0
    3.0880   -6.2045    4.3513 C   0  0  0  0  0  0  0  0  0  0  0  0
    2.5657   -5.6225    3.0411 C   0  0  2  0  0  0  0  0  0  0  0  0
    4.0932   -8.5332    1.9573 C   0  0  0  0  0  0  0  0  0  0  0  0
    4.0302   -7.0834    1.4317 C   0  0  2  0  0  0  0  0  0  0  0  0
    6.5094   -7.1728    2.8868 H   0  0  0  0  0  0  0  0  0  0  0  0
    7.2807   -6.0101    1.8086 H   0  0  0  0  0  0  0  0  0  0  0  0
    6.7164   -7.5513    1.1663 H   0  0  0  0  0  0  0  0  0  0  0  0
    5.2556   -5.1248    3.4604 H   0  0  0  0  0  0  0  0  0  0  0  0
    5.5804   -4.1280    2.1211 H   0  0  0  0  0  0  0  0  0  0  0  0
    2.2817   -2.7956    3.4110 H   0  0  0  0  0  0  0  0  0  0  0  0
    3.9119   -2.3667    2.9426 H   0  0  0  0  0  0  0  0  0  0  0  0
    3.6394   -3.3484    4.3754 H   0  0  0  0  0  0  0  0  0  0  0  0
    1.9128   -3.5516    1.2210 H   0  0  0  0  0  0  0  0  0  0  0  0
    3.5630   -4.0265   -2.0949 H   0  0  0  0  0  0  0  0  0  0  0  0
    1.9338   -3.7962   -1.4249 H   0  0  0  0  0  0  0  0  0  0  0  0
    2.3145   -1.5965   -1.4271 H   0  0  0  0  0  0  0  0  0  0  0  0
    1.0741   -5.5539    0.6952 H   0  0  0  0  0  0  0  0  0  0  0  0
    2.4319   -5.9344   -0.3164 H   0  0  0  0  0  0  0  0  0  0  0  0
    2.5955  -11.0583    2.5865 H   0  0  0  0  0  0  0  0  0  0  0  0
    0.2158  -10.9970    3.3101 H   0  0  0  0  0  0  0  0  0  0  0  0
   -1.5104   -9.6469    4.0986 H   0  0  0  0  0  0  0  0  0  0  0  0
    0.6728   -4.4125    2.9637 H   0  0  0  0  0  0  0  0  0  0  0  0
    1.1714   -4.2182    5.2569 H   0  0  0  0  0  0  0  0  0  0  0  0
   -0.2863   -6.6330    5.3182 H   0  0  0  0  0  0  0  0  0  0  0  0
    2.4143   -6.3425    6.3856 H   0  0  0  0  0  0  0  0  0  0  0  0
    4.0263   -6.7358    4.4374 H   0  0  0  0  0  0  0  0  0  0  0  0
    4.5667   -8.5737    2.9406 H   0  0  0  0  0  0  0  0  0  0  0  0
    4.6285   -9.2048    1.2812 H   0  0  0  0  0  0  0  0  0  0  0  0
    4.0109   -7.2509    0.3547 H   0  0  0  0  0  0  0  0  0  0  0  0
    5.2809   -5.7300    0.6602 H   0  0  0  0  0  0  0  0  0  0  0  0
  1  2  1  0
  1 29  1  0
  1 30  1  0
  1 31  1  0
  2 28  1  0
  2  3  1  0
  2 54  1  6
  3  4  1  0
  3 32  1  0
  3 33  1  0
  4 26  1  0
  4  5  1  1
  4  6  1  0
  5 34  1  0
  5 35  1  0
  5 36  1  0
  6  7  1  0
  6 11  1  0
  6 37  1  1
  7  8  2  0
  7  9  1  0
  9 10  1  0
  9 38  1  0
  9 39  1  0
 10 40  1  0
 12 11  1  6
 11 41  1  0
 11 42  1  0
 12 26  1  0
 12 28  1  0
 12 13  1  0
 13 19  2  0
 13 14  1  0
 14 15  2  0
 14 27  1  0
 15 16  1  0
 15 43  1  0
 16 17  2  0
 16 44  1  0
 17 18  1  0
 17 19  1  0
 18 45  1  0
 19 20  1  0
 20 21  1  0
 21 26  1  0
 21 22  1  0
 21 46  1  6
 22 23  1  0
 22 24  1  0
 22 47  1  6
 23 48  1  0
 24 25  2  0
 24 49  1  0
 26 25  1  1
 25 50  1  0
 27 28  1  0
 27 51  1  0
 27 52  1  0
 28 53  1  6
M  CHG  1   2   1
M  END
>  <i_m_ct_stereo_status>  (185) 
1

>  <s_m_source_file>  (185) 
/var/tmp/pbs.5076255.sched01/tmp2pvlagj1/41_74nrqse.sdf

>  <i_m_source_file_index>  (185) 
41

>  <i_lp_mmshare_version>  (185) 
48012

>  <i_f3d_flags>  (185) 
0

>  <s_epik_input>  (185) 
W09IXVtDSDJdQyg9TylbQ0BASF0oW0NIMl0xKVtDQEBdKFtDSDNdKShbQ0BdMjNbQ0BdMTQ1KVtDSDJdTihbQ0gzXSlbQ0BIXTVbQ0gyXWM2YzRjKGMoW09IXSlbY0hdW2NIXTYpT1tDQEhdMltDQEBIXShbT0hdKVtDSF09W0NIXTM=

>  <s_epik_cmdline>  (185) 
J2VwaWtfcHl0aG9uJywgJy1waHQnLCAnMi4wJywgJy1waCcsICc3LjAnLCAnLXRuJywgJzgnLCAnLW1hJywgJzIwMCcsICctaW1hZScsICc8aW5maWxlLm1hZT4nLCAnLW9tYWUnLCAnPG91dGZpbGUubWFlPic=

>  <r_lp_tautomer_probability>  (185) 
0.9999

>  <r_epik_Ionization_Penalty>  (185) 
0.126429

>  <r_epik_Ionization_Penalty_Charging>  (185) 
0.12337

>  <r_epik_Ionization_Penalty_Neutral>  (185) 
0.00305888

>  <r_epik_State_Penalty>  (185) 
0.260038

>  <r_epik_Charging_Adjusted_Penalty>  (185) 
0.383408

>  <i_epik_Tot_Q>  (185) 
1

>  <i_epik_Tot_abs_Q>  (185) 
1

>  <s_lp_Force_Field>  (185) 
OPLS3e

>  <r_lp_Energy>  (185) 
81.5271

>  <b_lp_Chiralities_Consistent>  (185) 
1

>  <s_lp_Variant>  (185) 
58:0-1

>  <s_i_glide_gridfile>  (185) 
pfpi4k_grid

>  <i_i_glide_lignum>  (185) 
41

>  <i_i_glide_rotatable_bonds>  (185) 
5

>  <r_i_docking_score>  (185) 
-3.85653

>  <r_i_glide_ligand_efficiency>  (185) 
-0.137733

>  <r_i_glide_ligand_efficiency_sa>  (185) 
-0.41824

>  <r_i_glide_ligand_efficiency_ln>  (185) 
-0.890201

>  <r_i_glide_gscore>  (185) 
-3.85653

>  <r_i_glide_lipo>  (185) 
-0.398706

>  <r_i_glide_hbond>  (185) 
-0.126261

>  <r_i_glide_metal>  (185) 
-0

>  <r_i_glide_rewards>  (185) 
-0.797407

>  <r_i_glide_evdw>  (185) 
-23.3456

>  <r_i_glide_ecoul>  (185) 
-10.8665

>  <r_i_glide_erotb>  (185) 
0.263097

>  <r_i_glide_esite>  (185) 
0

>  <r_i_glide_emodel>  (185) 
-41.9228

>  <r_i_glide_energy>  (185) 
-34.2121

>  <r_i_glide_einternal>  (185) 
6.4926

>  <r_i_glide_intrahb_reward>  (185) 
-0

>  <i_i_glide_confnum>  (185) 
2

>  <i_i_glide_posenum>  (185) 
6

>  <r_i_glide_eff_state_penalty>  (185) 
0

>  <ligand_id>  (185) 
58

>  <original_smiles>  (185) 
CN1CC2(C)C(C(=O)CO)CC34c5c(ccc(O)c5OC5C(O)C=CC523)CC14

>  <smiles>  (185) 
[H]Oc1c([H])c([H])c2c3c1OC1([H])C([H])(O[H])C([H])=C([H])C14C31C([H])([H])C([H])(C(=O)C([H])([H])O[H])C4(C([H])([H])[H])C([H])([H])[N+]([H])(C([H])([H])[H])C1([H])C2([H])[H]

$$$$
58:0:2
     RDKit          3D

 54 59  0  0  1  0  0  0  0  0999 V2000
    8.0372   -3.2473   -0.1664 C   0  0  0  0  0  0  0  0  0  0  0  0
    6.5798   -3.1385   -0.4351 N   0  0  2  0  0  0  0  0  0  0  0  0
    5.9758   -1.8759    0.0993 C   0  0  0  0  0  0  0  0  0  0  0  0
    4.4086   -1.8745    0.2599 C   0  0  1  0  0  0  0  0  0  0  0  0
    3.9636   -0.5001    0.8066 C   0  0  0  0  0  0  0  0  0  0  0  0
    3.6351   -2.2406   -1.0491 C   0  0  1  0  0  0  0  0  0  0  0  0
    4.2005   -1.6736   -2.3631 C   0  0  0  0  0  0  0  0  0  0  0  0
    5.0913   -2.2716   -2.9713 O   0  0  0  0  0  0  0  0  0  0  0  0
    3.6590   -0.3262   -2.8451 C   0  0  0  0  0  0  0  0  0  0  0  0
    3.8112   -0.1551   -4.2414 O   0  0  0  0  0  0  0  0  0  0  0  0
    3.5141   -3.7805   -1.0152 C   0  0  0  0  0  0  0  0  0  0  0  0
    4.3351   -4.1891    0.2308 C   0  0  2  0  0  0  0  0  0  0  0  0
    4.0197   -5.4671    0.9364 C   0  0  0  0  0  0  0  0  0  0  0  0
    5.1050   -6.3330    1.0793 C   0  0  0  0  0  0  0  0  0  0  0  0
    4.9249   -7.4965    1.8447 C   0  0  0  0  0  0  0  0  0  0  0  0
    3.6519   -7.7322    2.4199 C   0  0  0  0  0  0  0  0  0  0  0  0
    2.6173   -6.7670    2.3245 C   0  0  0  0  0  0  0  0  0  0  0  0
    1.4467   -6.9525    3.0006 O   0  0  0  0  0  0  0  0  0  0  0  0
    2.8058   -5.5648    1.6105 C   0  0  0  0  0  0  0  0  0  0  0  0
    1.9522   -4.4918    1.6796 O   0  0  0  0  0  0  0  0  0  0  0  0
    2.5129   -3.1496    1.6709 C   0  0  1  0  0  0  0  0  0  0  0  0
    2.5467   -2.6456    3.1375 C   0  0  1  0  0  0  0  0  0  0  0  0
    1.6132   -3.2559    4.0068 O   0  0  0  0  0  0  0  0  0  0  0  0
    3.9692   -2.8729    3.5604 C   0  0  0  0  0  0  0  0  0  0  0  0
    4.7762   -3.0710    2.5204 C   0  0  0  0  0  0  0  0  0  0  0  0
    4.0274   -3.0497    1.1938 C   0  0  2  0  0  0  0  0  0  0  0  0
    6.3473   -5.5572    0.6516 C   0  0  0  0  0  0  0  0  0  0  0  0
    5.7949   -4.3849   -0.1862 C   0  0  2  0  0  0  0  0  0  0  0  0
    8.2415   -3.3571    0.9005 H   0  0  0  0  0  0  0  0  0  0  0  0
    8.5649   -2.3541   -0.5110 H   0  0  0  0  0  0  0  0  0  0  0  0
    8.4768   -4.1001   -0.6875 H   0  0  0  0  0  0  0  0  0  0  0  0
    6.4353   -1.6468    1.0615 H   0  0  0  0  0  0  0  0  0  0  0  0
    6.2804   -1.0545   -0.5493 H   0  0  0  0  0  0  0  0  0  0  0  0
    2.8791   -0.4351    0.8994 H   0  0  0  0  0  0  0  0  0  0  0  0
    4.2695    0.3087    0.1457 H   0  0  0  0  0  0  0  0  0  0  0  0
    4.3899   -0.2939    1.7895 H   0  0  0  0  0  0  0  0  0  0  0  0
    2.6219   -1.8516   -0.9669 H   0  0  0  0  0  0  0  0  0  0  0  0
    2.6001   -0.2535   -2.5957 H   0  0  0  0  0  0  0  0  0  0  0  0
    4.2046    0.4736   -2.3409 H   0  0  0  0  0  0  0  0  0  0  0  0
    3.3767    0.6525   -4.4818 H   0  0  0  0  0  0  0  0  0  0  0  0
    2.4631   -4.0431   -0.9000 H   0  0  0  0  0  0  0  0  0  0  0  0
    3.8354   -4.2502   -1.9456 H   0  0  0  0  0  0  0  0  0  0  0  0
    5.7548   -8.1586    2.0548 H   0  0  0  0  0  0  0  0  0  0  0  0
    3.5057   -8.6086    3.0275 H   0  0  0  0  0  0  0  0  0  0  0  0
    1.4068   -7.7735    3.4685 H   0  0  0  0  0  0  0  0  0  0  0  0
    1.8469   -2.5292    1.0668 H   0  0  0  0  0  0  0  0  0  0  0  0
    2.3697   -1.5704    3.1572 H   0  0  0  0  0  0  0  0  0  0  0  0
    1.7889   -4.1864    4.0373 H   0  0  0  0  0  0  0  0  0  0  0  0
    4.2745   -2.8536    4.5961 H   0  0  0  0  0  0  0  0  0  0  0  0
    5.8351   -3.2658    2.6055 H   0  0  0  0  0  0  0  0  0  0  0  0
    6.8529   -5.1972    1.5496 H   0  0  0  0  0  0  0  0  0  0  0  0
    7.0368   -6.1927    0.0928 H   0  0  0  0  0  0  0  0  0  0  0  0
    5.7577   -4.8252   -1.1778 H   0  0  0  0  0  0  0  0  0  0  0  0
    6.5033   -3.0237   -1.4396 H   0  0  0  0  0  0  0  0  0  0  0  0
  1  2  1  0
  1 29  1  0
  1 30  1  0
  1 31  1  0
  2 28  1  0
  2  3  1  0
  2 54  1  6
  3  4  1  0
  3 32  1  0
  3 33  1  0
  4 26  1  0
  4  5  1  1
  4  6  1  0
  5 34  1  0
  5 35  1  0
  5 36  1  0
  6  7  1  0
  6 11  1  0
  6 37  1  1
  7  8  2  0
  7  9  1  0
  9 10  1  0
  9 38  1  0
  9 39  1  0
 10 40  1  0
 12 11  1  6
 11 41  1  0
 11 42  1  0
 12 26  1  0
 12 28  1  0
 12 13  1  0
 13 19  2  0
 13 14  1  0
 14 15  2  0
 14 27  1  0
 15 16  1  0
 15 43  1  0
 16 17  2  0
 16 44  1  0
 17 18  1  0
 17 19  1  0
 18 45  1  0
 19 20  1  0
 20 21  1  0
 21 26  1  0
 21 22  1  0
 21 46  1  6
 22 23  1  0
 22 24  1  0
 22 47  1  6
 23 48  1  0
 24 25  2  0
 24 49  1  0
 26 25  1  1
 25 50  1  0
 27 28  1  0
 27 51  1  0
 27 52  1  0
 28 53  1  6
M  CHG  1   2   1
M  END
>  <i_m_ct_stereo_status>  (186) 
1

>  <s_m_source_file>  (186) 
/var/tmp/pbs.5076255.sched01/tmp2pvlagj1/41_74nrqse.sdf

>  <i_m_source_file_index>  (186) 
41

>  <i_lp_mmshare_version>  (186) 
48012

>  <i_f3d_flags>  (186) 
0

>  <s_epik_input>  (186) 
W09IXVtDSDJdQyg9TylbQ0BASF0oW0NIMl0xKVtDQEBdKFtDSDNdKShbQ0BdMjNbQ0BdMTQ1KVtDSDJdTihbQ0gzXSlbQ0BIXTVbQ0gyXWM2YzRjKGMoW09IXSlbY0hdW2NIXTYpT1tDQEhdMltDQEBIXShbT0hdKVtDSF09W0NIXTM=

>  <s_epik_cmdline>  (186) 
J2VwaWtfcHl0aG9uJywgJy1waHQnLCAnMi4wJywgJy1waCcsICc3LjAnLCAnLXRuJywgJzgnLCAnLW1hJywgJzIwMCcsICctaW1hZScsICc8aW5maWxlLm1hZT4nLCAnLW9tYWUnLCAnPG91dGZpbGUubWFlPic=

>  <r_lp_tautomer_probability>  (186) 
0.9999

>  <r_epik_Ionization_Penalty>  (186) 
0.126429

>  <r_epik_Ionization_Penalty_Charging>  (186) 
0.12337

>  <r_epik_Ionization_Penalty_Neutral>  (186) 
0.00305888

>  <r_epik_State_Penalty>  (186) 
0.260038

>  <r_epik_Charging_Adjusted_Penalty>  (186) 
0.383408

>  <i_epik_Tot_Q>  (186) 
1

>  <i_epik_Tot_abs_Q>  (186) 
1

>  <s_lp_Force_Field>  (186) 
OPLS3e

>  <r_lp_Energy>  (186) 
81.5271

>  <b_lp_Chiralities_Consistent>  (186) 
1

>  <s_lp_Variant>  (186) 
58:0-1

>  <s_i_glide_gridfile>  (186) 
pfpi4k_grid

>  <i_i_glide_lignum>  (186) 
41

>  <i_i_glide_rotatable_bonds>  (186) 
5

>  <r_i_docking_score>  (186) 
-3.85256

>  <r_i_glide_ligand_efficiency>  (186) 
-0.137592

>  <r_i_glide_ligand_efficiency_sa>  (186) 
-0.417809

>  <r_i_glide_ligand_efficiency_ln>  (186) 
-0.889285

>  <r_i_glide_gscore>  (186) 
-3.85256

>  <r_i_glide_lipo>  (186) 
-0.756005

>  <r_i_glide_hbond>  (186) 
-0.0072167

>  <r_i_glide_metal>  (186) 
-0

>  <r_i_glide_rewards>  (186) 
-1.28787

>  <r_i_glide_evdw>  (186) 
-25.3314

>  <r_i_glide_ecoul>  (186) 
-5.16623

>  <r_i_glide_erotb>  (186) 
0.263097

>  <r_i_glide_esite>  (186) 
-0.0230658

>  <r_i_glide_emodel>  (186) 
-46.2627

>  <r_i_glide_energy>  (186) 
-30.4976

>  <r_i_glide_einternal>  (186) 
0.689034

>  <r_i_glide_intrahb_reward>  (186) 
-0.5

>  <i_i_glide_confnum>  (186) 
3

>  <i_i_glide_posenum>  (186) 
15

>  <r_i_glide_eff_state_penalty>  (186) 
0

>  <ligand_id>  (186) 
58

>  <original_smiles>  (186) 
CN1CC2(C)C(C(=O)CO)CC34c5c(ccc(O)c5OC5C(O)C=CC523)CC14

>  <smiles>  (186) 
[H]Oc1c([H])c([H])c2c3c1OC1([H])C([H])(O[H])C([H])=C([H])C14C31C([H])([H])C([H])(C(=O)C([H])([H])O[H])C4(C([H])([H])[H])C([H])([H])[N+]([H])(C([H])([H])[H])C1([H])C2([H])[H]

$$$$
58:1:0
     RDKit          3D

 54 59  0  0  1  0  0  0  0  0999 V2000
    2.9829   -5.3591    5.6916 C   0  0  0  0  0  0  0  0  0  0  0  0
    3.8338   -5.4890    4.4840 N   0  0  1  0  0  0  0  0  0  0  0  0
    3.9909   -6.9117    4.0435 C   0  0  0  0  0  0  0  0  0  0  0  0
    4.4750   -7.1221    2.5508 C   0  0  1  0  0  0  0  0  0  0  0  0
    5.1998   -8.4863    2.4438 C   0  0  0  0  0  0  0  0  0  0  0  0
    3.3220   -7.0013    1.4832 C   0  0  1  0  0  0  0  0  0  0  0  0
    1.9506   -7.6370    1.8069 C   0  0  0  0  0  0  0  0  0  0  0  0
    1.8680   -8.6132    2.5455 O   0  0  0  0  0  0  0  0  0  0  0  0
    0.6871   -7.0806    1.1411 C   0  0  0  0  0  0  0  0  0  0  0  0
   -0.2251   -6.6533    2.1397 O   0  0  0  0  0  0  0  0  0  0  0  0
    3.2983   -5.4948    1.1058 C   0  0  0  0  0  0  0  0  0  0  0  0
    4.2895   -4.8588    2.0917 C   0  0  2  0  0  0  0  0  0  0  0  0
    4.8820   -3.5697    1.6667 C   0  0  0  0  0  0  0  0  0  0  0  0
    4.5339   -2.4885    2.4806 C   0  0  0  0  0  0  0  0  0  0  0  0
    5.1105   -1.2440    2.1933 C   0  0  0  0  0  0  0  0  0  0  0  0
    5.9972   -1.1534    1.0927 C   0  0  0  0  0  0  0  0  0  0  0  0
    6.3612   -2.3042    0.3400 C   0  0  0  0  0  0  0  0  0  0  0  0
    7.2926   -2.2033   -0.6497 O   0  0  0  0  0  0  0  0  0  0  0  0
    5.8221   -3.5706    0.6455 C   0  0  0  0  0  0  0  0  0  0  0  0
    6.2496   -4.7372    0.0462 O   0  0  0  0  0  0  0  0  0  0  0  0
    6.1576   -5.9855    0.7754 C   0  0  1  0  0  0  0  0  0  0  0  0
    7.6114   -6.3728    1.1612 C   0  0  1  0  0  0  0  0  0  0  0  0
    8.6121   -5.8300    0.3244 O   0  0  0  0  0  0  0  0  0  0  0  0
    7.7271   -5.8862    2.5738 C   0  0  0  0  0  0  0  0  0  0  0  0
    6.5358   -5.6625    3.1268 C   0  0  0  0  0  0  0  0  0  0  0  0
    5.3856   -5.9210    2.1619 C   0  0  2  0  0  0  0  0  0  0  0  0
    3.7650   -3.0395    3.6718 C   0  0  0  0  0  0  0  0  0  0  0  0
    3.5073   -4.5416    3.3869 C   0  0  2  0  0  0  0  0  0  0  0  0
    1.9456   -5.6338    5.4900 H   0  0  0  0  0  0  0  0  0  0  0  0
    3.0010   -4.3407    6.0793 H   0  0  0  0  0  0  0  0  0  0  0  0
    3.3553   -6.0139    6.4816 H   0  0  0  0  0  0  0  0  0  0  0  0
    4.7193   -7.3617    4.7191 H   0  0  0  0  0  0  0  0  0  0  0  0
    3.0728   -7.4485    4.2600 H   0  0  0  0  0  0  0  0  0  0  0  0
    5.5252   -8.7066    1.4232 H   0  0  0  0  0  0  0  0  0  0  0  0
    4.5507   -9.3086    2.7527 H   0  0  0  0  0  0  0  0  0  0  0  0
    6.0899   -8.5230    3.0789 H   0  0  0  0  0  0  0  0  0  0  0  0
    3.6617   -7.5434    0.6011 H   0  0  0  0  0  0  0  0  0  0  0  0
    0.9038   -6.2538    0.4690 H   0  0  0  0  0  0  0  0  0  0  0  0
    0.2426   -7.8624    0.5243 H   0  0  0  0  0  0  0  0  0  0  0  0
    0.2723   -6.4189    2.9119 H   0  0  0  0  0  0  0  0  0  0  0  0
    3.6369   -5.3944    0.0697 H   0  0  0  0  0  0  0  0  0  0  0  0
    2.3442   -4.9734    1.1559 H   0  0  0  0  0  0  0  0  0  0  0  0
    4.9204   -0.3868    2.8312 H   0  0  0  0  0  0  0  0  0  0  0  0
    6.4675   -0.2190    0.8677 H   0  0  0  0  0  0  0  0  0  0  0  0
    7.4974   -3.0446   -1.0335 H   0  0  0  0  0  0  0  0  0  0  0  0
    5.7002   -6.6975    0.0883 H   0  0  0  0  0  0  0  0  0  0  0  0
    7.7209   -7.4573    1.1858 H   0  0  0  0  0  0  0  0  0  0  0  0
    8.4372   -4.9077    0.2190 H   0  0  0  0  0  0  0  0  0  0  0  0
    8.6821   -5.7453    3.0656 H   0  0  0  0  0  0  0  0  0  0  0  0
    6.4131   -5.2841    4.1315 H   0  0  0  0  0  0  0  0  0  0  0  0
    4.3477   -2.8849    4.5811 H   0  0  0  0  0  0  0  0  0  0  0  0
    2.8281   -2.4922    3.7785 H   0  0  0  0  0  0  0  0  0  0  0  0
    2.4342   -4.6337    3.2195 H   0  0  0  0  0  0  0  0  0  0  0  0
    4.7647   -5.2164    4.7692 H   0  0  0  0  0  0  0  0  0  0  0  0
  1  2  1  0
  1 29  1  0
  1 30  1  0
  1 31  1  0
  2 28  1  0
  2  3  1  0
  2 54  1  1
  3  4  1  0
  3 32  1  0
  3 33  1  0
  4 26  1  0
  4  5  1  1
  4  6  1  0
  5 34  1  0
  5 35  1  0
  5 36  1  0
  6  7  1  0
  6 11  1  0
  6 37  1  6
  7  8  2  0
  7  9  1  0
  9 10  1  0
  9 38  1  0
  9 39  1  0
 10 40  1  0
 12 11  1  6
 11 41  1  0
 11 42  1  0
 12 26  1  0
 12 28  1  0
 12 13  1  0
 13 19  2  0
 13 14  1  0
 14 15  2  0
 14 27  1  0
 15 16  1  0
 15 43  1  0
 16 17  2  0
 16 44  1  0
 17 18  1  0
 17 19  1  0
 18 45  1  0
 19 20  1  0
 20 21  1  0
 21 26  1  0
 21 22  1  0
 21 46  1  6
 22 23  1  0
 22 24  1  0
 22 47  1  1
 23 48  1  0
 24 25  2  0
 24 49  1  0
 26 25  1  1
 25 50  1  0
 27 28  1  0
 27 51  1  0
 27 52  1  0
 28 53  1  6
M  CHG  1   2   1
M  END
>  <i_m_ct_stereo_status>  (187) 
1

>  <s_m_source_file>  (187) 
/var/tmp/pbs.5076255.sched01/tmpkd0wjm76/823hn9mkkz.sdf

>  <i_m_source_file_index>  (187) 
1

>  <i_lp_mmshare_version>  (187) 
48012

>  <i_f3d_flags>  (187) 
0

>  <s_epik_input>  (187) 
W09IXVtDSDJdQyg9TylbQ0BASF0oW0NIMl0xKVtDQEBdKFtDSDNdKShbQ0BdMjNbQ0BdMTQ1KVtDSDJdTihbQ0gzXSlbQ0BIXTVbQ0gyXWM2YzRjKGMoW09IXSlbY0hdW2NIXTYpT1tDQEhdMltDQEBIXShbT0hdKVtDSF09W0NIXTM=

>  <s_epik_cmdline>  (187) 
J2VwaWtfcHl0aG9uJywgJy1waHQnLCAnMi4wJywgJy1waCcsICc3LjAnLCAnLXRuJywgJzgnLCAnLW1hJywgJzIwMCcsICctaW1hZScsICc8aW5maWxlLm1hZT4nLCAnLW9tYWUnLCAnPG91dGZpbGUubWFlPic=

>  <r_lp_tautomer_probability>  (187) 
0.9999

>  <r_epik_Ionization_Penalty>  (187) 
0.126429

>  <r_epik_Ionization_Penalty_Charging>  (187) 
0.12337

>  <r_epik_Ionization_Penalty_Neutral>  (187) 
0.00305888

>  <r_epik_State_Penalty>  (187) 
0.260038

>  <r_epik_Charging_Adjusted_Penalty>  (187) 
0.383408

>  <i_epik_Tot_Q>  (187) 
1

>  <i_epik_Tot_abs_Q>  (187) 
1

>  <s_lp_Force_Field>  (187) 
OPLS3e

>  <r_lp_Energy>  (187) 
77.6446

>  <b_lp_Chiralities_Consistent>  (187) 
1

>  <s_lp_Variant>  (187) 
58:0-2

>  <s_i_glide_gridfile>  (187) 
pfpi4k_grid

>  <i_i_glide_lignum>  (187) 
1

>  <i_i_glide_rotatable_bonds>  (187) 
5

>  <r_i_docking_score>  (187) 
-3.08244

>  <r_i_glide_ligand_efficiency>  (187) 
-0.110087

>  <r_i_glide_ligand_efficiency_sa>  (187) 
-0.334289

>  <r_i_glide_ligand_efficiency_ln>  (187) 
-0.711518

>  <r_i_glide_gscore>  (187) 
-3.08244

>  <r_i_glide_lipo>  (187) 
-0.616054

>  <r_i_glide_hbond>  (187) 
0

>  <r_i_glide_metal>  (187) 
-0

>  <r_i_glide_rewards>  (187) 
-0.787871

>  <r_i_glide_evdw>  (187) 
-21.3308

>  <r_i_glide_ecoul>  (187) 
-5.69144

>  <r_i_glide_erotb>  (187) 
0.263097

>  <r_i_glide_esite>  (187) 
-0.021354

>  <r_i_glide_emodel>  (187) 
-28.744

>  <r_i_glide_energy>  (187) 
-27.0223

>  <r_i_glide_einternal>  (187) 
7.39668

>  <r_i_glide_intrahb_reward>  (187) 
-0

>  <i_i_glide_confnum>  (187) 
3

>  <i_i_glide_posenum>  (187) 
7

>  <r_i_glide_eff_state_penalty>  (187) 
0

>  <ligand_id>  (187) 
58

>  <original_smiles>  (187) 
CN1CC2(C)C(C(=O)CO)CC34c5c(ccc(O)c5OC5C(O)C=CC523)CC14

>  <smiles>  (187) 
[H]Oc1c([H])c([H])c2c3c1OC1([H])C([H])(O[H])C([H])=C([H])C14C31C([H])([H])C([H])(C(=O)C([H])([H])O[H])C4(C([H])([H])[H])C([H])([H])[N+]([H])(C([H])([H])[H])C1([H])C2([H])[H]

$$$$
58:1:1
     RDKit          3D

 54 59  0  0  1  0  0  0  0  0999 V2000
   -3.4079    2.9932   10.3720 C   0  0  0  0  0  0  0  0  0  0  0  0
   -2.2649    3.5688    9.6096 N   0  0  1  0  0  0  0  0  0  0  0  0
   -1.1667    4.1115   10.4987 C   0  0  0  0  0  0  0  0  0  0  0  0
    0.2339    4.2889    9.7931 C   0  0  1  0  0  0  0  0  0  0  0  0
    1.0312    5.3574   10.5677 C   0  0  0  0  0  0  0  0  0  0  0  0
    1.0637    2.9626    9.6490 C   0  0  1  0  0  0  0  0  0  0  0  0
    1.0477    1.9697   10.8268 C   0  0  0  0  0  0  0  0  0  0  0  0
    2.0051    1.9393   11.5988 O   0  0  0  0  0  0  0  0  0  0  0  0
   -0.1862    1.0615   11.0003 C   0  0  0  0  0  0  0  0  0  0  0  0
   -0.0866    0.1993   12.1103 O   0  0  0  0  0  0  0  0  0  0  0  0
    0.6663    2.3593    8.2850 C   0  0  0  0  0  0  0  0  0  0  0  0
   -0.4910    3.2748    7.8324 C   0  0  2  0  0  0  0  0  0  0  0  0
   -0.7667    3.3348    6.3730 C   0  0  0  0  0  0  0  0  0  0  0  0
   -2.0221    2.8625    6.0007 C   0  0  0  0  0  0  0  0  0  0  0  0
   -2.3930    2.9423    4.6460 C   0  0  0  0  0  0  0  0  0  0  0  0
   -1.4656    3.5126    3.7382 C   0  0  0  0  0  0  0  0  0  0  0  0
   -0.2387    4.0466    4.1856 C   0  0  0  0  0  0  0  0  0  0  0  0
    0.5878    4.6738    3.3066 O   0  0  0  0  0  0  0  0  0  0  0  0
    0.1423    4.0031    5.5538 C   0  0  0  0  0  0  0  0  0  0  0  0
    1.2646    4.6166    6.0599 O   0  0  0  0  0  0  0  0  0  0  0  0
    1.2571    5.1033    7.4358 C   0  0  1  0  0  0  0  0  0  0  0  0
    1.1393    6.6472    7.3815 C   0  0  1  0  0  0  0  0  0  0  0  0
    1.6365    7.2463    6.2035 O   0  0  0  0  0  0  0  0  0  0  0  0
   -0.3259    6.8967    7.5736 C   0  0  0  0  0  0  0  0  0  0  0  0
   -0.9449    5.8336    8.0831 C   0  0  0  0  0  0  0  0  0  0  0  0
   -0.0012    4.6551    8.3008 C   0  0  2  0  0  0  0  0  0  0  0  0
   -2.7985    2.5689    7.2696 C   0  0  0  0  0  0  0  0  0  0  0  0
   -1.8039    2.7372    8.4469 C   0  0  2  0  0  0  0  0  0  0  0  0
   -3.1231    2.0711   10.8752 H   0  0  0  0  0  0  0  0  0  0  0  0
   -4.2463    2.7761    9.7104 H   0  0  0  0  0  0  0  0  0  0  0  0
   -3.7461    3.6963   11.1292 H   0  0  0  0  0  0  0  0  0  0  0  0
   -1.5313    5.0931   10.8214 H   0  0  0  0  0  0  0  0  0  0  0  0
   -1.0746    3.5382   11.4204 H   0  0  0  0  0  0  0  0  0  0  0  0
    2.0296    5.5115   10.1549 H   0  0  0  0  0  0  0  0  0  0  0  0
    1.1570    5.0685   11.6119 H   0  0  0  0  0  0  0  0  0  0  0  0
    0.5210    6.3223   10.5556 H   0  0  0  0  0  0  0  0  0  0  0  0
    2.1131    3.2505    9.5476 H   0  0  0  0  0  0  0  0  0  0  0  0
   -1.0680    1.6599   11.1641 H   0  0  0  0  0  0  0  0  0  0  0  0
   -0.3258    0.4538   10.1037 H   0  0  0  0  0  0  0  0  0  0  0  0
   -0.9704   -0.0295   12.3880 H   0  0  0  0  0  0  0  0  0  0  0  0
    1.5139    2.4353    7.5979 H   0  0  0  0  0  0  0  0  0  0  0  0
    0.4244    1.2971    8.2968 H   0  0  0  0  0  0  0  0  0  0  0  0
   -3.3726    2.6260    4.3055 H   0  0  0  0  0  0  0  0  0  0  0  0
   -1.7303    3.5931    2.6962 H   0  0  0  0  0  0  0  0  0  0  0  0
    0.3649    4.5433    2.3763 H   0  0  0  0  0  0  0  0  0  0  0  0
    2.2083    4.8011    7.8793 H   0  0  0  0  0  0  0  0  0  0  0  0
    1.6592    7.0898    8.2302 H   0  0  0  0  0  0  0  0  0  0  0  0
    2.5438    7.0015    6.0998 H   0  0  0  0  0  0  0  0  0  0  0  0
   -0.7923    7.8422    7.3364 H   0  0  0  0  0  0  0  0  0  0  0  0
   -2.0030    5.8132    8.3010 H   0  0  0  0  0  0  0  0  0  0  0  0
   -3.6532    3.2414    7.3516 H   0  0  0  0  0  0  0  0  0  0  0  0
   -3.1793    1.5515    7.2271 H   0  0  0  0  0  0  0  0  0  0  0  0
   -1.6529    1.7313    8.8316 H   0  0  0  0  0  0  0  0  0  0  0  0
   -2.6417    4.4020    9.1614 H   0  0  0  0  0  0  0  0  0  0  0  0
  1  2  1  0
  1 29  1  0
  1 30  1  0
  1 31  1  0
  2 28  1  0
  2  3  1  0
  2 54  1  6
  3  4  1  0
  3 32  1  0
  3 33  1  0
  4 26  1  0
  4  5  1  1
  4  6  1  0
  5 34  1  0
  5 35  1  0
  5 36  1  0
  6  7  1  0
  6 11  1  0
  6 37  1  6
  7  8  2  0
  7  9  1  0
  9 10  1  0
  9 38  1  0
  9 39  1  0
 10 40  1  0
 12 11  1  6
 11 41  1  0
 11 42  1  0
 12 26  1  0
 12 28  1  0
 12 13  1  0
 13 19  2  0
 13 14  1  0
 14 15  2  0
 14 27  1  0
 15 16  1  0
 15 43  1  0
 16 17  2  0
 16 44  1  0
 17 18  1  0
 17 19  1  0
 18 45  1  0
 19 20  1  0
 20 21  1  0
 21 26  1  0
 21 22  1  0
 21 46  1  1
 22 23  1  0
 22 24  1  0
 22 47  1  1
 23 48  1  0
 24 25  2  0
 24 49  1  0
 26 25  1  1
 25 50  1  0
 27 28  1  0
 27 51  1  0
 27 52  1  0
 28 53  1  1
M  CHG  1   2   1
M  END
>  <i_m_ct_stereo_status>  (188) 
1

>  <s_m_source_file>  (188) 
/var/tmp/pbs.5076255.sched01/tmpkd0wjm76/823hn9mkkz.sdf

>  <i_m_source_file_index>  (188) 
1

>  <i_lp_mmshare_version>  (188) 
48012

>  <i_f3d_flags>  (188) 
0

>  <s_epik_input>  (188) 
W09IXVtDSDJdQyg9TylbQ0BASF0oW0NIMl0xKVtDQEBdKFtDSDNdKShbQ0BdMjNbQ0BdMTQ1KVtDSDJdTihbQ0gzXSlbQ0BIXTVbQ0gyXWM2YzRjKGMoW09IXSlbY0hdW2NIXTYpT1tDQEhdMltDQEBIXShbT0hdKVtDSF09W0NIXTM=

>  <s_epik_cmdline>  (188) 
J2VwaWtfcHl0aG9uJywgJy1waHQnLCAnMi4wJywgJy1waCcsICc3LjAnLCAnLXRuJywgJzgnLCAnLW1hJywgJzIwMCcsICctaW1hZScsICc8aW5maWxlLm1hZT4nLCAnLW9tYWUnLCAnPG91dGZpbGUubWFlPic=

>  <r_lp_tautomer_probability>  (188) 
0.9999

>  <r_epik_Ionization_Penalty>  (188) 
0.126429

>  <r_epik_Ionization_Penalty_Charging>  (188) 
0.12337

>  <r_epik_Ionization_Penalty_Neutral>  (188) 
0.00305888

>  <r_epik_State_Penalty>  (188) 
0.260038

>  <r_epik_Charging_Adjusted_Penalty>  (188) 
0.383408

>  <i_epik_Tot_Q>  (188) 
1

>  <i_epik_Tot_abs_Q>  (188) 
1

>  <s_lp_Force_Field>  (188) 
OPLS3e

>  <r_lp_Energy>  (188) 
77.6446

>  <b_lp_Chiralities_Consistent>  (188) 
1

>  <s_lp_Variant>  (188) 
58:0-2

>  <s_i_glide_gridfile>  (188) 
pfpi4k_grid

>  <i_i_glide_lignum>  (188) 
1

>  <i_i_glide_rotatable_bonds>  (188) 
5

>  <r_i_docking_score>  (188) 
-2.89409

>  <r_i_glide_ligand_efficiency>  (188) 
-0.10336

>  <r_i_glide_ligand_efficiency_sa>  (188) 
-0.313863

>  <r_i_glide_ligand_efficiency_ln>  (188) 
-0.668041

>  <r_i_glide_gscore>  (188) 
-2.89409

>  <r_i_glide_lipo>  (188) 
-0.229671

>  <r_i_glide_hbond>  (188) 
0

>  <r_i_glide_metal>  (188) 
-0

>  <r_i_glide_rewards>  (188) 
-0.787871

>  <r_i_glide_evdw>  (188) 
-17.0541

>  <r_i_glide_ecoul>  (188) 
-8.34995

>  <r_i_glide_erotb>  (188) 
0.263097

>  <r_i_glide_esite>  (188) 
-0.0344468

>  <r_i_glide_emodel>  (188) 
-28.5451

>  <r_i_glide_energy>  (188) 
-25.404

>  <r_i_glide_einternal>  (188) 
4.26713

>  <r_i_glide_intrahb_reward>  (188) 
-0

>  <i_i_glide_confnum>  (188) 
2

>  <i_i_glide_posenum>  (188) 
3

>  <r_i_glide_eff_state_penalty>  (188) 
0

>  <ligand_id>  (188) 
58

>  <original_smiles>  (188) 
CN1CC2(C)C(C(=O)CO)CC34c5c(ccc(O)c5OC5C(O)C=CC523)CC14

>  <smiles>  (188) 
[H]Oc1c([H])c([H])c2c3c1OC1([H])C([H])(O[H])C([H])=C([H])C14C31C([H])([H])C([H])(C(=O)C([H])([H])O[H])C4(C([H])([H])[H])C([H])([H])[N+]([H])(C([H])([H])[H])C1([H])C2([H])[H]

$$$$
58:1:2
     RDKit          3D

 54 59  0  0  1  0  0  0  0  0999 V2000
    2.5948   -8.2758    6.8218 C   0  0  0  0  0  0  0  0  0  0  0  0
    3.4306   -8.2773    5.5943 N   0  0  1  0  0  0  0  0  0  0  0  0
    4.2702   -9.5126    5.4748 C   0  0  0  0  0  0  0  0  0  0  0  0
    4.8544   -9.8063    4.0290 C   0  0  1  0  0  0  0  0  0  0  0  0
    6.1554  -10.6367    4.1799 C   0  0  0  0  0  0  0  0  0  0  0  0
    3.8140  -10.5060    3.0712 C   0  0  1  0  0  0  0  0  0  0  0  0
    2.9286  -11.5949    3.7044 C   0  0  0  0  0  0  0  0  0  0  0  0
    3.4437  -12.4082    4.4708 O   0  0  0  0  0  0  0  0  0  0  0  0
    1.4264  -11.6727    3.3604 C   0  0  0  0  0  0  0  0  0  0  0  0
    0.6855  -12.0836    4.4856 O   0  0  0  0  0  0  0  0  0  0  0  0
    3.0931   -9.3423    2.3329 C   0  0  0  0  0  0  0  0  0  0  0  0
    3.6019   -8.1029    3.0881 C   0  0  2  0  0  0  0  0  0  0  0  0
    3.5067   -6.8274    2.3358 C   0  0  0  0  0  0  0  0  0  0  0  0
    2.6542   -5.8933    2.9142 C   0  0  0  0  0  0  0  0  0  0  0  0
    2.5529   -4.6276    2.3090 C   0  0  0  0  0  0  0  0  0  0  0  0
    3.3215   -4.3928    1.1425 C   0  0  0  0  0  0  0  0  0  0  0  0
    4.2097   -5.3729    0.6289 C   0  0  0  0  0  0  0  0  0  0  0  0
    4.9873   -5.0728   -0.4484 O   0  0  0  0  0  0  0  0  0  0  0  0
    4.3527   -6.6367    1.2523 C   0  0  0  0  0  0  0  0  0  0  0  0
    5.2911   -7.5799    0.8829 O   0  0  0  0  0  0  0  0  0  0  0  0
    5.8263   -8.4805    1.8928 C   0  0  1  0  0  0  0  0  0  0  0  0
    7.2650   -8.0110    2.2308 C   0  0  1  0  0  0  0  0  0  0  0  0
    7.9281   -7.3090    1.1973 O   0  0  0  0  0  0  0  0  0  0  0  0
    7.0875   -7.1920    3.4757 C   0  0  0  0  0  0  0  0  0  0  0  0
    5.9209   -7.4379    4.0703 C   0  0  0  0  0  0  0  0  0  0  0  0
    5.0777   -8.4506    3.2964 C   0  0  2  0  0  0  0  0  0  0  0  0
    2.2069   -6.4341    4.2618 C   0  0  0  0  0  0  0  0  0  0  0  0
    2.7182   -7.9001    4.3448 C   0  0  2  0  0  0  0  0  0  0  0  0
    1.8250   -9.0546    6.7902 H   0  0  0  0  0  0  0  0  0  0  0  0
    2.1013   -7.3114    6.9696 H   0  0  0  0  0  0  0  0  0  0  0  0
    3.2126   -8.4557    7.7087 H   0  0  0  0  0  0  0  0  0  0  0  0
    5.0947   -9.3816    6.1798 H   0  0  0  0  0  0  0  0  0  0  0  0
    3.7242  -10.3664    5.8789 H   0  0  0  0  0  0  0  0  0  0  0  0
    6.5722  -10.9128    3.2136 H   0  0  0  0  0  0  0  0  0  0  0  0
    5.9812  -11.5628    4.7261 H   0  0  0  0  0  0  0  0  0  0  0  0
    6.9276  -10.0872    4.7200 H   0  0  0  0  0  0  0  0  0  0  0  0
    4.4025  -11.0391    2.3266 H   0  0  0  0  0  0  0  0  0  0  0  0
    1.0009  -10.7189    3.0916 H   0  0  0  0  0  0  0  0  0  0  0  0
    1.2755  -12.3576    2.5185 H   0  0  0  0  0  0  0  0  0  0  0  0
    0.8703  -11.4802    5.1990 H   0  0  0  0  0  0  0  0  0  0  0  0
    3.4395   -9.3582    1.2935 H   0  0  0  0  0  0  0  0  0  0  0  0
    2.0129   -9.3212    2.2711 H   0  0  0  0  0  0  0  0  0  0  0  0
    1.9521   -3.8433    2.7423 H   0  0  0  0  0  0  0  0  0  0  0  0
    3.2755   -3.4309    0.6613 H   0  0  0  0  0  0  0  0  0  0  0  0
    5.3692   -5.8479   -0.8357 H   0  0  0  0  0  0  0  0  0  0  0  0
    5.8367   -9.4773    1.4411 H   0  0  0  0  0  0  0  0  0  0  0  0
    7.8651   -8.8791    2.4992 H   0  0  0  0  0  0  0  0  0  0  0  0
    8.8660   -7.4572    1.2809 H   0  0  0  0  0  0  0  0  0  0  0  0
    7.8348   -6.4988    3.8312 H   0  0  0  0  0  0  0  0  0  0  0  0
    5.5940   -6.9361    4.9715 H   0  0  0  0  0  0  0  0  0  0  0  0
    2.6090   -5.8068    5.0608 H   0  0  0  0  0  0  0  0  0  0  0  0
    1.1179   -6.3912    4.3304 H   0  0  0  0  0  0  0  0  0  0  0  0
    1.8342   -8.5407    4.3003 H   0  0  0  0  0  0  0  0  0  0  0  0
    4.1024   -7.5378    5.7284 H   0  0  0  0  0  0  0  0  0  0  0  0
  1  2  1  0
  1 29  1  0
  1 30  1  0
  1 31  1  0
  2 28  1  0
  2  3  1  0
  2 54  1  1
  3  4  1  0
  3 32  1  0
  3 33  1  0
  4 26  1  0
  4  5  1  1
  4  6  1  0
  5 34  1  0
  5 35  1  0
  5 36  1  0
  6  7  1  0
  6 11  1  0
  6 37  1  6
  7  8  2  0
  7  9  1  0
  9 10  1  0
  9 38  1  0
  9 39  1  0
 10 40  1  0
 12 11  1  6
 11 41  1  0
 11 42  1  0
 12 26  1  0
 12 28  1  0
 12 13  1  0
 13 19  2  0
 13 14  1  0
 14 15  2  0
 14 27  1  0
 15 16  1  0
 15 43  1  0
 16 17  2  0
 16 44  1  0
 17 18  1  0
 17 19  1  0
 18 45  1  0
 19 20  1  0
 20 21  1  0
 21 26  1  0
 21 22  1  0
 21 46  1  6
 22 23  1  0
 22 24  1  0
 22 47  1  1
 23 48  1  0
 24 25  2  0
 24 49  1  0
 26 25  1  1
 25 50  1  0
 27 28  1  0
 27 51  1  0
 27 52  1  0
 28 53  1  6
M  CHG  1   2   1
M  END
>  <i_m_ct_stereo_status>  (189) 
1

>  <s_m_source_file>  (189) 
/var/tmp/pbs.5076255.sched01/tmpkd0wjm76/823hn9mkkz.sdf

>  <i_m_source_file_index>  (189) 
1

>  <i_lp_mmshare_version>  (189) 
48012

>  <i_f3d_flags>  (189) 
0

>  <s_epik_input>  (189) 
W09IXVtDSDJdQyg9TylbQ0BASF0oW0NIMl0xKVtDQEBdKFtDSDNdKShbQ0BdMjNbQ0BdMTQ1KVtDSDJdTihbQ0gzXSlbQ0BIXTVbQ0gyXWM2YzRjKGMoW09IXSlbY0hdW2NIXTYpT1tDQEhdMltDQEBIXShbT0hdKVtDSF09W0NIXTM=

>  <s_epik_cmdline>  (189) 
J2VwaWtfcHl0aG9uJywgJy1waHQnLCAnMi4wJywgJy1waCcsICc3LjAnLCAnLXRuJywgJzgnLCAnLW1hJywgJzIwMCcsICctaW1hZScsICc8aW5maWxlLm1hZT4nLCAnLW9tYWUnLCAnPG91dGZpbGUubWFlPic=

>  <r_lp_tautomer_probability>  (189) 
0.9999

>  <r_epik_Ionization_Penalty>  (189) 
0.126429

>  <r_epik_Ionization_Penalty_Charging>  (189) 
0.12337

>  <r_epik_Ionization_Penalty_Neutral>  (189) 
0.00305888

>  <r_epik_State_Penalty>  (189) 
0.260038

>  <r_epik_Charging_Adjusted_Penalty>  (189) 
0.383408

>  <i_epik_Tot_Q>  (189) 
1

>  <i_epik_Tot_abs_Q>  (189) 
1

>  <s_lp_Force_Field>  (189) 
OPLS3e

>  <r_lp_Energy>  (189) 
77.6446

>  <b_lp_Chiralities_Consistent>  (189) 
1

>  <s_lp_Variant>  (189) 
58:0-2

>  <s_i_glide_gridfile>  (189) 
pfpi4k_grid

>  <i_i_glide_lignum>  (189) 
1

>  <i_i_glide_rotatable_bonds>  (189) 
5

>  <r_i_docking_score>  (189) 
-2.78276

>  <r_i_glide_ligand_efficiency>  (189) 
-0.0993843

>  <r_i_glide_ligand_efficiency_sa>  (189) 
-0.301789

>  <r_i_glide_ligand_efficiency_ln>  (189) 
-0.642343

>  <r_i_glide_gscore>  (189) 
-2.78276

>  <r_i_glide_lipo>  (189) 
-0.318638

>  <r_i_glide_hbond>  (189) 
0

>  <r_i_glide_metal>  (189) 
-0

>  <r_i_glide_rewards>  (189) 
-0.787871

>  <r_i_glide_evdw>  (189) 
-19.5799

>  <r_i_glide_ecoul>  (189) 
-6.23961

>  <r_i_glide_erotb>  (189) 
0.263097

>  <r_i_glide_esite>  (189) 
-0.0244125

>  <r_i_glide_emodel>  (189) 
-27.9406

>  <r_i_glide_energy>  (189) 
-25.8195

>  <r_i_glide_einternal>  (189) 
6.69289

>  <r_i_glide_intrahb_reward>  (189) 
-0

>  <i_i_glide_confnum>  (189) 
2

>  <i_i_glide_posenum>  (189) 
2

>  <r_i_glide_eff_state_penalty>  (189) 
0

>  <ligand_id>  (189) 
58

>  <original_smiles>  (189) 
CN1CC2(C)C(C(=O)CO)CC34c5c(ccc(O)c5OC5C(O)C=CC523)CC14

>  <smiles>  (189) 
[H]Oc1c([H])c([H])c2c3c1OC1([H])C([H])(O[H])C([H])=C([H])C14C31C([H])([H])C([H])(C(=O)C([H])([H])O[H])C4(C([H])([H])[H])C([H])([H])[N+]([H])(C([H])([H])[H])C1([H])C2([H])[H]

$$$$
58:2:0
     RDKit          3D

 53 58  0  0  1  0  0  0  0  0999 V2000
    2.5011   -4.4084    5.2452 C   0  0  0  0  0  0  0  0  0  0  0  0
    3.4150   -4.7677    4.1680 N   0  0  0  0  0  0  0  0  0  0  0  0
    3.3156   -6.2047    3.8693 C   0  0  0  0  0  0  0  0  0  0  0  0
    3.9959   -6.6751    2.5180 C   0  0  1  0  0  0  0  0  0  0  0  0
    4.5397   -8.1177    2.6838 C   0  0  0  0  0  0  0  0  0  0  0  0
    3.0083   -6.5639    1.3026 C   0  0  1  0  0  0  0  0  0  0  0  0
    1.5446   -7.0076    1.5219 C   0  0  0  0  0  0  0  0  0  0  0  0
    0.5995   -6.2803    1.1880 O   0  0  0  0  0  0  0  0  0  0  0  0
    1.3075   -8.3919    2.1364 C   0  0  0  0  0  0  0  0  0  0  0  0
   -0.0485   -8.7709    2.0875 O   0  0  0  0  0  0  0  0  0  0  0  0
    3.1979   -5.1167    0.7740 C   0  0  0  0  0  0  0  0  0  0  0  0
    4.1498   -4.4839    1.8146 C   0  0  2  0  0  0  0  0  0  0  0  0
    4.9581   -3.3151    1.3714 C   0  0  0  0  0  0  0  0  0  0  0  0
    4.6365   -2.1342    2.0108 C   0  0  0  0  0  0  0  0  0  0  0  0
    5.3998   -0.9825    1.7029 C   0  0  0  0  0  0  0  0  0  0  0  0
    6.4225   -1.1148    0.7257 C   0  0  0  0  0  0  0  0  0  0  0  0
    6.7401   -2.3761    0.1488 C   0  0  0  0  0  0  0  0  0  0  0  0
    7.7826   -2.4622   -0.7257 O   0  0  0  0  0  0  0  0  0  0  0  0
    6.0224   -3.5638    0.4865 C   0  0  0  0  0  0  0  0  0  0  0  0
    6.3831   -4.8128    0.0790 O   0  0  0  0  0  0  0  0  0  0  0  0
    5.9926   -5.9700    0.8513 C   0  0  1  0  0  0  0  0  0  0  0  0
    7.3287   -6.5281    1.4505 C   0  0  1  0  0  0  0  0  0  0  0  0
    8.5079   -6.2661    0.6894 O   0  0  0  0  0  0  0  0  0  0  0  0
    7.3620   -5.8995    2.8109 C   0  0  0  0  0  0  0  0  0  0  0  0
    6.1610   -5.4592    3.1890 C   0  0  0  0  0  0  0  0  0  0  0  0
    5.0918   -5.6513    2.1263 C   0  0  2  0  0  0  0  0  0  0  0  0
    3.6376   -2.4518    3.1068 C   0  0  0  0  0  0  0  0  0  0  0  0
    3.2558   -3.9504    2.9605 C   0  0  2  0  0  0  0  0  0  0  0  0
    2.7147   -5.0173    6.1311 H   0  0  0  0  0  0  0  0  0  0  0  0
    1.4592   -4.5789    4.9719 H   0  0  0  0  0  0  0  0  0  0  0  0
    2.6167   -3.3706    5.5384 H   0  0  0  0  0  0  0  0  0  0  0  0
    3.8221   -6.7146    4.6971 H   0  0  0  0  0  0  0  0  0  0  0  0
    2.2774   -6.5169    3.9462 H   0  0  0  0  0  0  0  0  0  0  0  0
    4.9305   -8.5165    1.7458 H   0  0  0  0  0  0  0  0  0  0  0  0
    3.7788   -8.8108    3.0298 H   0  0  0  0  0  0  0  0  0  0  0  0
    5.3393   -8.1595    3.4255 H   0  0  0  0  0  0  0  0  0  0  0  0
    3.3897   -7.2208    0.5224 H   0  0  0  0  0  0  0  0  0  0  0  0
    1.9218   -9.1446    1.6332 H   0  0  0  0  0  0  0  0  0  0  0  0
    1.6002   -8.3832    3.1882 H   0  0  0  0  0  0  0  0  0  0  0  0
   -0.1924   -9.1407    1.2060 H   0  0  0  0  0  0  0  0  0  0  0  0
    3.6635   -5.1575   -0.2129 H   0  0  0  0  0  0  0  0  0  0  0  0
    2.2802   -4.5412    0.6264 H   0  0  0  0  0  0  0  0  0  0  0  0
    5.2269   -0.0540    2.2117 H   0  0  0  0  0  0  0  0  0  0  0  0
    7.0181   -0.2577    0.4825 H   0  0  0  0  0  0  0  0  0  0  0  0
    7.9678   -3.3568   -0.9513 H   0  0  0  0  0  0  0  0  0  0  0  0
    5.5285   -6.6847    0.1743 H   0  0  0  0  0  0  0  0  0  0  0  0
    7.2426   -7.6065    1.5866 H   0  0  0  0  0  0  0  0  0  0  0  0
    9.1740   -6.9059    0.9225 H   0  0  0  0  0  0  0  0  0  0  0  0
    8.2683   -5.8353    3.3979 H   0  0  0  0  0  0  0  0  0  0  0  0
    5.9785   -4.9516    4.1243 H   0  0  0  0  0  0  0  0  0  0  0  0
    4.0714   -2.2154    4.0815 H   0  0  0  0  0  0  0  0  0  0  0  0
    2.7635   -1.8081    2.9717 H   0  0  0  0  0  0  0  0  0  0  0  0
    2.2027   -3.9824    2.6904 H   0  0  0  0  0  0  0  0  0  0  0  0
  1  2  1  0
  1 29  1  0
  1 30  1  0
  1 31  1  0
  2 28  1  0
  2  3  1  0
  3  4  1  0
  3 32  1  0
  3 33  1  0
  4 26  1  0
  4  5  1  1
  4  6  1  0
  5 34  1  0
  5 35  1  0
  5 36  1  0
  6  7  1  0
  6 11  1  0
  6 37  1  6
  7  8  2  0
  7  9  1  0
  9 10  1  0
  9 38  1  0
  9 39  1  0
 10 40  1  0
 12 11  1  6
 11 41  1  0
 11 42  1  0
 12 26  1  0
 12 28  1  0
 12 13  1  0
 13 19  2  0
 13 14  1  0
 14 15  2  0
 14 27  1  0
 15 16  1  0
 15 43  1  0
 16 17  2  0
 16 44  1  0
 17 18  1  0
 17 19  1  0
 18 45  1  0
 19 20  1  0
 20 21  1  0
 21 26  1  0
 21 22  1  0
 21 46  1  6
 22 23  1  0
 22 24  1  0
 22 47  1  1
 23 48  1  0
 24 25  2  0
 24 49  1  0
 26 25  1  1
 25 50  1  0
 27 28  1  0
 27 51  1  0
 27 52  1  0
 28 53  1  6
M  END
>  <i_m_ct_stereo_status>  (190) 
1

>  <s_m_source_file>  (190) 
/var/tmp/pbs.5076255.sched01/tmpkd0wjm76/823hn9mkkz.sdf

>  <i_m_source_file_index>  (190) 
2

>  <i_lp_mmshare_version>  (190) 
48012

>  <i_f3d_flags>  (190) 
0

>  <s_epik_input>  (190) 
W09IXVtDSDJdQyg9TylbQ0BASF0oW0NIMl0xKVtDQEBdKFtDSDNdKShbQ0BdMjNbQ0BdMTQ1KVtDSDJdTihbQ0gzXSlbQ0BIXTVbQ0gyXWM2YzRjKGMoW09IXSlbY0hdW2NIXTYpT1tDQEhdMltDQEBIXShbT0hdKVtDSF09W0NIXTM=

>  <s_epik_cmdline>  (190) 
J2VwaWtfcHl0aG9uJywgJy1waHQnLCAnMi4wJywgJy1waCcsICc3LjAnLCAnLXRuJywgJzgnLCAnLW1hJywgJzIwMCcsICctaW1hZScsICc8aW5maWxlLm1hZT4nLCAnLW9tYWUnLCAnPG91dGZpbGUubWFlPic=

>  <r_lp_tautomer_probability>  (190) 
0.9999

>  <r_epik_Ionization_Penalty>  (190) 
0.990385

>  <r_epik_Ionization_Penalty_Charging>  (190) 
0

>  <r_epik_Ionization_Penalty_Neutral>  (190) 
0.990385

>  <r_epik_State_Penalty>  (190) 
0.614771

>  <r_epik_Charging_Adjusted_Penalty>  (190) 
0.614771

>  <i_epik_Tot_Q>  (190) 
0

>  <i_epik_Tot_abs_Q>  (190) 
0

>  <s_lp_Force_Field>  (190) 
OPLS3e

>  <r_lp_Energy>  (190) 
68.8735

>  <b_lp_Chiralities_Consistent>  (190) 
1

>  <s_lp_Variant>  (190) 
58:0-3

>  <s_i_glide_gridfile>  (190) 
pfpi4k_grid

>  <i_i_glide_lignum>  (190) 
2

>  <i_i_glide_rotatable_bonds>  (190) 
5

>  <r_i_docking_score>  (190) 
-4.31424

>  <r_i_glide_ligand_efficiency>  (190) 
-0.15408

>  <r_i_glide_ligand_efficiency_sa>  (190) 
-0.467878

>  <r_i_glide_ligand_efficiency_ln>  (190) 
-0.995853

>  <r_i_glide_gscore>  (190) 
-4.31424

>  <r_i_glide_lipo>  (190) 
-0.552153

>  <r_i_glide_hbond>  (190) 
-0.152

>  <r_i_glide_metal>  (190) 
-0

>  <r_i_glide_rewards>  (190) 
-0.794744

>  <r_i_glide_evdw>  (190) 
-21.1999

>  <r_i_glide_ecoul>  (190) 
-13.1855

>  <r_i_glide_erotb>  (190) 
0.264339

>  <r_i_glide_esite>  (190) 
-0.0418659

>  <r_i_glide_emodel>  (190) 
-43.306

>  <r_i_glide_energy>  (190) 
-34.3854

>  <r_i_glide_einternal>  (190) 
2.49824

>  <r_i_glide_intrahb_reward>  (190) 
-0

>  <i_i_glide_confnum>  (190) 
2

>  <i_i_glide_posenum>  (190) 
32

>  <r_i_glide_eff_state_penalty>  (190) 
0

>  <ligand_id>  (190) 
58

>  <original_smiles>  (190) 
CN1CC2(C)C(C(=O)CO)CC34c5c(ccc(O)c5OC5C(O)C=CC523)CC14

>  <smiles>  (190) 
[H]Oc1c([H])c([H])c2c3c1OC1([H])C([H])(O[H])C([H])=C([H])C14C31C([H])([H])C([H])(C(=O)C([H])([H])O[H])C4(C([H])([H])[H])C([H])([H])N(C([H])([H])[H])C1([H])C2([H])[H]

$$$$
58:2:1
     RDKit          3D

 53 58  0  0  1  0  0  0  0  0999 V2000
    2.8662   -4.6500    5.5376 C   0  0  0  0  0  0  0  0  0  0  0  0
    3.7329   -4.9609    4.4061 N   0  0  0  0  0  0  0  0  0  0  0  0
    3.6933   -6.4080    4.1264 C   0  0  0  0  0  0  0  0  0  0  0  0
    4.2733   -6.8529    2.7204 C   0  0  1  0  0  0  0  0  0  0  0  0
    4.8830   -8.2701    2.8470 C   0  0  0  0  0  0  0  0  0  0  0  0
    3.1998   -6.7799    1.5697 C   0  0  1  0  0  0  0  0  0  0  0  0
    1.7635   -7.2828    1.8556 C   0  0  0  0  0  0  0  0  0  0  0  0
    1.5382   -8.1175    2.7271 O   0  0  0  0  0  0  0  0  0  0  0  0
    0.6190   -6.8427    0.9328 C   0  0  0  0  0  0  0  0  0  0  0  0
   -0.5820   -6.6854    1.6695 O   0  0  0  0  0  0  0  0  0  0  0  0
    3.3175   -5.3275    1.0298 C   0  0  0  0  0  0  0  0  0  0  0  0
    4.2961   -4.6587    2.0054 C   0  0  2  0  0  0  0  0  0  0  0  0
    5.0157   -3.4656    1.5006 C   0  0  0  0  0  0  0  0  0  0  0  0
    4.6764   -2.2853    2.1629 C   0  0  0  0  0  0  0  0  0  0  0  0
    5.3507   -1.1131    1.7962 C   0  0  0  0  0  0  0  0  0  0  0  0
    6.3181   -1.1941    0.7611 C   0  0  0  0  0  0  0  0  0  0  0  0
    6.6514   -2.4408    0.1573 C   0  0  0  0  0  0  0  0  0  0  0  0
    7.6407   -2.4742   -0.7783 O   0  0  0  0  0  0  0  0  0  0  0  0
    6.0127   -3.6406    0.5421 C   0  0  0  0  0  0  0  0  0  0  0  0
    6.3783   -4.8971    0.0817 O   0  0  0  0  0  0  0  0  0  0  0  0
    6.1258   -6.0579    0.9144 C   0  0  1  0  0  0  0  0  0  0  0  0
    7.5126   -6.5479    1.4264 C   0  0  1  0  0  0  0  0  0  0  0  0
    8.6142   -6.2576    0.5868 O   0  0  0  0  0  0  0  0  0  0  0  0
    7.6187   -5.9103    2.7797 C   0  0  0  0  0  0  0  0  0  0  0  0
    6.4278   -5.5250    3.2388 C   0  0  0  0  0  0  0  0  0  0  0  0
    5.3016   -5.7836    2.2487 C   0  0  2  0  0  0  0  0  0  0  0  0
    3.7570   -2.6487    3.3204 C   0  0  0  0  0  0  0  0  0  0  0  0
    3.4553   -4.1639    3.2101 C   0  0  2  0  0  0  0  0  0  0  0  0
    3.1654   -5.2428    6.4044 H   0  0  0  0  0  0  0  0  0  0  0  0
    1.8185   -4.8742    5.3292 H   0  0  0  0  0  0  0  0  0  0  0  0
    2.9426   -3.6005    5.8205 H   0  0  0  0  0  0  0  0  0  0  0  0
    4.2849   -6.8830    4.9111 H   0  0  0  0  0  0  0  0  0  0  0  0
    2.6820   -6.7629    4.3026 H   0  0  0  0  0  0  0  0  0  0  0  0
    5.2416   -8.6570    1.8925 H   0  0  0  0  0  0  0  0  0  0  0  0
    4.1499   -8.9825    3.2265 H   0  0  0  0  0  0  0  0  0  0  0  0
    5.7284   -8.2829    3.5385 H   0  0  0  0  0  0  0  0  0  0  0  0
    3.5503   -7.4403    0.7803 H   0  0  0  0  0  0  0  0  0  0  0  0
    0.8157   -5.9125    0.4106 H   0  0  0  0  0  0  0  0  0  0  0  0
    0.4930   -7.6031    0.1662 H   0  0  0  0  0  0  0  0  0  0  0  0
   -0.8125   -7.5462    2.0052 H   0  0  0  0  0  0  0  0  0  0  0  0
    3.7176   -5.3626    0.0147 H   0  0  0  0  0  0  0  0  0  0  0  0
    2.4168   -4.7254    0.9769 H   0  0  0  0  0  0  0  0  0  0  0  0
    5.1643   -0.1844    2.3139 H   0  0  0  0  0  0  0  0  0  0  0  0
    6.8587   -0.3043    0.4785 H   0  0  0  0  0  0  0  0  0  0  0  0
    7.8381   -3.3662   -1.0291 H   0  0  0  0  0  0  0  0  0  0  0  0
    5.6470   -6.8046    0.2849 H   0  0  0  0  0  0  0  0  0  0  0  0
    7.4909   -7.6293    1.5756 H   0  0  0  0  0  0  0  0  0  0  0  0
    9.3174   -6.8633    0.8201 H   0  0  0  0  0  0  0  0  0  0  0  0
    8.5576   -5.8011    3.3070 H   0  0  0  0  0  0  0  0  0  0  0  0
    6.2753   -5.0291    4.1830 H   0  0  0  0  0  0  0  0  0  0  0  0
    4.2420   -2.3887    4.2594 H   0  0  0  0  0  0  0  0  0  0  0  0
    2.8463   -2.0535    3.2405 H   0  0  0  0  0  0  0  0  0  0  0  0
    2.3873   -4.2559    3.0123 H   0  0  0  0  0  0  0  0  0  0  0  0
  1  2  1  0
  1 29  1  0
  1 30  1  0
  1 31  1  0
  2 28  1  0
  2  3  1  0
  3  4  1  0
  3 32  1  0
  3 33  1  0
  4 26  1  0
  4  5  1  1
  4  6  1  0
  5 34  1  0
  5 35  1  0
  5 36  1  0
  6  7  1  0
  6 11  1  0
  6 37  1  6
  7  8  2  0
  7  9  1  0
  9 10  1  0
  9 38  1  0
  9 39  1  0
 10 40  1  0
 12 11  1  6
 11 41  1  0
 11 42  1  0
 12 26  1  0
 12 28  1  0
 12 13  1  0
 13 19  2  0
 13 14  1  0
 14 15  2  0
 14 27  1  0
 15 16  1  0
 15 43  1  0
 16 17  2  0
 16 44  1  0
 17 18  1  0
 17 19  1  0
 18 45  1  0
 19 20  1  0
 20 21  1  0
 21 26  1  0
 21 22  1  0
 21 46  1  6
 22 23  1  0
 22 24  1  0
 22 47  1  1
 23 48  1  0
 24 25  2  0
 24 49  1  0
 26 25  1  1
 25 50  1  0
 27 28  1  0
 27 51  1  0
 27 52  1  0
 28 53  1  6
M  END
>  <i_m_ct_stereo_status>  (191) 
1

>  <s_m_source_file>  (191) 
/var/tmp/pbs.5076255.sched01/tmpkd0wjm76/823hn9mkkz.sdf

>  <i_m_source_file_index>  (191) 
2

>  <i_lp_mmshare_version>  (191) 
48012

>  <i_f3d_flags>  (191) 
0

>  <s_epik_input>  (191) 
W09IXVtDSDJdQyg9TylbQ0BASF0oW0NIMl0xKVtDQEBdKFtDSDNdKShbQ0BdMjNbQ0BdMTQ1KVtDSDJdTihbQ0gzXSlbQ0BIXTVbQ0gyXWM2YzRjKGMoW09IXSlbY0hdW2NIXTYpT1tDQEhdMltDQEBIXShbT0hdKVtDSF09W0NIXTM=

>  <s_epik_cmdline>  (191) 
J2VwaWtfcHl0aG9uJywgJy1waHQnLCAnMi4wJywgJy1waCcsICc3LjAnLCAnLXRuJywgJzgnLCAnLW1hJywgJzIwMCcsICctaW1hZScsICc8aW5maWxlLm1hZT4nLCAnLW9tYWUnLCAnPG91dGZpbGUubWFlPic=

>  <r_lp_tautomer_probability>  (191) 
0.9999

>  <r_epik_Ionization_Penalty>  (191) 
0.990385

>  <r_epik_Ionization_Penalty_Charging>  (191) 
0

>  <r_epik_Ionization_Penalty_Neutral>  (191) 
0.990385

>  <r_epik_State_Penalty>  (191) 
0.614771

>  <r_epik_Charging_Adjusted_Penalty>  (191) 
0.614771

>  <i_epik_Tot_Q>  (191) 
0

>  <i_epik_Tot_abs_Q>  (191) 
0

>  <s_lp_Force_Field>  (191) 
OPLS3e

>  <r_lp_Energy>  (191) 
68.8735

>  <b_lp_Chiralities_Consistent>  (191) 
1

>  <s_lp_Variant>  (191) 
58:0-3

>  <s_i_glide_gridfile>  (191) 
pfpi4k_grid

>  <i_i_glide_lignum>  (191) 
2

>  <i_i_glide_rotatable_bonds>  (191) 
5

>  <r_i_docking_score>  (191) 
-3.40631

>  <r_i_glide_ligand_efficiency>  (191) 
-0.121654

>  <r_i_glide_ligand_efficiency_sa>  (191) 
-0.369413

>  <r_i_glide_ligand_efficiency_ln>  (191) 
-0.786276

>  <r_i_glide_gscore>  (191) 
-3.40631

>  <r_i_glide_lipo>  (191) 
-0.555894

>  <r_i_glide_hbond>  (191) 
0

>  <r_i_glide_metal>  (191) 
-0

>  <r_i_glide_rewards>  (191) 
-0.794744

>  <r_i_glide_evdw>  (191) 
-21.3681

>  <r_i_glide_ecoul>  (191) 
-8.1747

>  <r_i_glide_erotb>  (191) 
0.264339

>  <r_i_glide_esite>  (191) 
-0.0254016

>  <r_i_glide_emodel>  (191) 
-34.7874

>  <r_i_glide_energy>  (191) 
-29.5428

>  <r_i_glide_einternal>  (191) 
5.41903

>  <r_i_glide_intrahb_reward>  (191) 
-0

>  <i_i_glide_confnum>  (191) 
4

>  <i_i_glide_posenum>  (191) 
1

>  <r_i_glide_eff_state_penalty>  (191) 
0

>  <ligand_id>  (191) 
58

>  <original_smiles>  (191) 
CN1CC2(C)C(C(=O)CO)CC34c5c(ccc(O)c5OC5C(O)C=CC523)CC14

>  <smiles>  (191) 
[H]Oc1c([H])c([H])c2c3c1OC1([H])C([H])(O[H])C([H])=C([H])C14C31C([H])([H])C([H])(C(=O)C([H])([H])O[H])C4(C([H])([H])[H])C([H])([H])N(C([H])([H])[H])C1([H])C2([H])[H]

$$$$
58:2:2
     RDKit          3D

 53 58  0  0  1  0  0  0  0  0999 V2000
    2.3719    2.9259    2.4945 C   0  0  0  0  0  0  0  0  0  0  0  0
    1.6234    2.4093    3.6308 N   0  0  0  0  0  0  0  0  0  0  0  0
    0.8672    3.5072    4.2582 C   0  0  0  0  0  0  0  0  0  0  0  0
   -0.2632    3.0587    5.2734 C   0  0  1  0  0  0  0  0  0  0  0  0
   -0.4189    4.1198    6.3860 C   0  0  0  0  0  0  0  0  0  0  0  0
   -1.6347    2.7597    4.5684 C   0  0  1  0  0  0  0  0  0  0  0  0
   -2.1482    3.7270    3.4791 C   0  0  0  0  0  0  0  0  0  0  0  0
   -1.7557    4.8919    3.4132 O   0  0  0  0  0  0  0  0  0  0  0  0
   -3.2730    3.2239    2.5650 C   0  0  0  0  0  0  0  0  0  0  0  0
   -4.0777    4.2927    2.0989 O   0  0  0  0  0  0  0  0  0  0  0  0
   -1.5511    1.2677    4.1612 C   0  0  0  0  0  0  0  0  0  0  0  0
   -0.1040    0.8800    4.5164 C   0  0  2  0  0  0  0  0  0  0  0  0
    0.1643   -0.5610    4.7524 C   0  0  0  0  0  0  0  0  0  0  0  0
    1.0120   -1.1470    3.8213 C   0  0  0  0  0  0  0  0  0  0  0  0
    1.3779   -2.4906    4.0091 C   0  0  0  0  0  0  0  0  0  0  0  0
    0.8577   -3.1776    5.1313 C   0  0  0  0  0  0  0  0  0  0  0  0
    0.0363   -2.5096    6.0810 C   0  0  0  0  0  0  0  0  0  0  0  0
   -0.4002   -3.1844    7.1839 O   0  0  0  0  0  0  0  0  0  0  0  0
   -0.3081   -1.1401    5.9317 C   0  0  0  0  0  0  0  0  0  0  0  0
   -0.9821   -0.4092    6.8779 O   0  0  0  0  0  0  0  0  0  0  0  0
   -0.7943    1.0296    6.9754 C   0  0  1  0  0  0  0  0  0  0  0  0
    0.0114    1.2793    8.2800 C   0  0  1  0  0  0  0  0  0  0  0  0
   -0.1864    0.3022    9.2886 O   0  0  0  0  0  0  0  0  0  0  0  0
    1.4303    1.3470    7.7961 C   0  0  0  0  0  0  0  0  0  0  0  0
    1.4877    1.5690    6.4827 C   0  0  0  0  0  0  0  0  0  0  0  0
    0.1098    1.6548    5.8273 C   0  0  2  0  0  0  0  0  0  0  0  0
    1.5137   -0.0484    2.9055 C   0  0  0  0  0  0  0  0  0  0  0  0
    0.7781    1.2594    3.3009 C   0  0  2  0  0  0  0  0  0  0  0  0
    3.0131    3.7515    2.8050 H   0  0  0  0  0  0  0  0  0  0  0  0
    1.7253    3.2975    1.7045 H   0  0  0  0  0  0  0  0  0  0  0  0
    3.0066    2.1473    2.0790 H   0  0  0  0  0  0  0  0  0  0  0  0
    1.5956    4.1039    4.8127 H   0  0  0  0  0  0  0  0  0  0  0  0
    0.4831    4.1613    3.4758 H   0  0  0  0  0  0  0  0  0  0  0  0
   -1.2268    3.8884    7.0821 H   0  0  0  0  0  0  0  0  0  0  0  0
   -0.6311    5.0970    5.9578 H   0  0  0  0  0  0  0  0  0  0  0  0
    0.4936    4.2202    6.9768 H   0  0  0  0  0  0  0  0  0  0  0  0
   -2.4029    2.8193    5.3336 H   0  0  0  0  0  0  0  0  0  0  0  0
   -2.8466    2.6824    1.7192 H   0  0  0  0  0  0  0  0  0  0  0  0
   -3.9025    2.5377    3.1310 H   0  0  0  0  0  0  0  0  0  0  0  0
   -4.7423    3.9508    1.5194 H   0  0  0  0  0  0  0  0  0  0  0  0
   -2.2614    0.6853    4.7548 H   0  0  0  0  0  0  0  0  0  0  0  0
   -1.7769    1.0565    3.1180 H   0  0  0  0  0  0  0  0  0  0  0  0
    2.0805   -2.9701    3.3359 H   0  0  0  0  0  0  0  0  0  0  0  0
    1.1393   -4.2040    5.2923 H   0  0  0  0  0  0  0  0  0  0  0  0
   -0.0111   -4.0406    7.2713 H   0  0  0  0  0  0  0  0  0  0  0  0
   -1.7825    1.4870    7.0438 H   0  0  0  0  0  0  0  0  0  0  0  0
   -0.2468    2.2545    8.7003 H   0  0  0  0  0  0  0  0  0  0  0  0
    0.1430    0.6498   10.1062 H   0  0  0  0  0  0  0  0  0  0  0  0
    2.2820    1.2495    8.4567 H   0  0  0  0  0  0  0  0  0  0  0  0
    2.4120    1.6440    5.9312 H   0  0  0  0  0  0  0  0  0  0  0  0
    2.5955    0.0555    3.0119 H   0  0  0  0  0  0  0  0  0  0  0  0
    1.2993   -0.3110    1.8653 H   0  0  0  0  0  0  0  0  0  0  0  0
    0.1585    1.5576    2.4568 H   0  0  0  0  0  0  0  0  0  0  0  0
  1  2  1  0
  1 29  1  0
  1 30  1  0
  1 31  1  0
  2 28  1  0
  2  3  1  0
  3  4  1  0
  3 32  1  0
  3 33  1  0
  4 26  1  0
  4  5  1  1
  4  6  1  0
  5 34  1  0
  5 35  1  0
  5 36  1  0
  6  7  1  0
  6 11  1  0
  6 37  1  1
  7  8  2  0
  7  9  1  0
  9 10  1  0
  9 38  1  0
  9 39  1  0
 10 40  1  0
 12 11  1  6
 11 41  1  0
 11 42  1  0
 12 26  1  0
 12 28  1  0
 12 13  1  0
 13 19  2  0
 13 14  1  0
 14 15  2  0
 14 27  1  0
 15 16  1  0
 15 43  1  0
 16 17  2  0
 16 44  1  0
 17 18  1  0
 17 19  1  0
 18 45  1  0
 19 20  1  0
 20 21  1  0
 21 26  1  0
 21 22  1  0
 21 46  1  1
 22 23  1  0
 22 24  1  0
 22 47  1  1
 23 48  1  0
 24 25  2  0
 24 49  1  0
 26 25  1  1
 25 50  1  0
 27 28  1  0
 27 51  1  0
 27 52  1  0
 28 53  1  6
M  END
>  <i_m_ct_stereo_status>  (192) 
1

>  <s_m_source_file>  (192) 
/var/tmp/pbs.5076255.sched01/tmpkd0wjm76/823hn9mkkz.sdf

>  <i_m_source_file_index>  (192) 
2

>  <i_lp_mmshare_version>  (192) 
48012

>  <i_f3d_flags>  (192) 
0

>  <s_epik_input>  (192) 
W09IXVtDSDJdQyg9TylbQ0BASF0oW0NIMl0xKVtDQEBdKFtDSDNdKShbQ0BdMjNbQ0BdMTQ1KVtDSDJdTihbQ0gzXSlbQ0BIXTVbQ0gyXWM2YzRjKGMoW09IXSlbY0hdW2NIXTYpT1tDQEhdMltDQEBIXShbT0hdKVtDSF09W0NIXTM=

>  <s_epik_cmdline>  (192) 
J2VwaWtfcHl0aG9uJywgJy1waHQnLCAnMi4wJywgJy1waCcsICc3LjAnLCAnLXRuJywgJzgnLCAnLW1hJywgJzIwMCcsICctaW1hZScsICc8aW5maWxlLm1hZT4nLCAnLW9tYWUnLCAnPG91dGZpbGUubWFlPic=

>  <r_lp_tautomer_probability>  (192) 
0.9999

>  <r_epik_Ionization_Penalty>  (192) 
0.990385

>  <r_epik_Ionization_Penalty_Charging>  (192) 
0

>  <r_epik_Ionization_Penalty_Neutral>  (192) 
0.990385

>  <r_epik_State_Penalty>  (192) 
0.614771

>  <r_epik_Charging_Adjusted_Penalty>  (192) 
0.614771

>  <i_epik_Tot_Q>  (192) 
0

>  <i_epik_Tot_abs_Q>  (192) 
0

>  <s_lp_Force_Field>  (192) 
OPLS3e

>  <r_lp_Energy>  (192) 
68.8735

>  <b_lp_Chiralities_Consistent>  (192) 
1

>  <s_lp_Variant>  (192) 
58:0-3

>  <s_i_glide_gridfile>  (192) 
pfpi4k_grid

>  <i_i_glide_lignum>  (192) 
2

>  <i_i_glide_rotatable_bonds>  (192) 
5

>  <r_i_docking_score>  (192) 
-3.39564

>  <r_i_glide_ligand_efficiency>  (192) 
-0.121273

>  <r_i_glide_ligand_efficiency_sa>  (192) 
-0.368256

>  <r_i_glide_ligand_efficiency_ln>  (192) 
-0.783813

>  <r_i_glide_gscore>  (192) 
-3.39564

>  <r_i_glide_lipo>  (192) 
-0.0225552

>  <r_i_glide_hbond>  (192) 
-0.246382

>  <r_i_glide_metal>  (192) 
-0

>  <r_i_glide_rewards>  (192) 
-0.794744

>  <r_i_glide_evdw>  (192) 
-18.646

>  <r_i_glide_ecoul>  (192) 
-10.6194

>  <r_i_glide_erotb>  (192) 
0.264339

>  <r_i_glide_esite>  (192) 
-0.0710889

>  <r_i_glide_emodel>  (192) 
-35.2109

>  <r_i_glide_energy>  (192) 
-29.2654

>  <r_i_glide_einternal>  (192) 
4.15639

>  <r_i_glide_intrahb_reward>  (192) 
-0

>  <i_i_glide_confnum>  (192) 
2

>  <i_i_glide_posenum>  (192) 
2

>  <r_i_glide_eff_state_penalty>  (192) 
0

>  <ligand_id>  (192) 
58

>  <original_smiles>  (192) 
CN1CC2(C)C(C(=O)CO)CC34c5c(ccc(O)c5OC5C(O)C=CC523)CC14

>  <smiles>  (192) 
[H]Oc1c([H])c([H])c2c3c1OC1([H])C([H])(O[H])C([H])=C([H])C14C31C([H])([H])C([H])(C(=O)C([H])([H])O[H])C4(C([H])([H])[H])C([H])([H])N(C([H])([H])[H])C1([H])C2([H])[H]

$$$$
59:0:0
     RDKit          3D

 33 34  0  0  1  0  0  0  0  0999 V2000
    4.4782   -3.6010    2.2607 C   0  0  0  0  0  0  0  0  0  0  0  0
    4.1578   -4.2254    0.8913 C   0  0  0  0  0  0  0  0  0  0  0  0
    5.3913   -4.9651    0.3011 C   0  0  0  0  0  0  0  0  0  0  0  0
    3.5491   -3.2306   -0.0366 N   0  0  2  0  0  0  0  0  0  0  0  0
    3.0676   -3.7616   -1.3304 C   0  0  0  0  0  0  0  0  0  0  0  0
    2.8032   -2.5673   -2.2152 C   0  0  2  0  0  0  0  0  0  0  0  0
    3.3392   -2.6416   -3.6375 C   0  0  0  0  0  0  0  0  0  0  0  0
    3.9463   -1.2498   -3.8386 C   0  0  1  0  0  0  0  0  0  0  0  0
    2.8556   -0.2147   -4.2023 C   0  0  0  0  0  0  0  0  0  0  0  0
    3.4395    0.9586   -4.7292 O   0  0  0  0  0  0  0  0  0  0  0  0
    4.5271   -0.9676   -2.5677 O   0  0  0  0  0  0  0  0  0  0  0  0
    3.6417   -1.4480   -1.5688 C   0  0  2  0  0  0  0  0  0  0  0  0
    4.3586   -2.0509   -0.3527 C   0  0  0  0  0  0  0  0  0  0  0  0
    4.9350   -4.3253    2.9396 H   0  0  0  0  0  0  0  0  0  0  0  0
    3.5778   -3.2236    2.7481 H   0  0  0  0  0  0  0  0  0  0  0  0
    5.1770   -2.7696    2.1711 H   0  0  0  0  0  0  0  0  0  0  0  0
    3.4065   -4.9970    1.0882 H   0  0  0  0  0  0  0  0  0  0  0  0
    5.8271   -5.6620    1.0328 H   0  0  0  0  0  0  0  0  0  0  0  0
    6.1670   -4.2554    0.0118 H   0  0  0  0  0  0  0  0  0  0  0  0
    5.1186   -5.5477   -0.5835 H   0  0  0  0  0  0  0  0  0  0  0  0
    3.8835   -4.3000   -1.7826 H   0  0  0  0  0  0  0  0  0  0  0  0
    2.1730   -4.3872   -1.2347 H   0  0  0  0  0  0  0  0  0  0  0  0
    1.7533   -2.2865   -2.2456 H   0  0  0  0  0  0  0  0  0  0  0  0
    4.1340   -3.3724   -3.7387 H   0  0  0  0  0  0  0  0  0  0  0  0
    2.5579   -2.8816   -4.3417 H   0  0  0  0  0  0  0  0  0  0  0  0
    4.7194   -1.2830   -4.6004 H   0  0  0  0  0  0  0  0  0  0  0  0
    2.2129   -0.6052   -4.9740 H   0  0  0  0  0  0  0  0  0  0  0  0
    2.2305    0.0646   -3.3565 H   0  0  0  0  0  0  0  0  0  0  0  0
    3.1135    1.6670   -4.1814 H   0  0  0  0  0  0  0  0  0  0  0  0
    2.9263   -0.6547   -1.2192 H   0  0  0  0  0  0  0  0  0  0  0  0
    4.4016   -1.3154    0.4393 H   0  0  0  0  0  0  0  0  0  0  0  0
    5.3693   -2.3185   -0.6614 H   0  0  0  0  0  0  0  0  0  0  0  0
    2.7192   -2.8627    0.4078 H   0  0  0  0  0  0  0  0  0  0  0  0
  1  2  1  0
  1 14  1  0
  1 15  1  0
  1 16  1  0
  2  3  1  0
  2  4  1  0
  2 17  1  0
  3 18  1  0
  3 19  1  0
  3 20  1  0
  4 13  1  0
  4  5  1  0
  4 33  1  1
  5  6  1  0
  5 21  1  0
  5 22  1  0
  6 12  1  0
  6  7  1  0
  6 23  1  6
  7  8  1  0
  7 24  1  0
  7 25  1  0
  8  9  1  0
  8 11  1  0
  8 26  1  6
  9 10  1  0
  9 27  1  0
  9 28  1  0
 10 29  1  0
 11 12  1  0
 12 13  1  0
 12 30  1  1
 13 31  1  0
 13 32  1  0
M  CHG  1   4   1
M  END
>  <i_m_ct_stereo_status>  (193) 
1

>  <s_m_source_file>  (193) 
/var/tmp/pbs.5076255.sched01/tmpkd0wjm76/823hn9mkkz.sdf

>  <i_m_source_file_index>  (193) 
3

>  <i_lp_mmshare_version>  (193) 
48012

>  <i_f3d_flags>  (193) 
0

>  <s_epik_input>  (193) 
W0NIM11bQ0hdKFtDSDNdKU4oW0NIMl0xKVtDSDJdW0NASF0oW0NASF0xMilPW0NAQEhdKFtDSDJdMilbQ0gyXVtPSF0=

>  <s_epik_cmdline>  (193) 
J2VwaWtfcHl0aG9uJywgJy1waHQnLCAnMi4wJywgJy1waCcsICc3LjAnLCAnLXRuJywgJzgnLCAnLW1hJywgJzIwMCcsICctaW1hZScsICc8aW5maWxlLm1hZT4nLCAnLW9tYWUnLCAnPG91dGZpbGUubWFlPic=

>  <r_epik_Ionization_Penalty>  (193) 
0.00138967

>  <r_epik_Ionization_Penalty_Charging>  (193) 
0.00138962

>  <r_epik_Ionization_Penalty_Neutral>  (193) 
5.64366e-08

>  <r_epik_State_Penalty>  (193) 
0.000926175

>  <r_epik_Charging_Adjusted_Penalty>  (193) 
0.00231579

>  <i_epik_Tot_Q>  (193) 
1

>  <i_epik_Tot_abs_Q>  (193) 
1

>  <s_lp_Force_Field>  (193) 
OPLS3e

>  <r_lp_Energy>  (193) 
-0.347764

>  <b_lp_Chiralities_Consistent>  (193) 
1

>  <s_lp_Variant>  (193) 
59:0-1

>  <s_i_glide_gridfile>  (193) 
pfpi4k_grid

>  <i_i_glide_lignum>  (193) 
3

>  <i_i_glide_rotatable_bonds>  (193) 
3

>  <r_i_docking_score>  (193) 
-4.49075

>  <r_i_glide_ligand_efficiency>  (193) 
-0.345442

>  <r_i_glide_ligand_efficiency_sa>  (193) 
-0.81225

>  <r_i_glide_ligand_efficiency_ln>  (193) 
-1.25969

>  <r_i_glide_gscore>  (193) 
-4.49075

>  <r_i_glide_lipo>  (193) 
-0.704164

>  <r_i_glide_hbond>  (193) 
0

>  <r_i_glide_metal>  (193) 
-0

>  <r_i_glide_rewards>  (193) 
-2.13906

>  <r_i_glide_evdw>  (193) 
-14.3012

>  <r_i_glide_ecoul>  (193) 
-9.27945

>  <r_i_glide_erotb>  (193) 
0.459454

>  <r_i_glide_esite>  (193) 
0

>  <r_i_glide_emodel>  (193) 
-25.0984

>  <r_i_glide_energy>  (193) 
-23.5807

>  <r_i_glide_einternal>  (193) 
11.1721

>  <r_i_glide_intrahb_reward>  (193) 
-0

>  <i_i_glide_confnum>  (193) 
5

>  <i_i_glide_posenum>  (193) 
25

>  <r_i_glide_eff_state_penalty>  (193) 
0

>  <ligand_id>  (193) 
59

>  <original_smiles>  (193) 
CC(C)N1CC2CC(CO)OC2C1

>  <smiles>  (193) 
[H]OC([H])([H])C1([H])OC2([H])C([H])(C1([H])[H])C([H])([H])[N+]([H])(C([H])(C([H])([H])[H])C([H])([H])[H])C2([H])[H]

$$$$
59:0:1
     RDKit          3D

 33 34  0  0  1  0  0  0  0  0999 V2000
    2.8574   -4.9361    0.7995 C   0  0  0  0  0  0  0  0  0  0  0  0
    3.5355   -3.5476    0.7473 C   0  0  0  0  0  0  0  0  0  0  0  0
    3.3198   -2.8033    2.0783 C   0  0  0  0  0  0  0  0  0  0  0  0
    3.0756   -2.7367   -0.4040 N   0  0  2  0  0  0  0  0  0  0  0  0
    3.0470   -3.4529   -1.6996 C   0  0  0  0  0  0  0  0  0  0  0  0
    2.8624   -2.3664   -2.7357 C   0  0  2  0  0  0  0  0  0  0  0  0
    3.6859   -2.4944   -3.9960 C   0  0  0  0  0  0  0  0  0  0  0  0
    4.1178   -1.0537   -4.2099 C   0  0  1  0  0  0  0  0  0  0  0  0
    3.0720   -0.2087   -4.9384 C   0  0  0  0  0  0  0  0  0  0  0  0
    3.4327    1.1401   -5.0767 O   0  0  0  0  0  0  0  0  0  0  0  0
    4.4126   -0.6100   -2.8875 O   0  0  0  0  0  0  0  0  0  0  0  0
    3.3579   -1.0879   -2.0695 C   0  0  2  0  0  0  0  0  0  0  0  0
    3.8264   -1.4937   -0.6767 C   0  0  0  0  0  0  0  0  0  0  0  0
    3.1763   -5.5209    1.6634 H   0  0  0  0  0  0  0  0  0  0  0  0
    3.0860   -5.5432   -0.0808 H   0  0  0  0  0  0  0  0  0  0  0  0
    1.7754   -4.8332    0.8523 H   0  0  0  0  0  0  0  0  0  0  0  0
    4.6095   -3.7468    0.6559 H   0  0  0  0  0  0  0  0  0  0  0  0
    3.6510   -3.4002    2.9278 H   0  0  0  0  0  0  0  0  0  0  0  0
    2.2660   -2.5631    2.2282 H   0  0  0  0  0  0  0  0  0  0  0  0
    3.8810   -1.8689    2.1084 H   0  0  0  0  0  0  0  0  0  0  0  0
    4.0062   -3.9525   -1.8347 H   0  0  0  0  0  0  0  0  0  0  0  0
    2.2317   -4.1733   -1.7791 H   0  0  0  0  0  0  0  0  0  0  0  0
    1.8002   -2.2503   -2.9781 H   0  0  0  0  0  0  0  0  0  0  0  0
    4.5692   -3.1137   -3.8386 H   0  0  0  0  0  0  0  0  0  0  0  0
    3.1039   -2.9202   -4.8098 H   0  0  0  0  0  0  0  0  0  0  0  0
    5.0095   -1.0391   -4.8009 H   0  0  0  0  0  0  0  0  0  0  0  0
    3.0335   -0.6009   -5.9555 H   0  0  0  0  0  0  0  0  0  0  0  0
    2.0810   -0.2718   -4.5093 H   0  0  0  0  0  0  0  0  0  0  0  0
    3.2146    1.5933   -4.2672 H   0  0  0  0  0  0  0  0  0  0  0  0
    2.5433   -0.3600   -2.1003 H   0  0  0  0  0  0  0  0  0  0  0  0
    3.6386   -0.7010    0.0496 H   0  0  0  0  0  0  0  0  0  0  0  0
    4.8975   -1.7051   -0.6809 H   0  0  0  0  0  0  0  0  0  0  0  0
    2.1230   -2.3938   -0.2679 H   0  0  0  0  0  0  0  0  0  0  0  0
  1  2  1  0
  1 14  1  0
  1 15  1  0
  1 16  1  0
  2  3  1  0
  2  4  1  0
  2 17  1  0
  3 18  1  0
  3 19  1  0
  3 20  1  0
  4 13  1  0
  4  5  1  0
  4 33  1  1
  5  6  1  0
  5 21  1  0
  5 22  1  0
  6 12  1  0
  6  7  1  0
  6 23  1  6
  7  8  1  0
  7 24  1  0
  7 25  1  0
  8  9  1  0
  8 11  1  0
  8 26  1  6
  9 10  1  0
  9 27  1  0
  9 28  1  0
 10 29  1  0
 11 12  1  0
 12 13  1  0
 12 30  1  1
 13 31  1  0
 13 32  1  0
M  CHG  1   4   1
M  END
>  <i_m_ct_stereo_status>  (194) 
1

>  <s_m_source_file>  (194) 
/var/tmp/pbs.5076255.sched01/tmpkd0wjm76/823hn9mkkz.sdf

>  <i_m_source_file_index>  (194) 
3

>  <i_lp_mmshare_version>  (194) 
48012

>  <i_f3d_flags>  (194) 
0

>  <s_epik_input>  (194) 
W0NIM11bQ0hdKFtDSDNdKU4oW0NIMl0xKVtDSDJdW0NASF0oW0NASF0xMilPW0NAQEhdKFtDSDJdMilbQ0gyXVtPSF0=

>  <s_epik_cmdline>  (194) 
J2VwaWtfcHl0aG9uJywgJy1waHQnLCAnMi4wJywgJy1waCcsICc3LjAnLCAnLXRuJywgJzgnLCAnLW1hJywgJzIwMCcsICctaW1hZScsICc8aW5maWxlLm1hZT4nLCAnLW9tYWUnLCAnPG91dGZpbGUubWFlPic=

>  <r_epik_Ionization_Penalty>  (194) 
0.00138967

>  <r_epik_Ionization_Penalty_Charging>  (194) 
0.00138962

>  <r_epik_Ionization_Penalty_Neutral>  (194) 
5.64366e-08

>  <r_epik_State_Penalty>  (194) 
0.000926175

>  <r_epik_Charging_Adjusted_Penalty>  (194) 
0.00231579

>  <i_epik_Tot_Q>  (194) 
1

>  <i_epik_Tot_abs_Q>  (194) 
1

>  <s_lp_Force_Field>  (194) 
OPLS3e

>  <r_lp_Energy>  (194) 
-0.347764

>  <b_lp_Chiralities_Consistent>  (194) 
1

>  <s_lp_Variant>  (194) 
59:0-1

>  <s_i_glide_gridfile>  (194) 
pfpi4k_grid

>  <i_i_glide_lignum>  (194) 
3

>  <i_i_glide_rotatable_bonds>  (194) 
3

>  <r_i_docking_score>  (194) 
-4.24995

>  <r_i_glide_ligand_efficiency>  (194) 
-0.32692

>  <r_i_glide_ligand_efficiency_sa>  (194) 
-0.768697

>  <r_i_glide_ligand_efficiency_ln>  (194) 
-1.19215

>  <r_i_glide_gscore>  (194) 
-4.24995

>  <r_i_glide_lipo>  (194) 
-0.332775

>  <r_i_glide_hbond>  (194) 
-0.182773

>  <r_i_glide_metal>  (194) 
-0

>  <r_i_glide_rewards>  (194) 
-2.13906

>  <r_i_glide_evdw>  (194) 
-14.7946

>  <r_i_glide_ecoul>  (194) 
-8.48732

>  <r_i_glide_erotb>  (194) 
0.459454

>  <r_i_glide_esite>  (194) 
-0.0419718

>  <r_i_glide_emodel>  (194) 
-27.6648

>  <r_i_glide_energy>  (194) 
-23.2819

>  <r_i_glide_einternal>  (194) 
2.89768

>  <r_i_glide_intrahb_reward>  (194) 
-0

>  <i_i_glide_confnum>  (194) 
5

>  <i_i_glide_posenum>  (194) 
1

>  <r_i_glide_eff_state_penalty>  (194) 
0

>  <ligand_id>  (194) 
59

>  <original_smiles>  (194) 
CC(C)N1CC2CC(CO)OC2C1

>  <smiles>  (194) 
[H]OC([H])([H])C1([H])OC2([H])C([H])(C1([H])[H])C([H])([H])[N+]([H])(C([H])(C([H])([H])[H])C([H])([H])[H])C2([H])[H]

$$$$
59:0:2
     RDKit          3D

 33 34  0  0  1  0  0  0  0  0999 V2000
    2.9519   -5.5262    0.6392 C   0  0  0  0  0  0  0  0  0  0  0  0
    3.9172   -4.4720    1.2114 C   0  0  0  0  0  0  0  0  0  0  0  0
    3.3899   -3.8722    2.5293 C   0  0  0  0  0  0  0  0  0  0  0  0
    4.2746   -3.3906    0.2331 N   0  0  2  0  0  0  0  0  0  0  0  0
    3.1784   -2.4559   -0.0976 C   0  0  0  0  0  0  0  0  0  0  0  0
    3.6958   -1.6864   -1.3194 C   0  0  2  0  0  0  0  0  0  0  0  0
    2.6612   -1.5227   -2.4069 C   0  0  0  0  0  0  0  0  0  0  0  0
    3.4512   -1.7812   -3.6665 C   0  0  1  0  0  0  0  0  0  0  0  0
    4.2201   -0.5219   -4.0826 C   0  0  0  0  0  0  0  0  0  0  0  0
    3.3929    0.4311   -4.7356 O   0  0  0  0  0  0  0  0  0  0  0  0
    4.3624   -2.8226   -3.2837 O   0  0  0  0  0  0  0  0  0  0  0  0
    4.8050   -2.5576   -1.9363 C   0  0  2  0  0  0  0  0  0  0  0  0
    4.8551   -3.8173   -1.0591 C   0  0  0  0  0  0  0  0  0  0  0  0
    2.6828   -6.2662    1.4043 H   0  0  0  0  0  0  0  0  0  0  0  0
    3.4035   -6.0680   -0.1936 H   0  0  0  0  0  0  0  0  0  0  0  0
    2.0291   -5.0713    0.2816 H   0  0  0  0  0  0  0  0  0  0  0  0
    4.8458   -4.9875    1.4649 H   0  0  0  0  0  0  0  0  0  0  0  0
    3.1292   -4.6547    3.2487 H   0  0  0  0  0  0  0  0  0  0  0  0
    2.4908   -3.2724    2.3808 H   0  0  0  0  0  0  0  0  0  0  0  0
    4.1304   -3.2359    3.0163 H   0  0  0  0  0  0  0  0  0  0  0  0
    2.2909   -3.0296   -0.3597 H   0  0  0  0  0  0  0  0  0  0  0  0
    2.9302   -1.7590    0.6999 H   0  0  0  0  0  0  0  0  0  0  0  0
    4.1357   -0.7140   -1.0214 H   0  0  0  0  0  0  0  0  0  0  0  0
    1.8599   -2.2546   -2.3563 H   0  0  0  0  0  0  0  0  0  0  0  0
    2.2242   -0.5235   -2.3778 H   0  0  0  0  0  0  0  0  0  0  0  0
    2.8167   -2.1431   -4.4827 H   0  0  0  0  0  0  0  0  0  0  0  0
    4.6768   -0.0336   -3.2273 H   0  0  0  0  0  0  0  0  0  0  0  0
    5.0180   -0.8095   -4.7555 H   0  0  0  0  0  0  0  0  0  0  0  0
    2.8332    0.8396   -4.0787 H   0  0  0  0  0  0  0  0  0  0  0  0
    5.7584   -2.0117   -1.9824 H   0  0  0  0  0  0  0  0  0  0  0  0
    5.8813   -4.1849   -0.9600 H   0  0  0  0  0  0  0  0  0  0  0  0
    4.2621   -4.5943   -1.5234 H   0  0  0  0  0  0  0  0  0  0  0  0
    4.9777   -2.8294    0.6809 H   0  0  0  0  0  0  0  0  0  0  0  0
  1  2  1  0
  1 14  1  0
  1 15  1  0
  1 16  1  0
  2  3  1  0
  2  4  1  0
  2 17  1  0
  3 18  1  0
  3 19  1  0
  3 20  1  0
  4 13  1  0
  4  5  1  0
  4 33  1  1
  5  6  1  0
  5 21  1  0
  5 22  1  0
  6 12  1  0
  6  7  1  0
  6 23  1  1
  7  8  1  0
  7 24  1  0
  7 25  1  0
  8  9  1  0
  8 11  1  0
  8 26  1  6
  9 10  1  0
  9 27  1  0
  9 28  1  0
 10 29  1  0
 11 12  1  0
 12 13  1  0
 12 30  1  6
 13 31  1  0
 13 32  1  0
M  CHG  1   4   1
M  END
>  <i_m_ct_stereo_status>  (195) 
1

>  <s_m_source_file>  (195) 
/var/tmp/pbs.5076255.sched01/tmpkd0wjm76/823hn9mkkz.sdf

>  <i_m_source_file_index>  (195) 
3

>  <i_lp_mmshare_version>  (195) 
48012

>  <i_f3d_flags>  (195) 
0

>  <s_epik_input>  (195) 
W0NIM11bQ0hdKFtDSDNdKU4oW0NIMl0xKVtDSDJdW0NASF0oW0NASF0xMilPW0NAQEhdKFtDSDJdMilbQ0gyXVtPSF0=

>  <s_epik_cmdline>  (195) 
J2VwaWtfcHl0aG9uJywgJy1waHQnLCAnMi4wJywgJy1waCcsICc3LjAnLCAnLXRuJywgJzgnLCAnLW1hJywgJzIwMCcsICctaW1hZScsICc8aW5maWxlLm1hZT4nLCAnLW9tYWUnLCAnPG91dGZpbGUubWFlPic=

>  <r_epik_Ionization_Penalty>  (195) 
0.00138967

>  <r_epik_Ionization_Penalty_Charging>  (195) 
0.00138962

>  <r_epik_Ionization_Penalty_Neutral>  (195) 
5.64366e-08

>  <r_epik_State_Penalty>  (195) 
0.000926175

>  <r_epik_Charging_Adjusted_Penalty>  (195) 
0.00231579

>  <i_epik_Tot_Q>  (195) 
1

>  <i_epik_Tot_abs_Q>  (195) 
1

>  <s_lp_Force_Field>  (195) 
OPLS3e

>  <r_lp_Energy>  (195) 
-0.347764

>  <b_lp_Chiralities_Consistent>  (195) 
1

>  <s_lp_Variant>  (195) 
59:0-1

>  <s_i_glide_gridfile>  (195) 
pfpi4k_grid

>  <i_i_glide_lignum>  (195) 
3

>  <i_i_glide_rotatable_bonds>  (195) 
3

>  <r_i_docking_score>  (195) 
-3.89586

>  <r_i_glide_ligand_efficiency>  (195) 
-0.299682

>  <r_i_glide_ligand_efficiency_sa>  (195) 
-0.704652

>  <r_i_glide_ligand_efficiency_ln>  (195) 
-1.09282

>  <r_i_glide_gscore>  (195) 
-3.89586

>  <r_i_glide_lipo>  (195) 
-0.467078

>  <r_i_glide_hbond>  (195) 
-0.200828

>  <r_i_glide_metal>  (195) 
-0

>  <r_i_glide_rewards>  (195) 
-2.13906

>  <r_i_glide_evdw>  (195) 
-15.4834

>  <r_i_glide_ecoul>  (195) 
-5.16122

>  <r_i_glide_erotb>  (195) 
0.459454

>  <r_i_glide_esite>  (195) 
0

>  <r_i_glide_emodel>  (195) 
-21.8553

>  <r_i_glide_energy>  (195) 
-20.6446

>  <r_i_glide_einternal>  (195) 
9.72242

>  <r_i_glide_intrahb_reward>  (195) 
-0

>  <i_i_glide_confnum>  (195) 
4

>  <i_i_glide_posenum>  (195) 
9

>  <r_i_glide_eff_state_penalty>  (195) 
0

>  <ligand_id>  (195) 
59

>  <original_smiles>  (195) 
CC(C)N1CC2CC(CO)OC2C1

>  <smiles>  (195) 
[H]OC([H])([H])C1([H])OC2([H])C([H])(C1([H])[H])C([H])([H])[N+]([H])(C([H])(C([H])([H])[H])C([H])([H])[H])C2([H])[H]

$$$$
60:0:0
     RDKit          3D

 19 20  0  0  1  0  0  0  0  0999 V2000
   -0.6522    0.5420    2.5167 O   0  0  0  0  0  0  0  0  0  0  0  0
   -0.9520    1.2568    3.4643 C   0  0  0  0  0  0  0  0  0  0  0  0
   -0.9852    0.6708    4.6702 N   0  0  0  0  0  0  0  0  0  0  0  0
   -1.2900    1.2585    5.8426 C   0  0  0  0  0  0  0  0  0  0  0  0
   -1.3253    0.5433    6.8376 O   0  0  0  0  0  0  0  0  0  0  0  0
   -1.5790    2.7181    5.7994 C   0  0  0  0  0  0  0  0  0  0  0  0
   -1.9063    3.5086    6.8545 C   0  0  0  0  0  0  0  0  0  0  0  0
   -2.0444    3.2948    8.2913 C   0  0  0  0  0  0  0  0  0  0  0  0
   -1.6717    2.2246    8.9993 N   0  0  0  0  0  0  0  0  0  0  0  0
   -1.9195    2.3552   10.3667 C   0  0  0  0  0  0  0  0  0  0  0  0
   -2.5349    3.5398   10.6806 C   0  0  0  0  0  0  0  0  0  0  0  0
   -2.7878    4.5400    9.2828 S   0  0  0  0  0  0  0  0  0  0  0  0
   -1.5402    3.3356    4.4528 C   0  0  0  0  0  0  0  0  0  0  0  0
   -1.7840    4.5378    4.3201 O   0  0  0  0  0  0  0  0  0  0  0  0
   -1.2483    2.5781    3.3707 N   0  0  0  0  0  0  0  0  0  0  0  0
   -0.7681   -0.3137    4.6867 H   0  0  0  0  0  0  0  0  0  0  0  0
   -2.0791    4.5406    6.6232 H   0  0  0  0  0  0  0  0  0  0  0  0
   -1.6881    1.5482   11.0504 H   0  0  0  0  0  0  0  0  0  0  0  0
   -2.8725    3.8587   11.6515 H   0  0  0  0  0  0  0  0  0  0  0  0
  1  2  2  0
  2 15  1  0
  2  3  1  0
  3  4  1  0
  3 16  1  0
  4  5  2  0
  4  6  1  0
  6  7  2  3
  6 13  1  0
  7  8  1  0
  7 17  1  0
  8 12  1  0
  8  9  2  0
  9 10  1  0
 10 11  2  0
 10 18  1  0
 11 12  1  0
 11 19  1  0
 13 14  2  0
 13 15  1  0
M  CHG  1  15  -1
M  END
>  <i_m_ct_stereo_status>  (196) 
1

>  <s_m_source_file>  (196) 
/var/tmp/pbs.5076255.sched01/tmpkd0wjm76/823hn9mkkz.sdf

>  <i_m_source_file_index>  (196) 
4

>  <i_lp_mmshare_version>  (196) 
48012

>  <i_f3d_flags>  (196) 
0

>  <s_epik_input>  (196) 
Tz1DMVtOSF1DKD1PKUMoQyg9TylbTkhdMSk9W0NIXWMybltjSF1bY0hdczI=

>  <s_epik_cmdline>  (196) 
J2VwaWtfcHl0aG9uJywgJy1waHQnLCAnMi4wJywgJy1waCcsICc3LjAnLCAnLXRuJywgJzgnLCAnLW1hJywgJzIwMCcsICctaW1hZScsICc8aW5maWxlLm1hZT4nLCAnLW9tYWUnLCAnPG91dGZpbGUubWFlPic=

>  <r_epik_Ionization_Penalty>  (196) 
0.0165118

>  <r_epik_Ionization_Penalty_Charging>  (196) 
0.016511

>  <r_epik_Ionization_Penalty_Neutral>  (196) 
7.59251e-07

>  <r_epik_State_Penalty>  (196) 
0.417234

>  <r_epik_Charging_Adjusted_Penalty>  (196) 
0.433745

>  <i_epik_Tot_Q>  (196) 
-1

>  <i_epik_Tot_abs_Q>  (196) 
1

>  <s_lp_Force_Field>  (196) 
OPLS3e

>  <r_lp_Energy>  (196) 
30.8476

>  <b_lp_Chiralities_Consistent>  (196) 
1

>  <s_lp_Variant>  (196) 
60:0-1

>  <s_i_glide_gridfile>  (196) 
pfpi4k_grid

>  <i_i_glide_lignum>  (196) 
4

>  <i_i_glide_rotatable_bonds>  (196) 
1

>  <r_i_docking_score>  (196) 
-4.13726

>  <r_i_glide_ligand_efficiency>  (196) 
-0.275817

>  <r_i_glide_ligand_efficiency_sa>  (196) 
-0.680224

>  <r_i_glide_ligand_efficiency_ln>  (196) 
-1.11575

>  <r_i_glide_gscore>  (196) 
-4.13726

>  <r_i_glide_lipo>  (196) 
-0.184491

>  <r_i_glide_hbond>  (196) 
-0.272407

>  <r_i_glide_metal>  (196) 
-0

>  <r_i_glide_rewards>  (196) 
-1.89408

>  <r_i_glide_evdw>  (196) 
-15.7004

>  <r_i_glide_ecoul>  (196) 
-5.89527

>  <r_i_glide_erotb>  (196) 
0

>  <r_i_glide_esite>  (196) 
-0.116976

>  <r_i_glide_emodel>  (196) 
-29.0119

>  <r_i_glide_energy>  (196) 
-21.5956

>  <r_i_glide_einternal>  (196) 
0.275216

>  <r_i_glide_intrahb_reward>  (196) 
-0

>  <i_i_glide_confnum>  (196) 
1

>  <i_i_glide_posenum>  (196) 
18

>  <r_i_glide_eff_state_penalty>  (196) 
0

>  <ligand_id>  (196) 
60

>  <original_smiles>  (196) 
O=C1NC(=O)C(=Cc2nccs2)C(=O)N1

>  <smiles>  (196) 
[H]C(=C1C(=O)[N-]C(=O)N([H])C1=O)c1nc([H])c([H])s1

$$$$
60:0:1
     RDKit          3D

 19 20  0  0  1  0  0  0  0  0999 V2000
   -0.4132    0.8028    2.0924 O   0  0  0  0  0  0  0  0  0  0  0  0
   -0.7826    1.0751    3.2260 C   0  0  0  0  0  0  0  0  0  0  0  0
   -0.6770    2.3527    3.6285 N   0  0  0  0  0  0  0  0  0  0  0  0
   -1.0409    2.8536    4.8315 C   0  0  0  0  0  0  0  0  0  0  0  0
   -0.9014    4.0590    5.0139 O   0  0  0  0  0  0  0  0  0  0  0  0
   -1.5998    1.8792    5.8091 C   0  0  0  0  0  0  0  0  0  0  0  0
   -2.0453    2.1514    7.0694 C   0  0  0  0  0  0  0  0  0  0  0  0
   -2.0785    3.3627    7.8897 C   0  0  0  0  0  0  0  0  0  0  0  0
   -1.4057    4.5001    7.7029 N   0  0  0  0  0  0  0  0  0  0  0  0
   -1.6844    5.4687    8.6694 C   0  0  0  0  0  0  0  0  0  0  0  0
   -2.5757    5.0348    9.6125 C   0  0  0  0  0  0  0  0  0  0  0  0
   -3.1082    3.4091    9.3131 S   0  0  0  0  0  0  0  0  0  0  0  0
   -1.7050    0.4850    5.3327 C   0  0  0  0  0  0  0  0  0  0  0  0
   -2.1873   -0.3746    6.0732 O   0  0  0  0  0  0  0  0  0  0  0  0
   -1.2846    0.1556    4.0922 N   0  0  0  0  0  0  0  0  0  0  0  0
   -0.2903    3.0007    2.9450 H   0  0  0  0  0  0  0  0  0  0  0  0
   -2.4379    1.3203    7.6409 H   0  0  0  0  0  0  0  0  0  0  0  0
   -1.2084    6.4418    8.6075 H   0  0  0  0  0  0  0  0  0  0  0  0
   -2.9579    5.5631   10.4709 H   0  0  0  0  0  0  0  0  0  0  0  0
  1  2  2  0
  2 15  1  0
  2  3  1  0
  3  4  1  0
  3 16  1  0
  4  5  2  0
  4  6  1  0
  6  7  2  3
  6 13  1  0
  7  8  1  0
  7 17  1  0
  8 12  1  0
  8  9  2  0
  9 10  1  0
 10 11  2  0
 10 18  1  0
 11 12  1  0
 11 19  1  0
 13 14  2  0
 13 15  1  0
M  CHG  1  15  -1
M  END
>  <i_m_ct_stereo_status>  (197) 
1

>  <s_m_source_file>  (197) 
/var/tmp/pbs.5076255.sched01/tmpkd0wjm76/823hn9mkkz.sdf

>  <i_m_source_file_index>  (197) 
4

>  <i_lp_mmshare_version>  (197) 
48012

>  <i_f3d_flags>  (197) 
0

>  <s_epik_input>  (197) 
Tz1DMVtOSF1DKD1PKUMoQyg9TylbTkhdMSk9W0NIXWMybltjSF1bY0hdczI=

>  <s_epik_cmdline>  (197) 
J2VwaWtfcHl0aG9uJywgJy1waHQnLCAnMi4wJywgJy1waCcsICc3LjAnLCAnLXRuJywgJzgnLCAnLW1hJywgJzIwMCcsICctaW1hZScsICc8aW5maWxlLm1hZT4nLCAnLW9tYWUnLCAnPG91dGZpbGUubWFlPic=

>  <r_epik_Ionization_Penalty>  (197) 
0.0165118

>  <r_epik_Ionization_Penalty_Charging>  (197) 
0.016511

>  <r_epik_Ionization_Penalty_Neutral>  (197) 
7.59251e-07

>  <r_epik_State_Penalty>  (197) 
0.417234

>  <r_epik_Charging_Adjusted_Penalty>  (197) 
0.433745

>  <i_epik_Tot_Q>  (197) 
-1

>  <i_epik_Tot_abs_Q>  (197) 
1

>  <s_lp_Force_Field>  (197) 
OPLS3e

>  <r_lp_Energy>  (197) 
30.8476

>  <b_lp_Chiralities_Consistent>  (197) 
1

>  <s_lp_Variant>  (197) 
60:0-1

>  <s_i_glide_gridfile>  (197) 
pfpi4k_grid

>  <i_i_glide_lignum>  (197) 
4

>  <i_i_glide_rotatable_bonds>  (197) 
1

>  <r_i_docking_score>  (197) 
-3.8686

>  <r_i_glide_ligand_efficiency>  (197) 
-0.257907

>  <r_i_glide_ligand_efficiency_sa>  (197) 
-0.636053

>  <r_i_glide_ligand_efficiency_ln>  (197) 
-1.0433

>  <r_i_glide_gscore>  (197) 
-3.8686

>  <r_i_glide_lipo>  (197) 
-0.051265

>  <r_i_glide_hbond>  (197) 
-0.135762

>  <r_i_glide_metal>  (197) 
-0

>  <r_i_glide_rewards>  (197) 
-1.89408

>  <r_i_glide_evdw>  (197) 
-18.1533

>  <r_i_glide_ecoul>  (197) 
-4.93815

>  <r_i_glide_erotb>  (197) 
0

>  <r_i_glide_esite>  (197) 
-0.139107

>  <r_i_glide_emodel>  (197) 
-29.8834

>  <r_i_glide_energy>  (197) 
-23.0915

>  <r_i_glide_einternal>  (197) 
0.518363

>  <r_i_glide_intrahb_reward>  (197) 
-0

>  <i_i_glide_confnum>  (197) 
2

>  <i_i_glide_posenum>  (197) 
39

>  <r_i_glide_eff_state_penalty>  (197) 
0

>  <ligand_id>  (197) 
60

>  <original_smiles>  (197) 
O=C1NC(=O)C(=Cc2nccs2)C(=O)N1

>  <smiles>  (197) 
[H]C(=C1C(=O)[N-]C(=O)N([H])C1=O)c1nc([H])c([H])s1

$$$$
60:0:2
     RDKit          3D

 19 20  0  0  1  0  0  0  0  0999 V2000
    4.5666   -6.5281    2.4981 O   0  0  0  0  0  0  0  0  0  0  0  0
    4.8181   -5.6785    1.6512 C   0  0  0  0  0  0  0  0  0  0  0  0
    3.7757   -5.1934    0.9499 N   0  0  0  0  0  0  0  0  0  0  0  0
    3.8237   -4.2271    0.0069 C   0  0  0  0  0  0  0  0  0  0  0  0
    2.7640   -3.8450   -0.4900 O   0  0  0  0  0  0  0  0  0  0  0  0
    5.1671   -3.6974   -0.3230 C   0  0  0  0  0  0  0  0  0  0  0  0
    5.4181   -2.7285   -1.2415 C   0  0  0  0  0  0  0  0  0  0  0  0
    4.5326   -2.0451   -2.1807 C   0  0  0  0  0  0  0  0  0  0  0  0
    4.6293   -0.7267   -2.3654 N   0  0  0  0  0  0  0  0  0  0  0  0
    3.7936   -0.2582   -3.3766 C   0  0  0  0  0  0  0  0  0  0  0  0
    3.0202   -1.2359   -3.9354 C   0  0  0  0  0  0  0  0  0  0  0  0
    3.3717   -2.8028   -3.2735 S   0  0  0  0  0  0  0  0  0  0  0  0
    6.2960   -4.2468    0.4624 C   0  0  0  0  0  0  0  0  0  0  0  0
    7.4411   -3.8382    0.2524 O   0  0  0  0  0  0  0  0  0  0  0  0
    6.0625   -5.2021    1.3969 N   0  0  0  0  0  0  0  0  0  0  0  0
    2.8728   -5.5755    1.1881 H   0  0  0  0  0  0  0  0  0  0  0  0
    6.4415   -2.4054   -1.3624 H   0  0  0  0  0  0  0  0  0  0  0  0
    3.7907    0.8033   -3.6037 H   0  0  0  0  0  0  0  0  0  0  0  0
    2.2621   -1.1204   -4.6966 H   0  0  0  0  0  0  0  0  0  0  0  0
  1  2  2  0
  2 15  1  0
  2  3  1  0
  3  4  1  0
  3 16  1  0
  4  5  2  0
  4  6  1  0
  6  7  2  3
  6 13  1  0
  7  8  1  0
  7 17  1  0
  8 12  1  0
  8  9  2  0
  9 10  1  0
 10 11  2  0
 10 18  1  0
 11 12  1  0
 11 19  1  0
 13 14  2  0
 13 15  1  0
M  CHG  1  15  -1
M  END
>  <i_m_ct_stereo_status>  (198) 
1

>  <s_m_source_file>  (198) 
/var/tmp/pbs.5076255.sched01/tmpkd0wjm76/823hn9mkkz.sdf

>  <i_m_source_file_index>  (198) 
4

>  <i_lp_mmshare_version>  (198) 
48012

>  <i_f3d_flags>  (198) 
0

>  <s_epik_input>  (198) 
Tz1DMVtOSF1DKD1PKUMoQyg9TylbTkhdMSk9W0NIXWMybltjSF1bY0hdczI=

>  <s_epik_cmdline>  (198) 
J2VwaWtfcHl0aG9uJywgJy1waHQnLCAnMi4wJywgJy1waCcsICc3LjAnLCAnLXRuJywgJzgnLCAnLW1hJywgJzIwMCcsICctaW1hZScsICc8aW5maWxlLm1hZT4nLCAnLW9tYWUnLCAnPG91dGZpbGUubWFlPic=

>  <r_epik_Ionization_Penalty>  (198) 
0.0165118

>  <r_epik_Ionization_Penalty_Charging>  (198) 
0.016511

>  <r_epik_Ionization_Penalty_Neutral>  (198) 
7.59251e-07

>  <r_epik_State_Penalty>  (198) 
0.417234

>  <r_epik_Charging_Adjusted_Penalty>  (198) 
0.433745

>  <i_epik_Tot_Q>  (198) 
-1

>  <i_epik_Tot_abs_Q>  (198) 
1

>  <s_lp_Force_Field>  (198) 
OPLS3e

>  <r_lp_Energy>  (198) 
30.8476

>  <b_lp_Chiralities_Consistent>  (198) 
1

>  <s_lp_Variant>  (198) 
60:0-1

>  <s_i_glide_gridfile>  (198) 
pfpi4k_grid

>  <i_i_glide_lignum>  (198) 
4

>  <i_i_glide_rotatable_bonds>  (198) 
1

>  <r_i_docking_score>  (198) 
-3.70456

>  <r_i_glide_ligand_efficiency>  (198) 
-0.246971

>  <r_i_glide_ligand_efficiency_sa>  (198) 
-0.609082

>  <r_i_glide_ligand_efficiency_ln>  (198) 
-0.999059

>  <r_i_glide_gscore>  (198) 
-3.70456

>  <r_i_glide_lipo>  (198) 
-0.467777

>  <r_i_glide_hbond>  (198) 
0

>  <r_i_glide_metal>  (198) 
-0

>  <r_i_glide_rewards>  (198) 
-2.08835

>  <r_i_glide_evdw>  (198) 
-23.2515

>  <r_i_glide_ecoul>  (198) 
0.159747

>  <r_i_glide_erotb>  (198) 
0

>  <r_i_glide_esite>  (198) 
-0.00982573

>  <r_i_glide_emodel>  (198) 
-27.9351

>  <r_i_glide_energy>  (198) 
-23.0917

>  <r_i_glide_einternal>  (198) 
3.62585

>  <r_i_glide_intrahb_reward>  (198) 
-0

>  <i_i_glide_confnum>  (198) 
1

>  <i_i_glide_posenum>  (198) 
2

>  <r_i_glide_eff_state_penalty>  (198) 
0

>  <ligand_id>  (198) 
60

>  <original_smiles>  (198) 
O=C1NC(=O)C(=Cc2nccs2)C(=O)N1

>  <smiles>  (198) 
[H]C(=C1C(=O)[N-]C(=O)N([H])C1=O)c1nc([H])c([H])s1

$$$$
60:1:0
     RDKit          3D

 20 21  0  0  1  0  0  0  0  0999 V2000
   -0.7977    0.9477    2.1013 O   0  0  0  0  0  0  0  0  0  0  0  0
   -0.9499    1.5878    3.1255 C   0  0  0  0  0  0  0  0  0  0  0  0
   -0.8355    2.9309    3.1594 N   0  0  0  0  0  0  0  0  0  0  0  0
   -1.0270    3.7194    4.2321 C   0  0  0  0  0  0  0  0  0  0  0  0
   -0.9303    4.9496    4.0924 O   0  0  0  0  0  0  0  0  0  0  0  0
   -1.3515    3.0518    5.5160 C   0  0  0  0  0  0  0  0  0  0  0  0
   -1.5174    3.8502    6.6147 C   0  0  0  0  0  0  0  0  0  0  0  0
   -1.7868    3.5844    8.0328 C   0  0  0  0  0  0  0  0  0  0  0  0
   -2.4026    4.5059    8.7946 N   0  0  0  0  0  0  0  0  0  0  0  0
   -2.5818    4.1110   10.1353 C   0  0  0  0  0  0  0  0  0  0  0  0
   -2.1695    2.8270   10.3612 C   0  0  0  0  0  0  0  0  0  0  0  0
   -1.3480    2.1533    8.9759 S   0  0  0  0  0  0  0  0  0  0  0  0
   -1.5226    1.5746    5.4696 C   0  0  0  0  0  0  0  0  0  0  0  0
   -1.9027    0.8423    6.3811 O   0  0  0  0  0  0  0  0  0  0  0  0
   -1.2597    0.9949    4.2863 N   0  0  0  0  0  0  0  0  0  0  0  0
   -0.5798    3.3796    2.2792 H   0  0  0  0  0  0  0  0  0  0  0  0
   -1.3803    4.9020    6.4450 H   0  0  0  0  0  0  0  0  0  0  0  0
   -2.9934    4.8084   10.8643 H   0  0  0  0  0  0  0  0  0  0  0  0
   -2.2442    2.2684   11.2829 H   0  0  0  0  0  0  0  0  0  0  0  0
   -1.3612   -0.0085    4.2636 H   0  0  0  0  0  0  0  0  0  0  0  0
  1  2  2  0
  2 15  1  0
  2  3  1  0
  3  4  1  0
  3 16  1  0
  4  5  2  0
  4  6  1  0
  6  7  2  3
  6 13  1  0
  7  8  1  0
  7 17  1  0
  8 12  1  0
  8  9  2  0
  9 10  1  0
 10 11  2  0
 10 18  1  0
 11 12  1  0
 11 19  1  0
 13 14  2  0
 13 15  1  0
 15 20  1  0
M  END
>  <i_m_ct_stereo_status>  (199) 
1

>  <s_m_source_file>  (199) 
/var/tmp/pbs.5076255.sched01/tmpkd0wjm76/823hn9mkkz.sdf

>  <i_m_source_file_index>  (199) 
5

>  <i_lp_mmshare_version>  (199) 
48012

>  <i_f3d_flags>  (199) 
0

>  <s_epik_input>  (199) 
Tz1DMVtOSF1DKD1PKUMoQyg9TylbTkhdMSk9W0NIXWMybltjSF1bY0hdczI=

>  <s_epik_cmdline>  (199) 
J2VwaWtfcHl0aG9uJywgJy1waHQnLCAnMi4wJywgJy1waCcsICc3LjAnLCAnLXRuJywgJzgnLCAnLW1hJywgJzIwMCcsICctaW1hZScsICc8aW5maWxlLm1hZT4nLCAnLW9tYWUnLCAnPG91dGZpbGUubWFlPic=

>  <r_epik_Ionization_Penalty>  (199) 
2.12951

>  <r_epik_Ionization_Penalty_Charging>  (199) 
0

>  <r_epik_Ionization_Penalty_Neutral>  (199) 
2.12951

>  <r_epik_State_Penalty>  (199) 
2.67198

>  <r_epik_Charging_Adjusted_Penalty>  (199) 
2.67198

>  <i_epik_Tot_Q>  (199) 
0

>  <i_epik_Tot_abs_Q>  (199) 
0

>  <s_lp_Force_Field>  (199) 
OPLS3e

>  <r_lp_Energy>  (199) 
19.0504

>  <b_lp_Chiralities_Consistent>  (199) 
1

>  <s_lp_Variant>  (199) 
60:0-2

>  <s_i_glide_gridfile>  (199) 
pfpi4k_grid

>  <i_i_glide_lignum>  (199) 
5

>  <i_i_glide_rotatable_bonds>  (199) 
1

>  <r_i_docking_score>  (199) 
-4.56111

>  <r_i_glide_ligand_efficiency>  (199) 
-0.304074

>  <r_i_glide_ligand_efficiency_sa>  (199) 
-0.749911

>  <r_i_glide_ligand_efficiency_ln>  (199) 
-1.23006

>  <r_i_glide_gscore>  (199) 
-4.56111

>  <r_i_glide_lipo>  (199) 
-0.0357808

>  <r_i_glide_hbond>  (199) 
-0.374086

>  <r_i_glide_metal>  (199) 
-0

>  <r_i_glide_rewards>  (199) 
-1.88721

>  <r_i_glide_evdw>  (199) 
-19.1772

>  <r_i_glide_ecoul>  (199) 
-7.23845

>  <r_i_glide_erotb>  (199) 
0

>  <r_i_glide_esite>  (199) 
-0.219409

>  <r_i_glide_emodel>  (199) 
-33.9164

>  <r_i_glide_energy>  (199) 
-26.4156

>  <r_i_glide_einternal>  (199) 
1.59283

>  <r_i_glide_intrahb_reward>  (199) 
-0

>  <i_i_glide_confnum>  (199) 
1

>  <i_i_glide_posenum>  (199) 
39

>  <r_i_glide_eff_state_penalty>  (199) 
0

>  <ligand_id>  (199) 
60

>  <original_smiles>  (199) 
O=C1NC(=O)C(=Cc2nccs2)C(=O)N1

>  <smiles>  (199) 
[H]C(=C1C(=O)N([H])C(=O)N([H])C1=O)c1nc([H])c([H])s1

$$$$
60:1:1
     RDKit          3D

 20 21  0  0  1  0  0  0  0  0999 V2000
   -0.8308    0.9435    2.2044 O   0  0  0  0  0  0  0  0  0  0  0  0
   -0.9883    1.5873    3.2366 C   0  0  0  0  0  0  0  0  0  0  0  0
   -0.8419    2.9218    3.2735 N   0  0  0  0  0  0  0  0  0  0  0  0
   -1.0130    3.7157    4.3429 C   0  0  0  0  0  0  0  0  0  0  0  0
   -0.8831    4.9329    4.2043 O   0  0  0  0  0  0  0  0  0  0  0  0
   -1.3740    3.0600    5.6207 C   0  0  0  0  0  0  0  0  0  0  0  0
   -1.5367    3.8736    6.7010 C   0  0  0  0  0  0  0  0  0  0  0  0
   -1.8926    3.6450    8.1031 C   0  0  0  0  0  0  0  0  0  0  0  0
   -2.0842    2.4788    8.7271 N   0  0  0  0  0  0  0  0  0  0  0  0
   -2.4007    2.6248   10.0825 C   0  0  0  0  0  0  0  0  0  0  0  0
   -2.4656    3.9284   10.4806 C   0  0  0  0  0  0  0  0  0  0  0  0
   -2.1318    5.0273    9.1751 S   0  0  0  0  0  0  0  0  0  0  0  0
   -1.5389    1.5820    5.5825 C   0  0  0  0  0  0  0  0  0  0  0  0
   -1.8570    0.8445    6.5164 O   0  0  0  0  0  0  0  0  0  0  0  0
   -1.3279    0.9907    4.3919 N   0  0  0  0  0  0  0  0  0  0  0  0
   -0.5823    3.3682    2.3972 H   0  0  0  0  0  0  0  0  0  0  0  0
   -1.3625    4.9284    6.5334 H   0  0  0  0  0  0  0  0  0  0  0  0
   -2.5662    1.7611   10.7046 H   0  0  0  0  0  0  0  0  0  0  0  0
   -2.6901    4.2952   11.4710 H   0  0  0  0  0  0  0  0  0  0  0  0
   -1.4425   -0.0091    4.3613 H   0  0  0  0  0  0  0  0  0  0  0  0
  1  2  2  0
  2 15  1  0
  2  3  1  0
  3  4  1  0
  3 16  1  0
  4  5  2  0
  4  6  1  0
  6  7  2  3
  6 13  1  0
  7  8  1  0
  7 17  1  0
  8 12  1  0
  8  9  2  0
  9 10  1  0
 10 11  2  0
 10 18  1  0
 11 12  1  0
 11 19  1  0
 13 14  2  0
 13 15  1  0
 15 20  1  0
M  END
>  <i_m_ct_stereo_status>  (200) 
1

>  <s_m_source_file>  (200) 
/var/tmp/pbs.5076255.sched01/tmpkd0wjm76/823hn9mkkz.sdf

>  <i_m_source_file_index>  (200) 
5

>  <i_lp_mmshare_version>  (200) 
48012

>  <i_f3d_flags>  (200) 
0

>  <s_epik_input>  (200) 
Tz1DMVtOSF1DKD1PKUMoQyg9TylbTkhdMSk9W0NIXWMybltjSF1bY0hdczI=

>  <s_epik_cmdline>  (200) 
J2VwaWtfcHl0aG9uJywgJy1waHQnLCAnMi4wJywgJy1waCcsICc3LjAnLCAnLXRuJywgJzgnLCAnLW1hJywgJzIwMCcsICctaW1hZScsICc8aW5maWxlLm1hZT4nLCAnLW9tYWUnLCAnPG91dGZpbGUubWFlPic=

>  <r_epik_Ionization_Penalty>  (200) 
2.12951

>  <r_epik_Ionization_Penalty_Charging>  (200) 
0

>  <r_epik_Ionization_Penalty_Neutral>  (200) 
2.12951

>  <r_epik_State_Penalty>  (200) 
2.67198

>  <r_epik_Charging_Adjusted_Penalty>  (200) 
2.67198

>  <i_epik_Tot_Q>  (200) 
0

>  <i_epik_Tot_abs_Q>  (200) 
0

>  <s_lp_Force_Field>  (200) 
OPLS3e

>  <r_lp_Energy>  (200) 
19.0504

>  <b_lp_Chiralities_Consistent>  (200) 
1

>  <s_lp_Variant>  (200) 
60:0-2

>  <s_i_glide_gridfile>  (200) 
pfpi4k_grid

>  <i_i_glide_lignum>  (200) 
5

>  <i_i_glide_rotatable_bonds>  (200) 
1

>  <r_i_docking_score>  (200) 
-4.4384

>  <r_i_glide_ligand_efficiency>  (200) 
-0.295893

>  <r_i_glide_ligand_efficiency_sa>  (200) 
-0.729736

>  <r_i_glide_ligand_efficiency_ln>  (200) 
-1.19696

>  <r_i_glide_gscore>  (200) 
-4.4384

>  <r_i_glide_lipo>  (200) 
-0.0334872

>  <r_i_glide_hbond>  (200) 
-0.379053

>  <r_i_glide_metal>  (200) 
-0

>  <r_i_glide_rewards>  (200) 
-1.88721

>  <r_i_glide_evdw>  (200) 
-19.9598

>  <r_i_glide_ecoul>  (200) 
-6.2445

>  <r_i_glide_erotb>  (200) 
0

>  <r_i_glide_esite>  (200) 
-0.203989

>  <r_i_glide_emodel>  (200) 
-34.4824

>  <r_i_glide_energy>  (200) 
-26.2043

>  <r_i_glide_einternal>  (200) 
0.0474877

>  <r_i_glide_intrahb_reward>  (200) 
-0

>  <i_i_glide_confnum>  (200) 
2

>  <i_i_glide_posenum>  (200) 
6

>  <r_i_glide_eff_state_penalty>  (200) 
0

>  <ligand_id>  (200) 
60

>  <original_smiles>  (200) 
O=C1NC(=O)C(=Cc2nccs2)C(=O)N1

>  <smiles>  (200) 
[H]C(=C1C(=O)N([H])C(=O)N([H])C1=O)c1nc([H])c([H])s1

$$$$
60:1:2
     RDKit          3D

 20 21  0  0  1  0  0  0  0  0999 V2000
   -0.0685    0.5557    2.0876 O   0  0  0  0  0  0  0  0  0  0  0  0
   -0.5414    1.1502    3.0525 C   0  0  0  0  0  0  0  0  0  0  0  0
   -1.1269    2.3619    2.9441 N   0  0  0  0  0  0  0  0  0  0  0  0
   -1.6907    3.0742    3.9409 C   0  0  0  0  0  0  0  0  0  0  0  0
   -2.1844    4.1815    3.6862 O   0  0  0  0  0  0  0  0  0  0  0  0
   -1.6491    2.4699    5.2920 C   0  0  0  0  0  0  0  0  0  0  0  0
   -2.2072    3.1668    6.3229 C   0  0  0  0  0  0  0  0  0  0  0  0
   -2.2806    2.9304    7.7724 C   0  0  0  0  0  0  0  0  0  0  0  0
   -3.3561    3.3213    8.4695 N   0  0  0  0  0  0  0  0  0  0  0  0
   -3.2643    3.0682    9.8429 C   0  0  0  0  0  0  0  0  0  0  0  0
   -2.0960    2.4416   10.1809 C   0  0  0  0  0  0  0  0  0  0  0  0
   -1.0427    2.2162    8.8090 S   0  0  0  0  0  0  0  0  0  0  0  0
   -1.0433    1.1251    5.4156 C   0  0  0  0  0  0  0  0  0  0  0  0
   -1.0252    0.4297    6.4324 O   0  0  0  0  0  0  0  0  0  0  0  0
   -0.5099    0.6160    4.2841 N   0  0  0  0  0  0  0  0  0  0  0  0
   -1.1157    2.7798    2.0269 H   0  0  0  0  0  0  0  0  0  0  0  0
   -2.6865    4.1114    6.0523 H   0  0  0  0  0  0  0  0  0  0  0  0
   -4.0892    3.3047   10.4982 H   0  0  0  0  0  0  0  0  0  0  0  0
   -1.8396    2.0641   11.1630 H   0  0  0  0  0  0  0  0  0  0  0  0
   -0.0760   -0.2897    4.3573 H   0  0  0  0  0  0  0  0  0  0  0  0
  1  2  2  0
  2 15  1  0
  2  3  1  0
  3  4  1  0
  3 16  1  0
  4  5  2  0
  4  6  1  0
  6  7  2  3
  6 13  1  0
  7  8  1  0
  7 17  1  0
  8 12  1  0
  8  9  2  0
  9 10  1  0
 10 11  2  0
 10 18  1  0
 11 12  1  0
 11 19  1  0
 13 14  2  0
 13 15  1  0
 15 20  1  0
M  END
>  <i_m_ct_stereo_status>  (201) 
1

>  <s_m_source_file>  (201) 
/var/tmp/pbs.5076255.sched01/tmpkd0wjm76/823hn9mkkz.sdf

>  <i_m_source_file_index>  (201) 
5

>  <i_lp_mmshare_version>  (201) 
48012

>  <i_f3d_flags>  (201) 
0

>  <s_epik_input>  (201) 
Tz1DMVtOSF1DKD1PKUMoQyg9TylbTkhdMSk9W0NIXWMybltjSF1bY0hdczI=

>  <s_epik_cmdline>  (201) 
J2VwaWtfcHl0aG9uJywgJy1waHQnLCAnMi4wJywgJy1waCcsICc3LjAnLCAnLXRuJywgJzgnLCAnLW1hJywgJzIwMCcsICctaW1hZScsICc8aW5maWxlLm1hZT4nLCAnLW9tYWUnLCAnPG91dGZpbGUubWFlPic=

>  <r_epik_Ionization_Penalty>  (201) 
2.12951

>  <r_epik_Ionization_Penalty_Charging>  (201) 
0

>  <r_epik_Ionization_Penalty_Neutral>  (201) 
2.12951

>  <r_epik_State_Penalty>  (201) 
2.67198

>  <r_epik_Charging_Adjusted_Penalty>  (201) 
2.67198

>  <i_epik_Tot_Q>  (201) 
0

>  <i_epik_Tot_abs_Q>  (201) 
0

>  <s_lp_Force_Field>  (201) 
OPLS3e

>  <r_lp_Energy>  (201) 
19.0504

>  <b_lp_Chiralities_Consistent>  (201) 
1

>  <s_lp_Variant>  (201) 
60:0-2

>  <s_i_glide_gridfile>  (201) 
pfpi4k_grid

>  <i_i_glide_lignum>  (201) 
5

>  <i_i_glide_rotatable_bonds>  (201) 
1

>  <r_i_docking_score>  (201) 
-4.34884

>  <r_i_glide_ligand_efficiency>  (201) 
-0.289923

>  <r_i_glide_ligand_efficiency_sa>  (201) 
-0.715011

>  <r_i_glide_ligand_efficiency_ln>  (201) 
-1.17281

>  <r_i_glide_gscore>  (201) 
-4.34884

>  <r_i_glide_lipo>  (201) 
-0.172752

>  <r_i_glide_hbond>  (201) 
-0.180441

>  <r_i_glide_metal>  (201) 
-0

>  <r_i_glide_rewards>  (201) 
-1.88721

>  <r_i_glide_evdw>  (201) 
-21.3144

>  <r_i_glide_ecoul>  (201) 
-5.72217

>  <r_i_glide_erotb>  (201) 
0

>  <r_i_glide_esite>  (201) 
-0.184395

>  <r_i_glide_emodel>  (201) 
-33.8102

>  <r_i_glide_energy>  (201) 
-27.0365

>  <r_i_glide_einternal>  (201) 
2.40572

>  <r_i_glide_intrahb_reward>  (201) 
-0

>  <i_i_glide_confnum>  (201) 
1

>  <i_i_glide_posenum>  (201) 
34

>  <r_i_glide_eff_state_penalty>  (201) 
0

>  <ligand_id>  (201) 
60

>  <original_smiles>  (201) 
O=C1NC(=O)C(=Cc2nccs2)C(=O)N1

>  <smiles>  (201) 
[H]C(=C1C(=O)N([H])C(=O)N([H])C1=O)c1nc([H])c([H])s1

$$$$
61:0:0
     RDKit          3D

 60 64  0  0  1  0  0  0  0  0999 V2000
    2.0756   -4.2993    3.4470 C   0  0  0  0  0  0  0  0  0  0  0  0
    3.3950   -3.7048    2.9077 C   0  0  1  0  0  0  0  0  0  0  0  0
    4.6029   -4.5192    3.4453 C   0  0  0  0  0  0  0  0  0  0  0  0
    4.6756   -5.9433    2.8580 C   0  0  0  0  0  0  0  0  0  0  0  0
    4.6585   -5.9425    1.3194 C   0  0  1  0  0  0  0  0  0  0  0  0
    4.6138   -7.3272    0.8128 N   0  0  0  0  0  0  0  0  0  0  0  0
    3.4585   -5.1330    0.7858 C   0  0  0  0  0  0  0  0  0  0  0  0
    3.3843   -3.6841    1.3453 C   0  0  2  0  0  0  0  0  0  0  0  0
    4.4701   -2.7910    0.6986 C   0  0  0  0  0  0  0  0  0  0  0  0
    4.1436   -1.2841    0.6862 C   0  0  0  0  0  0  0  0  0  0  0  0
    4.0658   -0.5642    2.0541 C   0  0  2  0  0  0  0  0  0  0  0  0
    4.3437   -1.4366    3.2962 C   0  0  1  0  0  0  0  0  0  0  0  0
    4.4228   -0.5343    4.5446 C   0  0  0  0  0  0  0  0  0  0  0  0
    3.1905    0.3733    4.7324 C   0  0  0  0  0  0  0  0  0  0  0  0
    2.8903    1.2280    3.4811 C   0  0  2  0  0  0  0  0  0  0  0  0
    1.6363    2.0792    3.6919 C   0  0  0  0  0  0  0  0  0  0  0  0
    1.6917    3.1918    4.5539 C   0  0  0  0  0  0  0  0  0  0  0  0
    0.5446    3.9825    4.7806 C   0  0  0  0  0  0  0  0  0  0  0  0
   -0.6671    3.6612    4.1431 C   0  0  0  0  0  0  0  0  0  0  0  0
   -1.7857    4.4106    4.3561 O   0  0  0  0  0  0  0  0  0  0  0  0
   -0.7275    2.5573    3.2752 C   0  0  0  0  0  0  0  0  0  0  0  0
    0.4169    1.7722    3.0354 C   0  0  0  0  0  0  0  0  0  0  0  0
    0.3236    0.6447    2.0286 C   0  0  0  0  0  0  0  0  0  0  0  0
    1.4589   -0.3738    2.1474 C   0  0  0  0  0  0  0  0  0  0  0  0
    2.8177    0.3498    2.2083 C   0  0  2  0  0  0  0  0  0  0  0  0
    3.3231   -2.4071    3.5115 O   0  0  0  0  0  0  0  0  0  0  0  0
    1.9102   -5.3354    3.1540 H   0  0  0  0  0  0  0  0  0  0  0  0
    1.2181   -3.7223    3.1003 H   0  0  0  0  0  0  0  0  0  0  0  0
    2.0571   -4.2716    4.5367 H   0  0  0  0  0  0  0  0  0  0  0  0
    5.5461   -4.0216    3.2216 H   0  0  0  0  0  0  0  0  0  0  0  0
    4.5527   -4.5794    4.5327 H   0  0  0  0  0  0  0  0  0  0  0  0
    5.5860   -6.4235    3.2162 H   0  0  0  0  0  0  0  0  0  0  0  0
    3.8471   -6.5427    3.2406 H   0  0  0  0  0  0  0  0  0  0  0  0
    5.5834   -5.5012    0.9501 H   0  0  0  0  0  0  0  0  0  0  0  0
    3.7732   -7.7803    1.1411 H   0  0  0  0  0  0  0  0  0  0  0  0
    5.4167   -7.8416    1.1469 H   0  0  0  0  0  0  0  0  0  0  0  0
    3.4901   -5.1044   -0.3040 H   0  0  0  0  0  0  0  0  0  0  0  0
    2.5380   -5.6673    1.0314 H   0  0  0  0  0  0  0  0  0  0  0  0
    2.4248   -3.2825    1.0179 H   0  0  0  0  0  0  0  0  0  0  0  0
    5.4501   -2.9713    1.1395 H   0  0  0  0  0  0  0  0  0  0  0  0
    4.5710   -3.0809   -0.3474 H   0  0  0  0  0  0  0  0  0  0  0  0
    4.9128   -0.7880    0.0940 H   0  0  0  0  0  0  0  0  0  0  0  0
    3.2347   -1.1232    0.1065 H   0  0  0  0  0  0  0  0  0  0  0  0
    4.9069    0.1283    2.0282 H   0  0  0  0  0  0  0  0  0  0  0  0
    5.3200   -1.9077    3.1982 H   0  0  0  0  0  0  0  0  0  0  0  0
    4.5637   -1.1505    5.4325 H   0  0  0  0  0  0  0  0  0  0  0  0
    5.3122    0.0961    4.4646 H   0  0  0  0  0  0  0  0  0  0  0  0
    2.3252   -0.2378    4.9873 H   0  0  0  0  0  0  0  0  0  0  0  0
    3.3575    1.0265    5.5897 H   0  0  0  0  0  0  0  0  0  0  0  0
    3.7221    1.9212    3.3550 H   0  0  0  0  0  0  0  0  0  0  0  0
    2.6177    3.4489    5.0464 H   0  0  0  0  0  0  0  0  0  0  0  0
    0.5991    4.8315    5.4417 H   0  0  0  0  0  0  0  0  0  0  0  0
   -2.5285    4.0397    3.9048 H   0  0  0  0  0  0  0  0  0  0  0  0
   -1.6474    2.3245    2.7598 H   0  0  0  0  0  0  0  0  0  0  0  0
   -0.6385    0.1430    2.1198 H   0  0  0  0  0  0  0  0  0  0  0  0
    0.3521    1.0917    1.0324 H   0  0  0  0  0  0  0  0  0  0  0  0
    1.3044   -0.9632    3.0499 H   0  0  0  0  0  0  0  0  0  0  0  0
    1.4129   -1.0746    1.3170 H   0  0  0  0  0  0  0  0  0  0  0  0
    2.8377    1.0322    1.3568 H   0  0  0  0  0  0  0  0  0  0  0  0
    4.6196   -7.3166   -0.1963 H   0  0  0  0  0  0  0  0  0  0  0  0
  2  1  1  1
  1 27  1  0
  1 28  1  0
  1 29  1  0
  2  8  1  0
  2 26  1  0
  2  3  1  0
  3  4  1  0
  3 30  1  0
  3 31  1  0
  4  5  1  0
  4 32  1  0
  4 33  1  0
  5  6  1  0
  5  7  1  0
  5 34  1  6
  6 35  1  0
  6 36  1  0
  6 60  1  0
  7  8  1  0
  7 37  1  0
  7 38  1  0
  8  9  1  0
  8 39  1  1
  9 10  1  0
  9 40  1  0
  9 41  1  0
 10 11  1  0
 10 42  1  0
 10 43  1  0
 11 25  1  0
 11 12  1  0
 11 44  1  6
 12 13  1  0
 12 26  1  0
 12 45  1  6
 13 14  1  0
 13 46  1  0
 13 47  1  0
 14 15  1  0
 14 48  1  0
 14 49  1  0
 15 25  1  0
 15 16  1  0
 15 50  1  6
 16 22  2  0
 16 17  1  0
 17 18  2  0
 17 51  1  0
 18 19  1  0
 18 52  1  0
 19 20  1  0
 19 21  2  0
 20 53  1  0
 21 22  1  0
 21 54  1  0
 22 23  1  0
 23 24  1  0
 23 55  1  0
 23 56  1  0
 24 25  1  0
 24 57  1  0
 24 58  1  0
 25 59  1  6
M  CHG  1   6   1
M  END
>  <i_m_ct_stereo_status>  (202) 
1

>  <s_m_source_file>  (202) 
/var/tmp/pbs.5076255.sched01/tmpkd0wjm76/823hn9mkkz.sdf

>  <i_m_source_file_index>  (202) 
6

>  <i_lp_mmshare_version>  (202) 
48012

>  <i_f3d_flags>  (202) 
0

>  <s_epik_input>  (202) 
W0NIMl0xW0NIMl1bQ0BASF0oW05IMl0pW0NIMl1bQ0BASF0oW0NAQF0xMltDSDNdKVtDSDJdW0NIMl1bQ0BASF0zW0NASF0oTzIpW0NIMl1bQ0gyXVtDQEBIXTRjNWMoW0NIMl1bQ0gyXVtDQEhdMzQpW2NIXWMoW09IXSlbY0hdW2NIXTU=

>  <s_epik_cmdline>  (202) 
J2VwaWtfcHl0aG9uJywgJy1waHQnLCAnMi4wJywgJy1waCcsICc3LjAnLCAnLXRuJywgJzgnLCAnLW1hJywgJzIwMCcsICctaW1hZScsICc8aW5maWxlLm1hZT4nLCAnLW9tYWUnLCAnPG91dGZpbGUubWFlPic=

>  <r_lp_tautomer_probability>  (202) 
1

>  <r_epik_Ionization_Penalty>  (202) 
0.000381142

>  <r_epik_Ionization_Penalty_Charging>  (202) 
0.000240248

>  <r_epik_Ionization_Penalty_Neutral>  (202) 
0.000140893

>  <r_epik_State_Penalty>  (202) 
-0

>  <r_epik_Charging_Adjusted_Penalty>  (202) 
0.000240248

>  <i_epik_Tot_Q>  (202) 
1

>  <i_epik_Tot_abs_Q>  (202) 
1

>  <s_lp_Force_Field>  (202) 
OPLS3e

>  <r_lp_Energy>  (202) 
55.4325

>  <b_lp_Chiralities_Consistent>  (202) 
1

>  <s_lp_Variant>  (202) 
61:0-1

>  <s_i_glide_gridfile>  (202) 
pfpi4k_grid

>  <i_i_glide_lignum>  (202) 
6

>  <i_i_glide_rotatable_bonds>  (202) 
1

>  <r_i_docking_score>  (202) 
-2.89976

>  <r_i_glide_ligand_efficiency>  (202) 
-0.111529

>  <r_i_glide_ligand_efficiency_sa>  (202) 
-0.330405

>  <r_i_glide_ligand_efficiency_ln>  (202) 
-0.681

>  <r_i_glide_gscore>  (202) 
-2.89976

>  <r_i_glide_lipo>  (202) 
-0.200556

>  <r_i_glide_hbond>  (202) 
-0.0998193

>  <r_i_glide_metal>  (202) 
-0

>  <r_i_glide_rewards>  (202) 
-0.978262

>  <r_i_glide_evdw>  (202) 
-22.9738

>  <r_i_glide_ecoul>  (202) 
-3.14957

>  <r_i_glide_erotb>  (202) 
0

>  <r_i_glide_esite>  (202) 
0

>  <r_i_glide_emodel>  (202) 
-31.265

>  <r_i_glide_energy>  (202) 
-26.1234

>  <r_i_glide_einternal>  (202) 
0.0075637

>  <r_i_glide_intrahb_reward>  (202) 
-0

>  <i_i_glide_confnum>  (202) 
2

>  <i_i_glide_posenum>  (202) 
37

>  <r_i_glide_eff_state_penalty>  (202) 
0

>  <ligand_id>  (202) 
61

>  <original_smiles>  (202) 
CC12CCC(N)CC1CCC1C(CCC3c4ccc(O)cc4CCC31)O2

>  <smiles>  (202) 
[H]Oc1c([H])c([H])c2c(c1[H])C([H])([H])C([H])([H])C1([H])C2([H])C([H])([H])C([H])([H])C2([H])OC3(C([H])([H])[H])C([H])([H])C([H])([H])C([H])([N+]([H])([H])[H])C([H])([H])C3([H])C([H])([H])C([H])([H])C21[H]

$$$$
61:0:1
     RDKit          3D

 60 64  0  0  1  0  0  0  0  0999 V2000
    3.8051    0.7194    4.3705 C   0  0  0  0  0  0  0  0  0  0  0  0
    2.6799    1.5616    5.0104 C   0  0  1  0  0  0  0  0  0  0  0  0
    2.5397    2.9120    4.2640 C   0  0  0  0  0  0  0  0  0  0  0  0
    1.9908    2.7470    2.8311 C   0  0  0  0  0  0  0  0  0  0  0  0
    0.6662    1.9583    2.7967 C   0  0  1  0  0  0  0  0  0  0  0  0
    0.2439    1.7292    1.4113 N   0  0  0  0  0  0  0  0  0  0  0  0
    0.8086    0.6202    3.5404 C   0  0  0  0  0  0  0  0  0  0  0  0
    1.3337    0.7690    4.9978 C   0  0  2  0  0  0  0  0  0  0  0  0
    0.2303    1.3424    5.9186 C   0  0  0  0  0  0  0  0  0  0  0  0
    0.3840    0.9807    7.4079 C   0  0  0  0  0  0  0  0  0  0  0  0
    1.6107    1.5572    8.1545 C   0  0  2  0  0  0  0  0  0  0  0  0
    2.5467    2.4620    7.3240 C   0  0  1  0  0  0  0  0  0  0  0  0
    3.5897    3.1079    8.2588 C   0  0  0  0  0  0  0  0  0  0  0  0
    4.3685    2.0908    9.1182 C   0  0  0  0  0  0  0  0  0  0  0  0
    3.4335    1.1615    9.9290 C   0  0  2  0  0  0  0  0  0  0  0  0
    4.2410    0.1399   10.7284 C   0  0  0  0  0  0  0  0  0  0  0  0
    4.9670    0.5670   11.8606 C   0  0  0  0  0  0  0  0  0  0  0  0
    5.7409   -0.3467   12.6039 C   0  0  0  0  0  0  0  0  0  0  0  0
    5.7989   -1.6989   12.2185 C   0  0  0  0  0  0  0  0  0  0  0  0
    6.5683   -2.5821   12.9151 O   0  0  0  0  0  0  0  0  0  0  0  0
    5.0587   -2.1391   11.1028 C   0  0  0  0  0  0  0  0  0  0  0  0
    4.2755   -1.2319   10.3596 C   0  0  0  0  0  0  0  0  0  0  0  0
    3.4541   -1.7615    9.1974 C   0  0  0  0  0  0  0  0  0  0  0  0
    2.9880   -0.6679    8.2317 C   0  0  0  0  0  0  0  0  0  0  0  0
    2.3701    0.5100    9.0169 C   0  0  2  0  0  0  0  0  0  0  0  0
    3.2398    1.7331    6.3173 O   0  0  0  0  0  0  0  0  0  0  0  0
    3.6325    0.4826    3.3206 H   0  0  0  0  0  0  0  0  0  0  0  0
    3.9348   -0.2247    4.8988 H   0  0  0  0  0  0  0  0  0  0  0  0
    4.7585    1.2467    4.4224 H   0  0  0  0  0  0  0  0  0  0  0  0
    1.8782    3.5957    4.7935 H   0  0  0  0  0  0  0  0  0  0  0  0
    3.5074    3.4162    4.2193 H   0  0  0  0  0  0  0  0  0  0  0  0
    1.8401    3.7365    2.3991 H   0  0  0  0  0  0  0  0  0  0  0  0
    2.7356    2.2553    2.2036 H   0  0  0  0  0  0  0  0  0  0  0  0
   -0.1133    2.5596    3.2637 H   0  0  0  0  0  0  0  0  0  0  0  0
    0.9232    1.1878    0.9079 H   0  0  0  0  0  0  0  0  0  0  0  0
    0.1629    2.6658    0.9783 H   0  0  0  0  0  0  0  0  0  0  0  0
   -0.1537    0.1041    3.5445 H   0  0  0  0  0  0  0  0  0  0  0  0
    1.4816   -0.0237    2.9713 H   0  0  0  0  0  0  0  0  0  0  0  0
    1.5313   -0.2445    5.3434 H   0  0  0  0  0  0  0  0  0  0  0  0
    0.1226    2.4189    5.7902 H   0  0  0  0  0  0  0  0  0  0  0  0
   -0.7275    0.9233    5.6074 H   0  0  0  0  0  0  0  0  0  0  0  0
   -0.5112    1.3301    7.9228 H   0  0  0  0  0  0  0  0  0  0  0  0
    0.3393   -0.1027    7.5160 H   0  0  0  0  0  0  0  0  0  0  0  0
    1.1703    2.2405    8.8853 H   0  0  0  0  0  0  0  0  0  0  0  0
    1.9739    3.2801    6.8950 H   0  0  0  0  0  0  0  0  0  0  0  0
    4.2879    3.7047    7.6702 H   0  0  0  0  0  0  0  0  0  0  0  0
    3.0784    3.8064    8.9255 H   0  0  0  0  0  0  0  0  0  0  0  0
    5.0228    1.5007    8.4750 H   0  0  0  0  0  0  0  0  0  0  0  0
    5.0301    2.6320    9.7957 H   0  0  0  0  0  0  0  0  0  0  0  0
    2.9076    1.7862   10.6534 H   0  0  0  0  0  0  0  0  0  0  0  0
    4.9323    1.6000   12.1665 H   0  0  0  0  0  0  0  0  0  0  0  0
    6.2893   -0.0053   13.4671 H   0  0  0  0  0  0  0  0  0  0  0  0
    7.0541   -2.1893   13.6195 H   0  0  0  0  0  0  0  0  0  0  0  0
    5.0917   -3.1804   10.8233 H   0  0  0  0  0  0  0  0  0  0  0  0
    4.0165   -2.5208    8.6524 H   0  0  0  0  0  0  0  0  0  0  0  0
    2.5764   -2.2584    9.6151 H   0  0  0  0  0  0  0  0  0  0  0  0
    3.8491   -0.3189    7.6626 H   0  0  0  0  0  0  0  0  0  0  0  0
    2.2963   -1.0898    7.5062 H   0  0  0  0  0  0  0  0  0  0  0  0
    1.6238    0.0706    9.6818 H   0  0  0  0  0  0  0  0  0  0  0  0
   -0.6435    1.2628    1.3461 H   0  0  0  0  0  0  0  0  0  0  0  0
  2  1  1  6
  1 27  1  0
  1 28  1  0
  1 29  1  0
  2  8  1  0
  2 26  1  0
  2  3  1  0
  3  4  1  0
  3 30  1  0
  3 31  1  0
  4  5  1  0
  4 32  1  0
  4 33  1  0
  5  6  1  0
  5  7  1  0
  5 34  1  1
  6 35  1  0
  6 36  1  0
  6 60  1  0
  7  8  1  0
  7 37  1  0
  7 38  1  0
  8  9  1  0
  8 39  1  1
  9 10  1  0
  9 40  1  0
  9 41  1  0
 10 11  1  0
 10 42  1  0
 10 43  1  0
 11 25  1  0
 11 12  1  0
 11 44  1  1
 12 13  1  0
 12 26  1  0
 12 45  1  6
 13 14  1  0
 13 46  1  0
 13 47  1  0
 14 15  1  0
 14 48  1  0
 14 49  1  0
 15 25  1  0
 15 16  1  0
 15 50  1  1
 16 22  2  0
 16 17  1  0
 17 18  2  0
 17 51  1  0
 18 19  1  0
 18 52  1  0
 19 20  1  0
 19 21  2  0
 20 53  1  0
 21 22  1  0
 21 54  1  0
 22 23  1  0
 23 24  1  0
 23 55  1  0
 23 56  1  0
 24 25  1  0
 24 57  1  0
 24 58  1  0
 25 59  1  1
M  CHG  1   6   1
M  END
>  <i_m_ct_stereo_status>  (203) 
1

>  <s_m_source_file>  (203) 
/var/tmp/pbs.5076255.sched01/tmpkd0wjm76/823hn9mkkz.sdf

>  <i_m_source_file_index>  (203) 
6

>  <i_lp_mmshare_version>  (203) 
48012

>  <i_f3d_flags>  (203) 
0

>  <s_epik_input>  (203) 
W0NIMl0xW0NIMl1bQ0BASF0oW05IMl0pW0NIMl1bQ0BASF0oW0NAQF0xMltDSDNdKVtDSDJdW0NIMl1bQ0BASF0zW0NASF0oTzIpW0NIMl1bQ0gyXVtDQEBIXTRjNWMoW0NIMl1bQ0gyXVtDQEhdMzQpW2NIXWMoW09IXSlbY0hdW2NIXTU=

>  <s_epik_cmdline>  (203) 
J2VwaWtfcHl0aG9uJywgJy1waHQnLCAnMi4wJywgJy1waCcsICc3LjAnLCAnLXRuJywgJzgnLCAnLW1hJywgJzIwMCcsICctaW1hZScsICc8aW5maWxlLm1hZT4nLCAnLW9tYWUnLCAnPG91dGZpbGUubWFlPic=

>  <r_lp_tautomer_probability>  (203) 
1

>  <r_epik_Ionization_Penalty>  (203) 
0.000381142

>  <r_epik_Ionization_Penalty_Charging>  (203) 
0.000240248

>  <r_epik_Ionization_Penalty_Neutral>  (203) 
0.000140893

>  <r_epik_State_Penalty>  (203) 
-0

>  <r_epik_Charging_Adjusted_Penalty>  (203) 
0.000240248

>  <i_epik_Tot_Q>  (203) 
1

>  <i_epik_Tot_abs_Q>  (203) 
1

>  <s_lp_Force_Field>  (203) 
OPLS3e

>  <r_lp_Energy>  (203) 
55.4325

>  <b_lp_Chiralities_Consistent>  (203) 
1

>  <s_lp_Variant>  (203) 
61:0-1

>  <s_i_glide_gridfile>  (203) 
pfpi4k_grid

>  <i_i_glide_lignum>  (203) 
6

>  <i_i_glide_rotatable_bonds>  (203) 
1

>  <r_i_docking_score>  (203) 
-2.72682

>  <r_i_glide_ligand_efficiency>  (203) 
-0.104878

>  <r_i_glide_ligand_efficiency_sa>  (203) 
-0.310699

>  <r_i_glide_ligand_efficiency_ln>  (203) 
-0.640384

>  <r_i_glide_gscore>  (203) 
-2.72682

>  <r_i_glide_lipo>  (203) 
-0.00254232

>  <r_i_glide_hbond>  (203) 
-0.207561

>  <r_i_glide_metal>  (203) 
-0

>  <r_i_glide_rewards>  (203) 
-0.978262

>  <r_i_glide_evdw>  (203) 
-11.6661

>  <r_i_glide_ecoul>  (203) 
-5.82056

>  <r_i_glide_erotb>  (203) 
0

>  <r_i_glide_esite>  (203) 
-0.0820606

>  <r_i_glide_emodel>  (203) 
-22.2656

>  <r_i_glide_energy>  (203) 
-17.4867

>  <r_i_glide_einternal>  (203) 
0.03413

>  <r_i_glide_intrahb_reward>  (203) 
-0

>  <i_i_glide_confnum>  (203) 
2

>  <i_i_glide_posenum>  (203) 
35

>  <r_i_glide_eff_state_penalty>  (203) 
0

>  <ligand_id>  (203) 
61

>  <original_smiles>  (203) 
CC12CCC(N)CC1CCC1C(CCC3c4ccc(O)cc4CCC31)O2

>  <smiles>  (203) 
[H]Oc1c([H])c([H])c2c(c1[H])C([H])([H])C([H])([H])C1([H])C2([H])C([H])([H])C([H])([H])C2([H])OC3(C([H])([H])[H])C([H])([H])C([H])([H])C([H])([N+]([H])([H])[H])C([H])([H])C3([H])C([H])([H])C([H])([H])C21[H]

$$$$
61:0:2
     RDKit          3D

 60 64  0  0  1  0  0  0  0  0999 V2000
    2.2286   -2.6800    6.5515 C   0  0  0  0  0  0  0  0  0  0  0  0
    3.5313   -2.1072    5.9559 C   0  0  1  0  0  0  0  0  0  0  0  0
    4.7073   -2.3237    6.9435 C   0  0  0  0  0  0  0  0  0  0  0  0
    5.0958   -3.8092    7.0971 C   0  0  0  0  0  0  0  0  0  0  0  0
    5.3926   -4.4789    5.7436 C   0  0  1  0  0  0  0  0  0  0  0  0
    5.6513   -5.9180    5.9318 N   0  0  0  0  0  0  0  0  0  0  0  0
    4.2215   -4.2597    4.7620 C   0  0  0  0  0  0  0  0  0  0  0  0
    3.8324   -2.7650    4.5730 C   0  0  2  0  0  0  0  0  0  0  0  0
    4.8898   -2.0305    3.7146 C   0  0  0  0  0  0  0  0  0  0  0  0
    4.3654   -0.7889    2.9704 C   0  0  0  0  0  0  0  0  0  0  0  0
    3.9034    0.4080    3.8363 C   0  0  2  0  0  0  0  0  0  0  0  0
    4.0486    0.2470    5.3620 C   0  0  1  0  0  0  0  0  0  0  0  0
    3.7501    1.5981    6.0420 C   0  0  0  0  0  0  0  0  0  0  0  0
    2.3930    2.2075    5.6377 C   0  0  0  0  0  0  0  0  0  0  0  0
    2.2353    2.3445    4.1068 C   0  0  2  0  0  0  0  0  0  0  0  0
    0.8553    2.8949    3.7608 C   0  0  0  0  0  0  0  0  0  0  0  0
    0.5808    4.2539    4.0197 C   0  0  0  0  0  0  0  0  0  0  0  0
   -0.6828    4.7894    3.7210 C   0  0  0  0  0  0  0  0  0  0  0  0
   -1.6934    3.9743    3.1822 C   0  0  0  0  0  0  0  0  0  0  0  0
   -2.9093    4.5087    2.8762 O   0  0  0  0  0  0  0  0  0  0  0  0
   -1.4244    2.6218    2.9052 C   0  0  0  0  0  0  0  0  0  0  0  0
   -0.1511    2.0835    3.1827 C   0  0  0  0  0  0  0  0  0  0  0  0
    0.1204    0.6438    2.7927 C   0  0  0  0  0  0  0  0  0  0  0  0
    1.3361    0.0514    3.5049 C   0  0  0  0  0  0  0  0  0  0  0  0
    2.5406    1.0073    3.3913 C   0  0  2  0  0  0  0  0  0  0  0  0
    3.1555   -0.7300    5.8817 O   0  0  0  0  0  0  0  0  0  0  0  0
    2.2714   -3.7500    6.7546 H   0  0  0  0  0  0  0  0  0  0  0  0
    1.3875   -2.5119    5.8788 H   0  0  0  0  0  0  0  0  0  0  0  0
    1.9861   -2.1868    7.4934 H   0  0  0  0  0  0  0  0  0  0  0  0
    5.5981   -1.7805    6.6264 H   0  0  0  0  0  0  0  0  0  0  0  0
    4.4475   -1.9166    7.9216 H   0  0  0  0  0  0  0  0  0  0  0  0
    5.9736   -3.8741    7.7401 H   0  0  0  0  0  0  0  0  0  0  0  0
    4.2982   -4.3474    7.6157 H   0  0  0  0  0  0  0  0  0  0  0  0
    6.2999   -4.0485    5.3218 H   0  0  0  0  0  0  0  0  0  0  0  0
    4.8325   -6.3519    6.3287 H   0  0  0  0  0  0  0  0  0  0  0  0
    6.4341   -6.0464    6.5546 H   0  0  0  0  0  0  0  0  0  0  0  0
    4.4699   -4.6979    3.7939 H   0  0  0  0  0  0  0  0  0  0  0  0
    3.3526   -4.8215    5.1172 H   0  0  0  0  0  0  0  0  0  0  0  0
    2.9118   -2.7690    3.9875 H   0  0  0  0  0  0  0  0  0  0  0  0
    5.7718   -1.7816    4.3021 H   0  0  0  0  0  0  0  0  0  0  0  0
    5.2432   -2.7145    2.9423 H   0  0  0  0  0  0  0  0  0  0  0  0
    5.1637   -0.4402    2.3142 H   0  0  0  0  0  0  0  0  0  0  0  0
    3.5827   -1.0958    2.2771 H   0  0  0  0  0  0  0  0  0  0  0  0
    4.6243    1.1911    3.6128 H   0  0  0  0  0  0  0  0  0  0  0  0
    5.0841    0.0083    5.5988 H   0  0  0  0  0  0  0  0  0  0  0  0
    3.7918    1.4752    7.1243 H   0  0  0  0  0  0  0  0  0  0  0  0
    4.5409    2.3071    5.7821 H   0  0  0  0  0  0  0  0  0  0  0  0
    1.5875    1.5957    6.0454 H   0  0  0  0  0  0  0  0  0  0  0  0
    2.2878    3.1864    6.1103 H   0  0  0  0  0  0  0  0  0  0  0  0
    2.9695    3.0756    3.7661 H   0  0  0  0  0  0  0  0  0  0  0  0
    1.3438    4.9015    4.4206 H   0  0  0  0  0  0  0  0  0  0  0  0
   -0.8504    5.8399    3.8822 H   0  0  0  0  0  0  0  0  0  0  0  0
   -3.4801    3.8903    2.4385 H   0  0  0  0  0  0  0  0  0  0  0  0
   -2.1772    2.0029    2.4423 H   0  0  0  0  0  0  0  0  0  0  0  0
   -0.7608    0.0394    3.0056 H   0  0  0  0  0  0  0  0  0  0  0  0
    0.2831    0.6099    1.7134 H   0  0  0  0  0  0  0  0  0  0  0  0
    1.0867   -0.1009    4.5543 H   0  0  0  0  0  0  0  0  0  0  0  0
    1.5547   -0.9353    3.0974 H   0  0  0  0  0  0  0  0  0  0  0  0
    2.6435    1.2460    2.3313 H   0  0  0  0  0  0  0  0  0  0  0  0
    5.8628   -6.3454    5.0440 H   0  0  0  0  0  0  0  0  0  0  0  0
  2  1  1  1
  1 27  1  0
  1 28  1  0
  1 29  1  0
  2  8  1  0
  2 26  1  0
  2  3  1  0
  3  4  1  0
  3 30  1  0
  3 31  1  0
  4  5  1  0
  4 32  1  0
  4 33  1  0
  5  6  1  0
  5  7  1  0
  5 34  1  6
  6 35  1  0
  6 36  1  0
  6 60  1  0
  7  8  1  0
  7 37  1  0
  7 38  1  0
  8  9  1  0
  8 39  1  6
  9 10  1  0
  9 40  1  0
  9 41  1  0
 10 11  1  0
 10 42  1  0
 10 43  1  0
 11 25  1  0
 11 12  1  0
 11 44  1  6
 12 13  1  0
 12 26  1  0
 12 45  1  6
 13 14  1  0
 13 46  1  0
 13 47  1  0
 14 15  1  0
 14 48  1  0
 14 49  1  0
 15 25  1  0
 15 16  1  0
 15 50  1  6
 16 22  2  0
 16 17  1  0
 17 18  2  0
 17 51  1  0
 18 19  1  0
 18 52  1  0
 19 20  1  0
 19 21  2  0
 20 53  1  0
 21 22  1  0
 21 54  1  0
 22 23  1  0
 23 24  1  0
 23 55  1  0
 23 56  1  0
 24 25  1  0
 24 57  1  0
 24 58  1  0
 25 59  1  6
M  CHG  1   6   1
M  END
>  <i_m_ct_stereo_status>  (204) 
1

>  <s_m_source_file>  (204) 
/var/tmp/pbs.5076255.sched01/tmpkd0wjm76/823hn9mkkz.sdf

>  <i_m_source_file_index>  (204) 
6

>  <i_lp_mmshare_version>  (204) 
48012

>  <i_f3d_flags>  (204) 
0

>  <s_epik_input>  (204) 
W0NIMl0xW0NIMl1bQ0BASF0oW05IMl0pW0NIMl1bQ0BASF0oW0NAQF0xMltDSDNdKVtDSDJdW0NIMl1bQ0BASF0zW0NASF0oTzIpW0NIMl1bQ0gyXVtDQEBIXTRjNWMoW0NIMl1bQ0gyXVtDQEhdMzQpW2NIXWMoW09IXSlbY0hdW2NIXTU=

>  <s_epik_cmdline>  (204) 
J2VwaWtfcHl0aG9uJywgJy1waHQnLCAnMi4wJywgJy1waCcsICc3LjAnLCAnLXRuJywgJzgnLCAnLW1hJywgJzIwMCcsICctaW1hZScsICc8aW5maWxlLm1hZT4nLCAnLW9tYWUnLCAnPG91dGZpbGUubWFlPic=

>  <r_lp_tautomer_probability>  (204) 
1

>  <r_epik_Ionization_Penalty>  (204) 
0.000381142

>  <r_epik_Ionization_Penalty_Charging>  (204) 
0.000240248

>  <r_epik_Ionization_Penalty_Neutral>  (204) 
0.000140893

>  <r_epik_State_Penalty>  (204) 
-0

>  <r_epik_Charging_Adjusted_Penalty>  (204) 
0.000240248

>  <i_epik_Tot_Q>  (204) 
1

>  <i_epik_Tot_abs_Q>  (204) 
1

>  <s_lp_Force_Field>  (204) 
OPLS3e

>  <r_lp_Energy>  (204) 
55.4325

>  <b_lp_Chiralities_Consistent>  (204) 
1

>  <s_lp_Variant>  (204) 
61:0-1

>  <s_i_glide_gridfile>  (204) 
pfpi4k_grid

>  <i_i_glide_lignum>  (204) 
6

>  <i_i_glide_rotatable_bonds>  (204) 
1

>  <r_i_docking_score>  (204) 
-2.52191

>  <r_i_glide_ligand_efficiency>  (204) 
-0.0969967

>  <r_i_glide_ligand_efficiency_sa>  (204) 
-0.287352

>  <r_i_glide_ligand_efficiency_ln>  (204) 
-0.592263

>  <r_i_glide_gscore>  (204) 
-2.52191

>  <r_i_glide_lipo>  (204) 
-0.10215

>  <r_i_glide_hbond>  (204) 
-0.127587

>  <r_i_glide_metal>  (204) 
-0

>  <r_i_glide_rewards>  (204) 
-0.978262

>  <r_i_glide_evdw>  (204) 
-17.3886

>  <r_i_glide_ecoul>  (204) 
-2.96321

>  <r_i_glide_erotb>  (204) 
0

>  <r_i_glide_esite>  (204) 
0

>  <r_i_glide_emodel>  (204) 
-24.7737

>  <r_i_glide_energy>  (204) 
-20.3519

>  <r_i_glide_einternal>  (204) 
0.0251743

>  <r_i_glide_intrahb_reward>  (204) 
-0

>  <i_i_glide_confnum>  (204) 
2

>  <i_i_glide_posenum>  (204) 
2

>  <r_i_glide_eff_state_penalty>  (204) 
0

>  <ligand_id>  (204) 
61

>  <original_smiles>  (204) 
CC12CCC(N)CC1CCC1C(CCC3c4ccc(O)cc4CCC31)O2

>  <smiles>  (204) 
[H]Oc1c([H])c([H])c2c(c1[H])C([H])([H])C([H])([H])C1([H])C2([H])C([H])([H])C([H])([H])C2([H])OC3(C([H])([H])[H])C([H])([H])C([H])([H])C([H])([N+]([H])([H])[H])C([H])([H])C3([H])C([H])([H])C([H])([H])C21[H]

$$$$
62:0:0
     RDKit          3D

 81 85  0  0  1  0  0  0  0  0999 V2000
   -1.6106    0.4643    5.4628 C   0  0  0  0  0  0  0  0  0  0  0  0
   -0.1101    0.4832    5.0849 C   0  0  0  0  0  0  0  0  0  0  0  0
    0.0742    1.4728    3.9156 C   0  0  0  0  0  0  0  0  0  0  0  0
    0.7406    0.9660    6.2863 C   0  0  0  0  0  0  0  0  0  0  0  0
    0.7961   -0.0553    7.4458 C   0  0  0  0  0  0  0  0  0  0  0  0
    1.3343   -1.4465    7.0096 C   0  0  1  0  0  0  0  0  0  0  0  0
    2.8655   -1.2631    6.7456 C   0  0  0  0  0  0  0  0  0  0  0  0
    3.6270   -1.3250    7.7348 O   0  0  0  0  0  0  0  0  0  0  0  0
    3.2646   -1.0040    5.5916 O   0  0  0  0  0  0  0  0  0  0  0  0
    1.1296   -2.4774    8.1546 C   0  0  0  0  0  0  0  0  0  0  0  0
    1.3797   -3.9499    7.7286 C   0  0  0  0  0  0  0  0  0  0  0  0
    0.4865   -4.4587    6.5412 C   0  0  1  0  0  0  0  0  0  0  0  0
   -1.0111   -4.3865    6.9834 C   0  0  0  0  0  0  0  0  0  0  0  0
    0.6997   -3.4376    5.3639 C   0  0  2  0  0  0  0  0  0  0  0  0
    2.0469   -3.6688    4.6634 C   0  0  0  0  0  0  0  0  0  0  0  0
    2.1972   -5.0899    4.1628 C   0  0  0  0  0  0  0  0  0  0  0  0
    2.1774   -6.1365    5.3242 C   0  0  2  0  0  0  0  0  0  0  0  0
    2.5590   -7.5880    4.7691 C   0  0  1  0  0  0  0  0  0  0  0  0
    3.8980   -7.4071    3.9846 C   0  0  0  0  0  0  0  0  0  0  0  0
    2.8708   -8.6560    5.8745 C   0  0  0  0  0  0  0  0  0  0  0  0
    3.1685  -10.0735    5.3358 C   0  0  1  0  0  0  0  0  0  0  0  0
    3.4100  -10.9771    6.4031 O   0  0  0  0  0  0  0  0  0  0  0  0
    2.0384  -10.5596    4.4204 C   0  0  0  0  0  0  0  0  0  0  0  0
    1.5215  -11.6691    4.5535 O   0  0  0  0  0  0  0  0  0  0  0  0
    1.6030   -9.5968    3.2915 C   0  0  0  0  0  0  0  0  0  0  0  0
    2.6812   -9.6331    2.1756 C   0  0  0  0  0  0  0  0  0  0  0  0
    0.2943  -10.1197    2.6411 C   0  0  0  0  0  0  0  0  0  0  0  0
    1.3896   -8.1365    3.8656 C   0  0  1  0  0  0  0  0  0  0  0  0
    0.0370   -7.9910    4.6253 C   0  0  0  0  0  0  0  0  0  0  0  0
   -0.2678   -6.5815    5.1754 C   0  0  0  0  0  0  0  0  0  0  0  0
    0.8186   -5.9858    6.1230 C   0  0  2  0  0  0  0  0  0  0  0  0
    0.8333   -6.8239    7.4421 C   0  0  0  0  0  0  0  0  0  0  0  0
    0.4769   -1.9438    5.7934 C   0  0  2  0  0  0  0  0  0  0  0  0
    0.3731   -0.9221    4.6306 C   0  0  0  0  0  0  0  0  0  0  0  0
   -1.9656    1.4656    5.7228 H   0  0  0  0  0  0  0  0  0  0  0  0
   -1.8121   -0.1773    6.3201 H   0  0  0  0  0  0  0  0  0  0  0  0
   -2.2174    0.0995    4.6307 H   0  0  0  0  0  0  0  0  0  0  0  0
    1.1212    1.5348    3.6164 H   0  0  0  0  0  0  0  0  0  0  0  0
   -0.2468    2.4792    4.1883 H   0  0  0  0  0  0  0  0  0  0  0  0
   -0.5003    1.1645    3.0414 H   0  0  0  0  0  0  0  0  0  0  0  0
    1.7539    1.1786    5.9471 H   0  0  0  0  0  0  0  0  0  0  0  0
    0.3605    1.9187    6.6550 H   0  0  0  0  0  0  0  0  0  0  0  0
    1.4192    0.3545    8.2412 H   0  0  0  0  0  0  0  0  0  0  0  0
   -0.1923   -0.1545    7.8903 H   0  0  0  0  0  0  0  0  0  0  0  0
    1.7753   -2.2440    9.0023 H   0  0  0  0  0  0  0  0  0  0  0  0
    0.1277   -2.3678    8.5682 H   0  0  0  0  0  0  0  0  0  0  0  0
    2.4332   -4.0620    7.4730 H   0  0  0  0  0  0  0  0  0  0  0  0
    1.2439   -4.5516    8.6261 H   0  0  0  0  0  0  0  0  0  0  0  0
   -1.6569   -4.4910    6.1209 H   0  0  0  0  0  0  0  0  0  0  0  0
   -1.2984   -3.4514    7.4483 H   0  0  0  0  0  0  0  0  0  0  0  0
   -1.3121   -5.1599    7.6855 H   0  0  0  0  0  0  0  0  0  0  0  0
   -0.0624   -3.6416    4.6129 H   0  0  0  0  0  0  0  0  0  0  0  0
    2.1565   -2.9807    3.8234 H   0  0  0  0  0  0  0  0  0  0  0  0
    2.8905   -3.4941    5.3292 H   0  0  0  0  0  0  0  0  0  0  0  0
    1.4304   -5.2878    3.4140 H   0  0  0  0  0  0  0  0  0  0  0  0
    3.1399   -5.0869    3.6188 H   0  0  0  0  0  0  0  0  0  0  0  0
    2.9783   -5.8549    6.0104 H   0  0  0  0  0  0  0  0  0  0  0  0
    4.5239   -8.2920    3.9361 H   0  0  0  0  0  0  0  0  0  0  0  0
    4.5352   -6.6625    4.4669 H   0  0  0  0  0  0  0  0  0  0  0  0
    3.7295   -7.0886    2.9538 H   0  0  0  0  0  0  0  0  0  0  0  0
    3.6901   -8.3156    6.5105 H   0  0  0  0  0  0  0  0  0  0  0  0
    2.0236   -8.8079    6.5282 H   0  0  0  0  0  0  0  0  0  0  0  0
    4.0832  -10.0824    4.7491 H   0  0  0  0  0  0  0  0  0  0  0  0
    2.5808  -11.3172    6.7518 H   0  0  0  0  0  0  0  0  0  0  0  0
    2.6032   -8.7775    1.5026 H   0  0  0  0  0  0  0  0  0  0  0  0
    2.6055  -10.5321    1.5660 H   0  0  0  0  0  0  0  0  0  0  0  0
    3.6973   -9.6750    2.5562 H   0  0  0  0  0  0  0  0  0  0  0  0
   -0.1086   -9.3861    1.9417 H   0  0  0  0  0  0  0  0  0  0  0  0
   -0.4828  -10.3373    3.3780 H   0  0  0  0  0  0  0  0  0  0  0  0
    0.4514  -11.0483    2.0882 H   0  0  0  0  0  0  0  0  0  0  0  0
    1.3085   -7.4878    2.9927 H   0  0  0  0  0  0  0  0  0  0  0  0
   -0.7918   -8.2228    3.9600 H   0  0  0  0  0  0  0  0  0  0  0  0
   -0.0291   -8.7356    5.4175 H   0  0  0  0  0  0  0  0  0  0  0  0
   -0.4384   -5.9178    4.3293 H   0  0  0  0  0  0  0  0  0  0  0  0
   -1.2267   -6.6416    5.6766 H   0  0  0  0  0  0  0  0  0  0  0  0
    0.4097   -7.8177    7.3293 H   0  0  0  0  0  0  0  0  0  0  0  0
    0.2382   -6.4048    8.2481 H   0  0  0  0  0  0  0  0  0  0  0  0
    1.8428   -6.9140    7.8436 H   0  0  0  0  0  0  0  0  0  0  0  0
   -0.5377   -1.9456    6.1706 H   0  0  0  0  0  0  0  0  0  0  0  0
   -0.3055   -1.3097    3.8716 H   0  0  0  0  0  0  0  0  0  0  0  0
    1.3320   -0.8172    4.1302 H   0  0  0  0  0  0  0  0  0  0  0  0
  1  2  1  0
  1 35  1  0
  1 36  1  0
  1 37  1  0
  2 34  1  0
  2  3  1  0
  2  4  1  0
  3 38  1  0
  3 39  1  0
  3 40  1  0
  4  5  1  0
  4 41  1  0
  4 42  1  0
  5  6  1  0
  5 43  1  0
  5 44  1  0
  6 33  1  0
  6  7  1  6
  6 10  1  0
  7  8  2  0
  7  9  1  0
 10 11  1  0
 10 45  1  0
 10 46  1  0
 11 12  1  0
 11 47  1  0
 11 48  1  0
 12 31  1  0
 12 13  1  1
 12 14  1  0
 13 49  1  0
 13 50  1  0
 13 51  1  0
 14 15  1  0
 14 33  1  0
 14 52  1  6
 15 16  1  0
 15 53  1  0
 15 54  1  0
 16 17  1  0
 16 55  1  0
 16 56  1  0
 17 31  1  0
 17 18  1  0
 17 57  1  1
 18 28  1  0
 18 19  1  6
 18 20  1  0
 19 58  1  0
 19 59  1  0
 19 60  1  0
 20 21  1  0
 20 61  1  0
 20 62  1  0
 21 22  1  0
 21 23  1  0
 21 63  1  6
 22 64  1  0
 23 24  2  0
 23 25  1  0
 25 26  1  0
 25 27  1  0
 25 28  1  0
 26 65  1  0
 26 66  1  0
 26 67  1  0
 27 68  1  0
 27 69  1  0
 27 70  1  0
 28 29  1  0
 28 71  1  6
 29 30  1  0
 29 72  1  0
 29 73  1  0
 30 31  1  0
 30 74  1  0
 30 75  1  0
 31 32  1  1
 32 76  1  0
 32 77  1  0
 32 78  1  0
 33 34  1  0
 33 79  1  1
 34 80  1  0
 34 81  1  0
M  CHG  1   9  -1
M  END
>  <i_m_ct_stereo_status>  (205) 
1

>  <s_m_source_file>  (205) 
/var/tmp/pbs.5076255.sched01/tmpkd0wjm76/823hn9mkkz.sdf

>  <i_m_source_file_index>  (205) 
7

>  <i_lp_mmshare_version>  (205) 
48012

>  <i_f3d_flags>  (205) 
0

>  <s_epik_input>  (205) 
W0NIMl0xW0NIMl1DKFtDSDNdKShbQ0gzXSlbQ0gyXVtDQEhdKFtDQEBdMTJDKD1PKVtPSF0pW0NAQEhdM1tDQF0oW0NIM10pKFtDSDJdW0NIMl0yKVtDQF00KFtDSDNdKVtDQEhdKFtDSDJdW0NIMl0zKVtDQF01KFtDSDNdKVtDQEhdKFtDSDJdW0NIMl00KUMoW0NIM10pKFtDSDNdKUMoPU8pW0NAQEhdKFtDSDJdNSlbT0hd

>  <s_epik_cmdline>  (205) 
J2VwaWtfcHl0aG9uJywgJy1waHQnLCAnMi4wJywgJy1waCcsICc3LjAnLCAnLXRuJywgJzgnLCAnLW1hJywgJzIwMCcsICctaW1hZScsICc8aW5maWxlLm1hZT4nLCAnLW9tYWUnLCAnPG91dGZpbGUubWFlPic=

>  <r_epik_Ionization_Penalty>  (205) 
0.0107955

>  <r_epik_Ionization_Penalty_Charging>  (205) 
0.0107955

>  <r_epik_Ionization_Penalty_Neutral>  (205) 
4.58526e-08

>  <r_epik_State_Penalty>  (205) 
0.00827468

>  <r_epik_Charging_Adjusted_Penalty>  (205) 
0.0190701

>  <i_epik_Tot_Q>  (205) 
-1

>  <i_epik_Tot_abs_Q>  (205) 
1

>  <s_lp_Force_Field>  (205) 
OPLS3e

>  <r_lp_Energy>  (205) 
101.292

>  <b_lp_Chiralities_Consistent>  (205) 
1

>  <s_lp_Variant>  (205) 
62:0-1

>  <s_i_glide_gridfile>  (205) 
pfpi4k_grid

>  <i_i_glide_lignum>  (205) 
7

>  <i_i_glide_rotatable_bonds>  (205) 
2

>  <r_i_docking_score>  (205) 
-1.76397

>  <r_i_glide_ligand_efficiency>  (205) 
-0.0518814

>  <r_i_glide_ligand_efficiency_sa>  (205) 
-0.168076

>  <r_i_glide_ligand_efficiency_ln>  (205) 
-0.38971

>  <r_i_glide_gscore>  (205) 
-1.76397

>  <r_i_glide_lipo>  (205) 
-0.113632

>  <r_i_glide_hbond>  (205) 
0

>  <r_i_glide_metal>  (205) 
-0

>  <r_i_glide_rewards>  (205) 
-0.193011

>  <r_i_glide_evdw>  (205) 
-25.5491

>  <r_i_glide_ecoul>  (205) 
-1.03395

>  <r_i_glide_erotb>  (205) 
0

>  <r_i_glide_esite>  (205) 
-0.0247795

>  <r_i_glide_emodel>  (205) 
-27.9924

>  <r_i_glide_energy>  (205) 
-26.583

>  <r_i_glide_einternal>  (205) 
1.89443

>  <r_i_glide_intrahb_reward>  (205) 
-0

>  <i_i_glide_confnum>  (205) 
1

>  <i_i_glide_posenum>  (205) 
21

>  <r_i_glide_eff_state_penalty>  (205) 
0

>  <ligand_id>  (205) 
62

>  <original_smiles>  (205) 
CC1(C)CCC2(C(=O)O)CCC3(C)C(CCC4C5(C)CC(O)C(=O)C(C)(C)C5CCC43C)C2C1

>  <smiles>  (205) 
[H]OC1([H])C(=O)C(C([H])([H])[H])(C([H])([H])[H])C2([H])C([H])([H])C([H])([H])C3(C([H])([H])[H])C([H])(C([H])([H])C([H])([H])C4([H])C5([H])C([H])([H])C(C([H])([H])[H])(C([H])([H])[H])C([H])([H])C([H])([H])C5(C(=O)[O-])C([H])([H])C([H])([H])C43C([H])([H])[H])C2(C([H])([H])[H])C1([H])[H]

$$$$
62:0:1
     RDKit          3D

 81 85  0  0  1  0  0  0  0  0999 V2000
    2.4330    0.2835    4.0802 C   0  0  0  0  0  0  0  0  0  0  0  0
    1.9586   -0.3307    2.7460 C   0  0  0  0  0  0  0  0  0  0  0  0
    0.5180    0.1505    2.4911 C   0  0  0  0  0  0  0  0  0  0  0  0
    2.8509    0.1562    1.5811 C   0  0  0  0  0  0  0  0  0  0  0  0
    4.2749   -0.4290    1.6221 C   0  0  0  0  0  0  0  0  0  0  0  0
    4.2898   -1.9833    1.6093 C   0  0  1  0  0  0  0  0  0  0  0  0
    3.8812   -2.4116    0.1665 C   0  0  0  0  0  0  0  0  0  0  0  0
    2.7317   -2.8788   -0.0385 O   0  0  0  0  0  0  0  0  0  0  0  0
    4.7212   -2.2246   -0.7323 O   0  0  0  0  0  0  0  0  0  0  0  0
    5.7229   -2.5022    1.8918 C   0  0  0  0  0  0  0  0  0  0  0  0
    5.7993   -4.0244    2.1910 C   0  0  0  0  0  0  0  0  0  0  0  0
    4.9372   -4.5148    3.4157 C   0  0  1  0  0  0  0  0  0  0  0  0
    5.4099   -3.7983    4.7264 C   0  0  0  0  0  0  0  0  0  0  0  0
    3.4765   -4.0295    3.1260 C   0  0  2  0  0  0  0  0  0  0  0  0
    2.8062   -4.9292    2.0801 C   0  0  0  0  0  0  0  0  0  0  0  0
    2.7957   -6.3866    2.4726 C   0  0  0  0  0  0  0  0  0  0  0  0
    4.2434   -6.9612    2.5778 C   0  0  2  0  0  0  0  0  0  0  0  0
    4.1929   -8.5436    2.7578 C   0  0  1  0  0  0  0  0  0  0  0  0
    3.2906   -9.0735    1.6017 C   0  0  0  0  0  0  0  0  0  0  0  0
    5.5651   -9.2737    2.5764 C   0  0  0  0  0  0  0  0  0  0  0  0
    5.5136  -10.7954    2.8263 C   0  0  1  0  0  0  0  0  0  0  0  0
    6.8038  -11.3584    2.6823 O   0  0  0  0  0  0  0  0  0  0  0  0
    4.9222  -11.1036    4.2065 C   0  0  0  0  0  0  0  0  0  0  0  0
    5.4730  -11.8756    4.9829 O   0  0  0  0  0  0  0  0  0  0  0  0
    3.5614  -10.4340    4.5325 C   0  0  0  0  0  0  0  0  0  0  0  0
    2.4461  -11.1766    3.7494 C   0  0  0  0  0  0  0  0  0  0  0  0
    3.2282  -10.6455    6.0303 C   0  0  0  0  0  0  0  0  0  0  0  0
    3.6220   -8.8924    4.1842 C   0  0  1  0  0  0  0  0  0  0  0  0
    4.3907   -8.0688    5.2592 C   0  0  0  0  0  0  0  0  0  0  0  0
    4.4626   -6.5460    5.0218 C   0  0  0  0  0  0  0  0  0  0  0  0
    5.0512   -6.1132    3.6463 C   0  0  2  0  0  0  0  0  0  0  0  0
    6.5707   -6.4701    3.6316 C   0  0  0  0  0  0  0  0  0  0  0  0
    3.3913   -2.4934    2.7861 C   0  0  2  0  0  0  0  0  0  0  0  0
    1.9685   -1.8853    2.7954 C   0  0  0  0  0  0  0  0  0  0  0  0
    2.3663    1.3752    4.0642 H   0  0  0  0  0  0  0  0  0  0  0  0
    3.4709    0.0403    4.3094 H   0  0  0  0  0  0  0  0  0  0  0  0
    1.8292   -0.0727    4.9192 H   0  0  0  0  0  0  0  0  0  0  0  0
    0.1455   -0.2342    1.5456 H   0  0  0  0  0  0  0  0  0  0  0  0
    0.4525    1.2398    2.4373 H   0  0  0  0  0  0  0  0  0  0  0  0
   -0.1608   -0.1857    3.2781 H   0  0  0  0  0  0  0  0  0  0  0  0
    2.3816   -0.1112    0.6368 H   0  0  0  0  0  0  0  0  0  0  0  0
    2.9002    1.2447    1.5789 H   0  0  0  0  0  0  0  0  0  0  0  0
    4.8348   -0.0390    0.7719 H   0  0  0  0  0  0  0  0  0  0  0  0
    4.8013   -0.0542    2.4961 H   0  0  0  0  0  0  0  0  0  0  0  0
    6.3906   -2.2681    1.0643 H   0  0  0  0  0  0  0  0  0  0  0  0
    6.1484   -1.9391    2.7171 H   0  0  0  0  0  0  0  0  0  0  0  0
    5.5164   -4.5642    1.2890 H   0  0  0  0  0  0  0  0  0  0  0  0
    6.8538   -4.2624    2.3139 H   0  0  0  0  0  0  0  0  0  0  0  0
    4.6797   -3.8996    5.5282 H   0  0  0  0  0  0  0  0  0  0  0  0
    5.5692   -2.7300    4.6157 H   0  0  0  0  0  0  0  0  0  0  0  0
    6.3483   -4.1838    5.1171 H   0  0  0  0  0  0  0  0  0  0  0  0
    2.9049   -4.1595    4.0464 H   0  0  0  0  0  0  0  0  0  0  0  0
    1.7887   -4.5949    1.9001 H   0  0  0  0  0  0  0  0  0  0  0  0
    3.3339   -4.9050    1.1296 H   0  0  0  0  0  0  0  0  0  0  0  0
    2.2180   -6.5196    3.3880 H   0  0  0  0  0  0  0  0  0  0  0  0
    2.2134   -6.8636    1.6875 H   0  0  0  0  0  0  0  0  0  0  0  0
    4.7230   -6.7820    1.6136 H   0  0  0  0  0  0  0  0  0  0  0  0
    3.4898  -10.0941    1.2940 H   0  0  0  0  0  0  0  0  0  0  0  0
    3.4499   -8.4970    0.6895 H   0  0  0  0  0  0  0  0  0  0  0  0
    2.2289   -9.0321    1.8450 H   0  0  0  0  0  0  0  0  0  0  0  0
    5.9830   -9.0695    1.5883 H   0  0  0  0  0  0  0  0  0  0  0  0
    6.2956   -8.9252    3.2898 H   0  0  0  0  0  0  0  0  0  0  0  0
    4.8908  -11.3001    2.1031 H   0  0  0  0  0  0  0  0  0  0  0  0
    6.6969  -12.3015    2.6977 H   0  0  0  0  0  0  0  0  0  0  0  0
    1.5348  -10.5806    3.6778 H   0  0  0  0  0  0  0  0  0  0  0  0
    2.1705  -12.1183    4.2274 H   0  0  0  0  0  0  0  0  0  0  0  0
    2.7342  -11.4564    2.7401 H   0  0  0  0  0  0  0  0  0  0  0  0
    2.3354  -10.0885    6.3235 H   0  0  0  0  0  0  0  0  0  0  0  0
    4.0422  -10.3476    6.6905 H   0  0  0  0  0  0  0  0  0  0  0  0
    3.0281  -11.6948    6.2551 H   0  0  0  0  0  0  0  0  0  0  0  0
    2.5899   -8.5425    4.2246 H   0  0  0  0  0  0  0  0  0  0  0  0
    3.9048   -8.1783    6.2264 H   0  0  0  0  0  0  0  0  0  0  0  0
    5.3913   -8.4743    5.3969 H   0  0  0  0  0  0  0  0  0  0  0  0
    3.4637   -6.1335    5.1496 H   0  0  0  0  0  0  0  0  0  0  0  0
    5.0508   -6.1249    5.8368 H   0  0  0  0  0  0  0  0  0  0  0  0
    6.8387   -7.2413    4.3484 H   0  0  0  0  0  0  0  0  0  0  0  0
    7.2270   -5.6511    3.9141 H   0  0  0  0  0  0  0  0  0  0  0  0
    6.9021   -6.7857    2.6421 H   0  0  0  0  0  0  0  0  0  0  0  0
    3.8234   -2.0278    3.6616 H   0  0  0  0  0  0  0  0  0  0  0  0
    1.4330   -2.2192    3.6860 H   0  0  0  0  0  0  0  0  0  0  0  0
    1.4069   -2.2580    1.9468 H   0  0  0  0  0  0  0  0  0  0  0  0
  1  2  1  0
  1 35  1  0
  1 36  1  0
  1 37  1  0
  2 34  1  0
  2  3  1  0
  2  4  1  0
  3 38  1  0
  3 39  1  0
  3 40  1  0
  4  5  1  0
  4 41  1  0
  4 42  1  0
  5  6  1  0
  5 43  1  0
  5 44  1  0
  6 33  1  0
  6  7  1  6
  6 10  1  0
  7  8  2  0
  7  9  1  0
 10 11  1  0
 10 45  1  0
 10 46  1  0
 11 12  1  0
 11 47  1  0
 11 48  1  0
 12 31  1  0
 12 13  1  1
 12 14  1  0
 13 49  1  0
 13 50  1  0
 13 51  1  0
 14 15  1  0
 14 33  1  0
 14 52  1  1
 15 16  1  0
 15 53  1  0
 15 54  1  0
 16 17  1  0
 16 55  1  0
 16 56  1  0
 17 31  1  0
 17 18  1  0
 17 57  1  6
 18 28  1  0
 18 19  1  6
 18 20  1  0
 19 58  1  0
 19 59  1  0
 19 60  1  0
 20 21  1  0
 20 61  1  0
 20 62  1  0
 21 22  1  0
 21 23  1  0
 21 63  1  6
 22 64  1  0
 23 24  2  0
 23 25  1  0
 25 26  1  0
 25 27  1  0
 25 28  1  0
 26 65  1  0
 26 66  1  0
 26 67  1  0
 27 68  1  0
 27 69  1  0
 27 70  1  0
 28 29  1  0
 28 71  1  6
 29 30  1  0
 29 72  1  0
 29 73  1  0
 30 31  1  0
 30 74  1  0
 30 75  1  0
 31 32  1  1
 32 76  1  0
 32 77  1  0
 32 78  1  0
 33 34  1  0
 33 79  1  1
 34 80  1  0
 34 81  1  0
M  CHG  1   9  -1
M  END
>  <i_m_ct_stereo_status>  (206) 
1

>  <s_m_source_file>  (206) 
/var/tmp/pbs.5076255.sched01/tmpkd0wjm76/823hn9mkkz.sdf

>  <i_m_source_file_index>  (206) 
7

>  <i_lp_mmshare_version>  (206) 
48012

>  <i_f3d_flags>  (206) 
0

>  <s_epik_input>  (206) 
W0NIMl0xW0NIMl1DKFtDSDNdKShbQ0gzXSlbQ0gyXVtDQEhdKFtDQEBdMTJDKD1PKVtPSF0pW0NAQEhdM1tDQF0oW0NIM10pKFtDSDJdW0NIMl0yKVtDQF00KFtDSDNdKVtDQEhdKFtDSDJdW0NIMl0zKVtDQF01KFtDSDNdKVtDQEhdKFtDSDJdW0NIMl00KUMoW0NIM10pKFtDSDNdKUMoPU8pW0NAQEhdKFtDSDJdNSlbT0hd

>  <s_epik_cmdline>  (206) 
J2VwaWtfcHl0aG9uJywgJy1waHQnLCAnMi4wJywgJy1waCcsICc3LjAnLCAnLXRuJywgJzgnLCAnLW1hJywgJzIwMCcsICctaW1hZScsICc8aW5maWxlLm1hZT4nLCAnLW9tYWUnLCAnPG91dGZpbGUubWFlPic=

>  <r_epik_Ionization_Penalty>  (206) 
0.0107955

>  <r_epik_Ionization_Penalty_Charging>  (206) 
0.0107955

>  <r_epik_Ionization_Penalty_Neutral>  (206) 
4.58526e-08

>  <r_epik_State_Penalty>  (206) 
0.00827468

>  <r_epik_Charging_Adjusted_Penalty>  (206) 
0.0190701

>  <i_epik_Tot_Q>  (206) 
-1

>  <i_epik_Tot_abs_Q>  (206) 
1

>  <s_lp_Force_Field>  (206) 
OPLS3e

>  <r_lp_Energy>  (206) 
101.292

>  <b_lp_Chiralities_Consistent>  (206) 
1

>  <s_lp_Variant>  (206) 
62:0-1

>  <s_i_glide_gridfile>  (206) 
pfpi4k_grid

>  <i_i_glide_lignum>  (206) 
7

>  <i_i_glide_rotatable_bonds>  (206) 
2

>  <r_i_docking_score>  (206) 
-1.72135

>  <r_i_glide_ligand_efficiency>  (206) 
-0.0506278

>  <r_i_glide_ligand_efficiency_sa>  (206) 
-0.164015

>  <r_i_glide_ligand_efficiency_ln>  (206) 
-0.380294

>  <r_i_glide_gscore>  (206) 
-1.72135

>  <r_i_glide_lipo>  (206) 
-0.215197

>  <r_i_glide_hbond>  (206) 
0

>  <r_i_glide_metal>  (206) 
-0

>  <r_i_glide_rewards>  (206) 
-0.193011

>  <r_i_glide_evdw>  (206) 
-27.1322

>  <r_i_glide_ecoul>  (206) 
0.496181

>  <r_i_glide_erotb>  (206) 
0

>  <r_i_glide_esite>  (206) 
-0.0309549

>  <r_i_glide_emodel>  (206) 
-28.1155

>  <r_i_glide_energy>  (206) 
-26.636

>  <r_i_glide_einternal>  (206) 
2.49013

>  <r_i_glide_intrahb_reward>  (206) 
-0

>  <i_i_glide_confnum>  (206) 
1

>  <i_i_glide_posenum>  (206) 
23

>  <r_i_glide_eff_state_penalty>  (206) 
0

>  <ligand_id>  (206) 
62

>  <original_smiles>  (206) 
CC1(C)CCC2(C(=O)O)CCC3(C)C(CCC4C5(C)CC(O)C(=O)C(C)(C)C5CCC43C)C2C1

>  <smiles>  (206) 
[H]OC1([H])C(=O)C(C([H])([H])[H])(C([H])([H])[H])C2([H])C([H])([H])C([H])([H])C3(C([H])([H])[H])C([H])(C([H])([H])C([H])([H])C4([H])C5([H])C([H])([H])C(C([H])([H])[H])(C([H])([H])[H])C([H])([H])C([H])([H])C5(C(=O)[O-])C([H])([H])C([H])([H])C43C([H])([H])[H])C2(C([H])([H])[H])C1([H])[H]

$$$$
62:0:2
     RDKit          3D

 81 85  0  0  1  0  0  0  0  0999 V2000
   -1.7737    0.7694    5.4596 C   0  0  0  0  0  0  0  0  0  0  0  0
   -0.4108    0.8385    4.7296 C   0  0  0  0  0  0  0  0  0  0  0  0
   -0.5735    1.7524    3.4961 C   0  0  0  0  0  0  0  0  0  0  0  0
    0.6683    1.4433    5.6617 C   0  0  0  0  0  0  0  0  0  0  0  0
    1.0602    0.5080    6.8285 C   0  0  0  0  0  0  0  0  0  0  0  0
    1.5705   -0.8819    6.3531 C   0  0  1  0  0  0  0  0  0  0  0  0
    2.9791   -0.6422    5.7220 C   0  0  0  0  0  0  0  0  0  0  0  0
    3.9557   -0.5737    6.5032 O   0  0  0  0  0  0  0  0  0  0  0  0
    3.0809   -0.4701    4.4870 O   0  0  0  0  0  0  0  0  0  0  0  0
    1.7038   -1.8413    7.5687 C   0  0  0  0  0  0  0  0  0  0  0  0
    1.9339   -3.3256    7.1758 C   0  0  0  0  0  0  0  0  0  0  0  0
    0.8164   -3.9568    6.2661 C   0  0  1  0  0  0  0  0  0  0  0  0
   -0.5461   -3.9245    7.0379 C   0  0  0  0  0  0  0  0  0  0  0  0
    0.6878   -3.0099    5.0178 C   0  0  2  0  0  0  0  0  0  0  0  0
    1.8414   -3.2254    4.0292 C   0  0  0  0  0  0  0  0  0  0  0  0
    1.9545   -4.6684    3.5857 C   0  0  0  0  0  0  0  0  0  0  0  0
    2.2773   -5.6326    4.7735 C   0  0  2  0  0  0  0  0  0  0  0  0
    2.6080   -7.0967    4.2224 C   0  0  1  0  0  0  0  0  0  0  0  0
    3.7089   -6.9064    3.1314 C   0  0  0  0  0  0  0  0  0  0  0  0
    3.2407   -8.0670    5.2731 C   0  0  0  0  0  0  0  0  0  0  0  0
    3.4923   -9.5009    4.7561 C   0  0  1  0  0  0  0  0  0  0  0  0
    4.0056  -10.2900    5.8117 O   0  0  0  0  0  0  0  0  0  0  0  0
    2.2044  -10.1063    4.1761 C   0  0  0  0  0  0  0  0  0  0  0  0
    1.8125  -11.2339    4.4787 O   0  0  0  0  0  0  0  0  0  0  0  0
    1.4551   -9.2464    3.1315 C   0  0  0  0  0  0  0  0  0  0  0  0
    2.2466   -9.3117    1.8010 C   0  0  0  0  0  0  0  0  0  0  0  0
    0.0701   -9.8793    2.8331 C   0  0  0  0  0  0  0  0  0  0  0  0
    1.2933   -7.7627    3.6618 C   0  0  1  0  0  0  0  0  0  0  0  0
    0.1534   -7.6327    4.7179 C   0  0  0  0  0  0  0  0  0  0  0  0
   -0.1020   -6.2086    5.2574 C   0  0  0  0  0  0  0  0  0  0  0  0
    1.1404   -5.4935    5.8698 C   0  0  2  0  0  0  0  0  0  0  0  0
    1.5246   -6.2351    7.1900 C   0  0  0  0  0  0  0  0  0  0  0  0
    0.4813   -1.5027    5.4075 C   0  0  2  0  0  0  0  0  0  0  0  0
    0.0416   -0.5685    4.2507 C   0  0  0  0  0  0  0  0  0  0  0  0
   -2.1237    1.7666    5.7384 H   0  0  0  0  0  0  0  0  0  0  0  0
   -1.7241    0.1855    6.3779 H   0  0  0  0  0  0  0  0  0  0  0  0
   -2.5327    0.3106    4.8226 H   0  0  0  0  0  0  0  0  0  0  0  0
    0.3660    1.8461    2.9485 H   0  0  0  0  0  0  0  0  0  0  0  0
   -0.8828    2.7593    3.7798 H   0  0  0  0  0  0  0  0  0  0  0  0
   -1.3179    1.3575    2.8034 H   0  0  0  0  0  0  0  0  0  0  0  0
    1.5571    1.6800    5.0759 H   0  0  0  0  0  0  0  0  0  0  0  0
    0.3272    2.4010    6.0561 H   0  0  0  0  0  0  0  0  0  0  0  0
    1.8244    1.0014    7.4290 H   0  0  0  0  0  0  0  0  0  0  0  0
    0.2120    0.3906    7.4993 H   0  0  0  0  0  0  0  0  0  0  0  0
    2.5155   -1.5209    8.2224 H   0  0  0  0  0  0  0  0  0  0  0  0
    0.8231   -1.7519    8.2018 H   0  0  0  0  0  0  0  0  0  0  0  0
    2.9021   -3.4057    6.6816 H   0  0  0  0  0  0  0  0  0  0  0  0
    2.0549   -3.8707    8.1105 H   0  0  0  0  0  0  0  0  0  0  0  0
   -1.3852   -4.1067    6.3699 H   0  0  0  0  0  0  0  0  0  0  0  0
   -0.7587   -2.9760    7.5153 H   0  0  0  0  0  0  0  0  0  0  0  0
   -0.6176   -4.6602    7.8348 H   0  0  0  0  0  0  0  0  0  0  0  0
   -0.2146   -3.3023    4.4828 H   0  0  0  0  0  0  0  0  0  0  0  0
    1.7058   -2.5924    3.1516 H   0  0  0  0  0  0  0  0  0  0  0  0
    2.8056   -2.9676    4.4616 H   0  0  0  0  0  0  0  0  0  0  0  0
    1.0456   -4.9543    3.0573 H   0  0  0  0  0  0  0  0  0  0  0  0
    2.7391   -4.6577    2.8320 H   0  0  0  0  0  0  0  0  0  0  0  0
    3.1983   -5.2648    5.2302 H   0  0  0  0  0  0  0  0  0  0  0  0
    4.3617   -7.7602    2.9825 H   0  0  0  0  0  0  0  0  0  0  0  0
    4.3947   -6.1013    3.4039 H   0  0  0  0  0  0  0  0  0  0  0  0
    3.2827   -6.6685    2.1553 H   0  0  0  0  0  0  0  0  0  0  0  0
    4.1608   -7.6441    5.6773 H   0  0  0  0  0  0  0  0  0  0  0  0
    2.5859   -8.2177    6.1180 H   0  0  0  0  0  0  0  0  0  0  0  0
    4.2435   -9.5247    3.9702 H   0  0  0  0  0  0  0  0  0  0  0  0
    4.8272   -9.9224    6.1035 H   0  0  0  0  0  0  0  0  0  0  0  0
    1.9550   -8.5106    1.1217 H   0  0  0  0  0  0  0  0  0  0  0  0
    2.0703  -10.2529    1.2828 H   0  0  0  0  0  0  0  0  0  0  0  0
    3.3252   -9.2762    1.9252 H   0  0  0  0  0  0  0  0  0  0  0  0
   -0.5326   -9.2338    2.1914 H   0  0  0  0  0  0  0  0  0  0  0  0
   -0.5024  -10.0861    3.7390 H   0  0  0  0  0  0  0  0  0  0  0  0
    0.1683  -10.8379    2.3191 H   0  0  0  0  0  0  0  0  0  0  0  0
    0.9679   -7.1789    2.8000 H   0  0  0  0  0  0  0  0  0  0  0  0
   -0.7926   -7.9488    4.2845 H   0  0  0  0  0  0  0  0  0  0  0  0
    0.3267   -8.3245    5.5405 H   0  0  0  0  0  0  0  0  0  0  0  0
   -0.5197   -5.6101    4.4509 H   0  0  0  0  0  0  0  0  0  0  0  0
   -0.8985   -6.2800    5.9964 H   0  0  0  0  0  0  0  0  0  0  0  0
    1.1507   -7.2540    7.2375 H   0  0  0  0  0  0  0  0  0  0  0  0
    1.1096   -5.7912    8.0899 H   0  0  0  0  0  0  0  0  0  0  0  0
    2.6039   -6.2497    7.3406 H   0  0  0  0  0  0  0  0  0  0  0  0
   -0.4130   -1.5258    6.0166 H   0  0  0  0  0  0  0  0  0  0  0  0
   -0.7725   -1.0371    3.7000 H   0  0  0  0  0  0  0  0  0  0  0  0
    0.8449   -0.4529    3.5271 H   0  0  0  0  0  0  0  0  0  0  0  0
  1  2  1  0
  1 35  1  0
  1 36  1  0
  1 37  1  0
  2 34  1  0
  2  3  1  0
  2  4  1  0
  3 38  1  0
  3 39  1  0
  3 40  1  0
  4  5  1  0
  4 41  1  0
  4 42  1  0
  5  6  1  0
  5 43  1  0
  5 44  1  0
  6 33  1  0
  6  7  1  6
  6 10  1  0
  7  8  2  0
  7  9  1  0
 10 11  1  0
 10 45  1  0
 10 46  1  0
 11 12  1  0
 11 47  1  0
 11 48  1  0
 12 31  1  0
 12 13  1  1
 12 14  1  0
 13 49  1  0
 13 50  1  0
 13 51  1  0
 14 15  1  0
 14 33  1  0
 14 52  1  6
 15 16  1  0
 15 53  1  0
 15 54  1  0
 16 17  1  0
 16 55  1  0
 16 56  1  0
 17 31  1  0
 17 18  1  0
 17 57  1  1
 18 28  1  0
 18 19  1  6
 18 20  1  0
 19 58  1  0
 19 59  1  0
 19 60  1  0
 20 21  1  0
 20 61  1  0
 20 62  1  0
 21 22  1  0
 21 23  1  0
 21 63  1  6
 22 64  1  0
 23 24  2  0
 23 25  1  0
 25 26  1  0
 25 27  1  0
 25 28  1  0
 26 65  1  0
 26 66  1  0
 26 67  1  0
 27 68  1  0
 27 69  1  0
 27 70  1  0
 28 29  1  0
 28 71  1  6
 29 30  1  0
 29 72  1  0
 29 73  1  0
 30 31  1  0
 30 74  1  0
 30 75  1  0
 31 32  1  1
 32 76  1  0
 32 77  1  0
 32 78  1  0
 33 34  1  0
 33 79  1  1
 34 80  1  0
 34 81  1  0
M  CHG  1   9  -1
M  END
>  <i_m_ct_stereo_status>  (207) 
1

>  <s_m_source_file>  (207) 
/var/tmp/pbs.5076255.sched01/tmpkd0wjm76/823hn9mkkz.sdf

>  <i_m_source_file_index>  (207) 
7

>  <i_lp_mmshare_version>  (207) 
48012

>  <i_f3d_flags>  (207) 
0

>  <s_epik_input>  (207) 
W0NIMl0xW0NIMl1DKFtDSDNdKShbQ0gzXSlbQ0gyXVtDQEhdKFtDQEBdMTJDKD1PKVtPSF0pW0NAQEhdM1tDQF0oW0NIM10pKFtDSDJdW0NIMl0yKVtDQF00KFtDSDNdKVtDQEhdKFtDSDJdW0NIMl0zKVtDQF01KFtDSDNdKVtDQEhdKFtDSDJdW0NIMl00KUMoW0NIM10pKFtDSDNdKUMoPU8pW0NAQEhdKFtDSDJdNSlbT0hd

>  <s_epik_cmdline>  (207) 
J2VwaWtfcHl0aG9uJywgJy1waHQnLCAnMi4wJywgJy1waCcsICc3LjAnLCAnLXRuJywgJzgnLCAnLW1hJywgJzIwMCcsICctaW1hZScsICc8aW5maWxlLm1hZT4nLCAnLW9tYWUnLCAnPG91dGZpbGUubWFlPic=

>  <r_epik_Ionization_Penalty>  (207) 
0.0107955

>  <r_epik_Ionization_Penalty_Charging>  (207) 
0.0107955

>  <r_epik_Ionization_Penalty_Neutral>  (207) 
4.58526e-08

>  <r_epik_State_Penalty>  (207) 
0.00827468

>  <r_epik_Charging_Adjusted_Penalty>  (207) 
0.0190701

>  <i_epik_Tot_Q>  (207) 
-1

>  <i_epik_Tot_abs_Q>  (207) 
1

>  <s_lp_Force_Field>  (207) 
OPLS3e

>  <r_lp_Energy>  (207) 
101.292

>  <b_lp_Chiralities_Consistent>  (207) 
1

>  <s_lp_Variant>  (207) 
62:0-1

>  <s_i_glide_gridfile>  (207) 
pfpi4k_grid

>  <i_i_glide_lignum>  (207) 
7

>  <i_i_glide_rotatable_bonds>  (207) 
2

>  <r_i_docking_score>  (207) 
-1.26351

>  <r_i_glide_ligand_efficiency>  (207) 
-0.0371621

>  <r_i_glide_ligand_efficiency_sa>  (207) 
-0.120391

>  <r_i_glide_ligand_efficiency_ln>  (207) 
-0.279145

>  <r_i_glide_gscore>  (207) 
-1.26351

>  <r_i_glide_lipo>  (207) 
-0.0858543

>  <r_i_glide_hbond>  (207) 
0

>  <r_i_glide_metal>  (207) 
-0

>  <r_i_glide_rewards>  (207) 
-0.193011

>  <r_i_glide_evdw>  (207) 
-27.735

>  <r_i_glide_ecoul>  (207) 
2.76935

>  <r_i_glide_erotb>  (207) 
0

>  <r_i_glide_esite>  (207) 
-0.013298

>  <r_i_glide_emodel>  (207) 
-27.0694

>  <r_i_glide_energy>  (207) 
-24.9657

>  <r_i_glide_einternal>  (207) 
0.00279154

>  <r_i_glide_intrahb_reward>  (207) 
-0

>  <i_i_glide_confnum>  (207) 
1

>  <i_i_glide_posenum>  (207) 
37

>  <r_i_glide_eff_state_penalty>  (207) 
0

>  <ligand_id>  (207) 
62

>  <original_smiles>  (207) 
CC1(C)CCC2(C(=O)O)CCC3(C)C(CCC4C5(C)CC(O)C(=O)C(C)(C)C5CCC43C)C2C1

>  <smiles>  (207) 
[H]OC1([H])C(=O)C(C([H])([H])[H])(C([H])([H])[H])C2([H])C([H])([H])C([H])([H])C3(C([H])([H])[H])C([H])(C([H])([H])C([H])([H])C4([H])C5([H])C([H])([H])C(C([H])([H])[H])(C([H])([H])[H])C([H])([H])C([H])([H])C5(C(=O)[O-])C([H])([H])C([H])([H])C43C([H])([H])[H])C2(C([H])([H])[H])C1([H])[H]

$$$$
62:1:0
     RDKit          3D

 82 86  0  0  1  0  0  0  0  0999 V2000
    2.3791    1.0518    6.7553 C   0  0  0  0  0  0  0  0  0  0  0  0
    1.3850    0.8221    5.5947 C   0  0  0  0  0  0  0  0  0  0  0  0
    0.0065    1.3447    6.0415 C   0  0  0  0  0  0  0  0  0  0  0  0
    1.8353    1.6039    4.3390 C   0  0  0  0  0  0  0  0  0  0  0  0
    3.1157    1.0247    3.6907 C   0  0  0  0  0  0  0  0  0  0  0  0
    2.9880   -0.4764    3.2959 C   0  0  1  0  0  0  0  0  0  0  0  0
    2.0023   -0.5548    2.0987 C   0  0  0  0  0  0  0  0  0  0  0  0
    0.7896   -0.6117    2.2273 O   0  0  0  0  0  0  0  0  0  0  0  0
    2.6178   -0.5329    0.8776 O   0  0  0  0  0  0  0  0  0  0  0  0
    4.3895   -1.0470    2.9288 C   0  0  0  0  0  0  0  0  0  0  0  0
    4.4333   -2.5968    2.7974 C   0  0  0  0  0  0  0  0  0  0  0  0
    3.9962   -3.3827    4.0830 C   0  0  1  0  0  0  0  0  0  0  0  0
    4.9734   -3.0196    5.2520 C   0  0  0  0  0  0  0  0  0  0  0  0
    2.5770   -2.8286    4.4607 C   0  0  2  0  0  0  0  0  0  0  0  0
    1.4819   -3.4119    3.5539 C   0  0  0  0  0  0  0  0  0  0  0  0
    1.4876   -4.9286    3.5498 C   0  0  0  0  0  0  0  0  0  0  0  0
    2.8211   -5.5298    3.0032 C   0  0  2  0  0  0  0  0  0  0  0  0
    2.6847   -7.1152    2.8207 C   0  0  1  0  0  0  0  0  0  0  0  0
    1.3928   -7.3435    1.9788 C   0  0  0  0  0  0  0  0  0  0  0  0
    3.8329   -7.7895    1.9892 C   0  0  0  0  0  0  0  0  0  0  0  0
    3.7413   -9.3332    1.8818 C   0  0  1  0  0  0  0  0  0  0  0  0
    4.8610   -9.8473    1.1833 O   0  0  0  0  0  0  0  0  0  0  0  0
    3.6356   -9.9658    3.2748 C   0  0  0  0  0  0  0  0  0  0  0  0
    4.3587  -10.8988    3.6092 O   0  0  0  0  0  0  0  0  0  0  0  0
    2.5498   -9.3964    4.2134 C   0  0  0  0  0  0  0  0  0  0  0  0
    1.1698   -9.9222    3.7411 C   0  0  0  0  0  0  0  0  0  0  0  0
    2.7371   -9.9791    5.6415 C   0  0  0  0  0  0  0  0  0  0  0  0
    2.6253   -7.8135    4.2329 C   0  0  1  0  0  0  0  0  0  0  0  0
    3.8007   -7.2859    5.1129 C   0  0  0  0  0  0  0  0  0  0  0  0
    3.9225   -5.7492    5.2297 C   0  0  0  0  0  0  0  0  0  0  0  0
    4.0240   -4.9851    3.8775 C   0  0  2  0  0  0  0  0  0  0  0  0
    5.4007   -5.3340    3.2296 C   0  0  0  0  0  0  0  0  0  0  0  0
    2.5295   -1.2625    4.5734 C   0  0  2  0  0  0  0  0  0  0  0  0
    1.2615   -0.6846    5.2517 C   0  0  0  0  0  0  0  0  0  0  0  0
    2.4214    2.1041    7.0497 H   0  0  0  0  0  0  0  0  0  0  0  0
    3.3988    0.7665    6.4996 H   0  0  0  0  0  0  0  0  0  0  0  0
    2.1042    0.4670    7.6360 H   0  0  0  0  0  0  0  0  0  0  0  0
   -0.7367    1.2198    5.2552 H   0  0  0  0  0  0  0  0  0  0  0  0
    0.0406    2.4071    6.2885 H   0  0  0  0  0  0  0  0  0  0  0  0
   -0.3503    0.8140    6.9238 H   0  0  0  0  0  0  0  0  0  0  0  0
    1.0298    1.6186    3.6051 H   0  0  0  0  0  0  0  0  0  0  0  0
    1.9973    2.6519    4.5897 H   0  0  0  0  0  0  0  0  0  0  0  0
    3.3529    1.6252    2.8115 H   0  0  0  0  0  0  0  0  0  0  0  0
    3.9693    1.1742    4.3607 H   0  0  0  0  0  0  0  0  0  0  0  0
    1.9362   -0.6516    0.2067 H   0  0  0  0  0  0  0  0  0  0  0  0
    4.7532   -0.6073    2.0005 H   0  0  0  0  0  0  0  0  0  0  0  0
    5.1296   -0.7081    3.6576 H   0  0  0  0  0  0  0  0  0  0  0  0
    3.8037   -2.8865    1.9597 H   0  0  0  0  0  0  0  0  0  0  0  0
    5.4453   -2.8487    2.4868 H   0  0  0  0  0  0  0  0  0  0  0  0
    4.5679   -3.3227    6.2192 H   0  0  0  0  0  0  0  0  0  0  0  0
    5.1848   -1.9572    5.3567 H   0  0  0  0  0  0  0  0  0  0  0  0
    5.9523   -3.4858    5.1647 H   0  0  0  0  0  0  0  0  0  0  0  0
    2.3466   -3.1924    5.4589 H   0  0  0  0  0  0  0  0  0  0  0  0
    0.4982   -3.0553    3.8725 H   0  0  0  0  0  0  0  0  0  0  0  0
    1.6096   -3.1018    2.5211 H   0  0  0  0  0  0  0  0  0  0  0  0
    1.2682   -5.2775    4.5553 H   0  0  0  0  0  0  0  0  0  0  0  0
    0.6248   -5.2077    2.9485 H   0  0  0  0  0  0  0  0  0  0  0  0
    2.9516   -5.1231    1.9996 H   0  0  0  0  0  0  0  0  0  0  0  0
    1.3842   -8.2545    1.3881 H   0  0  0  0  0  0  0  0  0  0  0  0
    1.2650   -6.5553    1.2360 H   0  0  0  0  0  0  0  0  0  0  0  0
    0.4986   -7.3730    2.6002 H   0  0  0  0  0  0  0  0  0  0  0  0
    3.9036   -7.3395    0.9895 H   0  0  0  0  0  0  0  0  0  0  0  0
    4.7963   -7.6341    2.4531 H   0  0  0  0  0  0  0  0  0  0  0  0
    2.8663   -9.6317    1.3111 H   0  0  0  0  0  0  0  0  0  0  0  0
    4.6381  -10.7528    0.9043 H   0  0  0  0  0  0  0  0  0  0  0  0
    0.3500   -9.3233    4.1435 H   0  0  0  0  0  0  0  0  0  0  0  0
    0.9909  -10.9541    4.0533 H   0  0  0  0  0  0  0  0  0  0  0  0
    1.0636   -9.9388    2.6621 H   0  0  0  0  0  0  0  0  0  0  0  0
    2.0662   -9.5028    6.3617 H   0  0  0  0  0  0  0  0  0  0  0  0
    3.7578   -9.8564    6.0052 H   0  0  0  0  0  0  0  0  0  0  0  0
    2.5389  -11.0553    5.6817 H   0  0  0  0  0  0  0  0  0  0  0  0
    1.7139   -7.4859    4.7314 H   0  0  0  0  0  0  0  0  0  0  0  0
    3.6806   -7.6373    6.1380 H   0  0  0  0  0  0  0  0  0  0  0  0
    4.7452   -7.7142    4.7772 H   0  0  0  0  0  0  0  0  0  0  0  0
    3.0715   -5.3894    5.8026 H   0  0  0  0  0  0  0  0  0  0  0  0
    4.7965   -5.5508    5.8517 H   0  0  0  0  0  0  0  0  0  0  0  0
    5.8318   -6.2602    3.6028 H   0  0  0  0  0  0  0  0  0  0  0  0
    6.1906   -4.6173    3.4360 H   0  0  0  0  0  0  0  0  0  0  0  0
    5.3316   -5.3920    2.1428 H   0  0  0  0  0  0  0  0  0  0  0  0
    3.2898   -1.0433    5.3137 H   0  0  0  0  0  0  0  0  0  0  0  0
    1.0498   -1.2489    6.1606 H   0  0  0  0  0  0  0  0  0  0  0  0
    0.3962   -0.8279    4.6160 H   0  0  0  0  0  0  0  0  0  0  0  0
  1  2  1  0
  1 35  1  0
  1 36  1  0
  1 37  1  0
  2 34  1  0
  2  3  1  0
  2  4  1  0
  3 38  1  0
  3 39  1  0
  3 40  1  0
  4  5  1  0
  4 41  1  0
  4 42  1  0
  5  6  1  0
  5 43  1  0
  5 44  1  0
  6 33  1  0
  6  7  1  6
  6 10  1  0
  7  8  2  0
  7  9  1  0
  9 45  1  0
 10 11  1  0
 10 46  1  0
 10 47  1  0
 11 12  1  0
 11 48  1  0
 11 49  1  0
 12 31  1  0
 12 13  1  1
 12 14  1  0
 13 50  1  0
 13 51  1  0
 13 52  1  0
 14 15  1  0
 14 33  1  0
 14 53  1  1
 15 16  1  0
 15 54  1  0
 15 55  1  0
 16 17  1  0
 16 56  1  0
 16 57  1  0
 17 31  1  0
 17 18  1  0
 17 58  1  6
 18 28  1  0
 18 19  1  6
 18 20  1  0
 19 59  1  0
 19 60  1  0
 19 61  1  0
 20 21  1  0
 20 62  1  0
 20 63  1  0
 21 22  1  0
 21 23  1  0
 21 64  1  6
 22 65  1  0
 23 24  2  0
 23 25  1  0
 25 26  1  0
 25 27  1  0
 25 28  1  0
 26 66  1  0
 26 67  1  0
 26 68  1  0
 27 69  1  0
 27 70  1  0
 27 71  1  0
 28 29  1  0
 28 72  1  1
 29 30  1  0
 29 73  1  0
 29 74  1  0
 30 31  1  0
 30 75  1  0
 30 76  1  0
 31 32  1  6
 32 77  1  0
 32 78  1  0
 32 79  1  0
 33 34  1  0
 33 80  1  1
 34 81  1  0
 34 82  1  0
M  END
>  <i_m_ct_stereo_status>  (208) 
1

>  <s_m_source_file>  (208) 
/var/tmp/pbs.5076255.sched01/tmpkd0wjm76/823hn9mkkz.sdf

>  <i_m_source_file_index>  (208) 
8

>  <i_lp_mmshare_version>  (208) 
48012

>  <i_f3d_flags>  (208) 
0

>  <s_epik_input>  (208) 
W0NIMl0xW0NIMl1DKFtDSDNdKShbQ0gzXSlbQ0gyXVtDQEhdKFtDQEBdMTJDKD1PKVtPSF0pW0NAQEhdM1tDQF0oW0NIM10pKFtDSDJdW0NIMl0yKVtDQF00KFtDSDNdKVtDQEhdKFtDSDJdW0NIMl0zKVtDQF01KFtDSDNdKVtDQEhdKFtDSDJdW0NIMl00KUMoW0NIM10pKFtDSDNdKUMoPU8pW0NAQEhdKFtDSDJdNSlbT0hd

>  <s_epik_cmdline>  (208) 
J2VwaWtfcHl0aG9uJywgJy1waHQnLCAnMi4wJywgJy1waCcsICc3LjAnLCAnLXRuJywgJzgnLCAnLW1hJywgJzIwMCcsICctaW1hZScsICc8aW5maWxlLm1hZT4nLCAnLW9tYWUnLCAnPG91dGZpbGUubWFlPic=

>  <r_epik_Ionization_Penalty>  (208) 
2.37841

>  <r_epik_Ionization_Penalty_Charging>  (208) 
0

>  <r_epik_Ionization_Penalty_Neutral>  (208) 
2.37841

>  <r_epik_State_Penalty>  (208) 
2.53471

>  <r_epik_Charging_Adjusted_Penalty>  (208) 
2.53471

>  <i_epik_Tot_Q>  (208) 
0

>  <i_epik_Tot_abs_Q>  (208) 
0

>  <s_lp_Force_Field>  (208) 
OPLS3e

>  <r_lp_Energy>  (208) 
108.049

>  <b_lp_Chiralities_Consistent>  (208) 
1

>  <s_lp_Variant>  (208) 
62:0-2

>  <s_i_glide_gridfile>  (208) 
pfpi4k_grid

>  <i_i_glide_lignum>  (208) 
8

>  <i_i_glide_rotatable_bonds>  (208) 
3

>  <r_i_docking_score>  (208) 
-3.04918

>  <r_i_glide_ligand_efficiency>  (208) 
-0.0896817

>  <r_i_glide_ligand_efficiency_sa>  (208) 
-0.290534

>  <r_i_glide_ligand_efficiency_ln>  (208) 
-0.673649

>  <r_i_glide_gscore>  (208) 
-3.04918

>  <r_i_glide_lipo>  (208) 
-0.121616

>  <r_i_glide_hbond>  (208) 
0

>  <r_i_glide_metal>  (208) 
-0

>  <r_i_glide_rewards>  (208) 
-0.186138

>  <r_i_glide_evdw>  (208) 
-23.5672

>  <r_i_glide_ecoul>  (208) 
-10.5565

>  <r_i_glide_erotb>  (208) 
0.0905011

>  <r_i_glide_esite>  (208) 
-0.0700944

>  <r_i_glide_emodel>  (208) 
-40.3561

>  <r_i_glide_energy>  (208) 
-34.1237

>  <r_i_glide_einternal>  (208) 
2.67249

>  <r_i_glide_intrahb_reward>  (208) 
-0

>  <i_i_glide_confnum>  (208) 
6

>  <i_i_glide_posenum>  (208) 
14

>  <r_i_glide_eff_state_penalty>  (208) 
0

>  <ligand_id>  (208) 
62

>  <original_smiles>  (208) 
CC1(C)CCC2(C(=O)O)CCC3(C)C(CCC4C5(C)CC(O)C(=O)C(C)(C)C5CCC43C)C2C1

>  <smiles>  (208) 
[H]OC(=O)C12C([H])([H])C([H])([H])C(C([H])([H])[H])(C([H])([H])[H])C([H])([H])C1([H])C1([H])C([H])([H])C([H])([H])C3([H])C4(C([H])([H])[H])C([H])([H])C([H])(O[H])C(=O)C(C([H])([H])[H])(C([H])([H])[H])C4([H])C([H])([H])C([H])([H])C3(C([H])([H])[H])C1(C([H])([H])[H])C([H])([H])C2([H])[H]

$$$$
62:1:1
     RDKit          3D

 82 86  0  0  1  0  0  0  0  0999 V2000
    0.1485    0.9439    5.2647 C   0  0  0  0  0  0  0  0  0  0  0  0
    0.4684    0.8463    3.7538 C   0  0  0  0  0  0  0  0  0  0  0  0
   -0.7749    1.3022    2.9636 C   0  0  0  0  0  0  0  0  0  0  0  0
    1.6493    1.7922    3.4054 C   0  0  0  0  0  0  0  0  0  0  0  0
    3.0096    1.2856    3.9472 C   0  0  0  0  0  0  0  0  0  0  0  0
    3.3790   -0.1634    3.5111 C   0  0  1  0  0  0  0  0  0  0  0  0
    3.7733   -0.1432    2.0040 C   0  0  0  0  0  0  0  0  0  0  0  0
    4.9295   -0.2691    1.5916 O   0  0  0  0  0  0  0  0  0  0  0  0
    2.6989    0.0181    1.1804 O   0  0  0  0  0  0  0  0  0  0  0  0
    4.5929   -0.6627    4.3442 C   0  0  0  0  0  0  0  0  0  0  0  0
    4.8741   -2.1893    4.2115 C   0  0  0  0  0  0  0  0  0  0  0  0
    3.6752   -3.1279    4.6059 C   0  0  1  0  0  0  0  0  0  0  0  0
    3.3289   -2.8984    6.1168 C   0  0  0  0  0  0  0  0  0  0  0  0
    2.4505   -2.6427    3.7488 C   0  0  2  0  0  0  0  0  0  0  0  0
    2.5674   -3.1095    2.2906 C   0  0  0  0  0  0  0  0  0  0  0  0
    2.7119   -4.6157    2.1940 C   0  0  0  0  0  0  0  0  0  0  0  0
    4.0206   -5.1397    2.8705 C   0  0  2  0  0  0  0  0  0  0  0  0
    4.2337   -6.6928    2.5485 C   0  0  1  0  0  0  0  0  0  0  0  0
    4.1219   -6.8313    0.9986 C   0  0  0  0  0  0  0  0  0  0  0  0
    5.6511   -7.2480    2.9032 C   0  0  0  0  0  0  0  0  0  0  0  0
    5.8332   -8.7620    2.6538 C   0  0  1  0  0  0  0  0  0  0  0  0
    7.1285   -9.1433    3.0806 O   0  0  0  0  0  0  0  0  0  0  0  0
    4.7469   -9.5720    3.3833 C   0  0  0  0  0  0  0  0  0  0  0  0
    5.0270  -10.5308    4.1009 O   0  0  0  0  0  0  0  0  0  0  0  0
    3.2817   -9.1250    3.1436 C   0  0  0  0  0  0  0  0  0  0  0  0
    2.8555   -9.5853    1.7288 C   0  0  0  0  0  0  0  0  0  0  0  0
    2.3390   -9.8729    4.1280 C   0  0  0  0  0  0  0  0  0  0  0  0
    3.1600   -7.5544    3.3215 C   0  0  1  0  0  0  0  0  0  0  0  0
    3.1379   -7.1290    4.8202 C   0  0  0  0  0  0  0  0  0  0  0  0
    2.9712   -5.6186    5.0876 C   0  0  0  0  0  0  0  0  0  0  0  0
    4.0208   -4.6966    4.3934 C   0  0  2  0  0  0  0  0  0  0  0  0
    5.4081   -4.9539    5.0621 C   0  0  0  0  0  0  0  0  0  0  0  0
    2.1785   -1.1019    3.8854 C   0  0  2  0  0  0  0  0  0  0  0  0
    0.7986   -0.6225    3.3558 C   0  0  0  0  0  0  0  0  0  0  0  0
   -0.1601    1.9571    5.5376 H   0  0  0  0  0  0  0  0  0  0  0  0
    1.0106    0.6990    5.8879 H   0  0  0  0  0  0  0  0  0  0  0  0
   -0.6566    0.2575    5.5379 H   0  0  0  0  0  0  0  0  0  0  0  0
   -0.5971    1.2608    1.8876 H   0  0  0  0  0  0  0  0  0  0  0  0
   -1.0482    2.3301    3.2077 H   0  0  0  0  0  0  0  0  0  0  0  0
   -1.6336    0.6671    3.1831 H   0  0  0  0  0  0  0  0  0  0  0  0
    1.7074    1.9359    2.3283 H   0  0  0  0  0  0  0  0  0  0  0  0
    1.4497    2.7936    3.7972 H   0  0  0  0  0  0  0  0  0  0  0  0
    3.7924    1.9846    3.6507 H   0  0  0  0  0  0  0  0  0  0  0  0
    2.9970    1.3468    5.0329 H   0  0  0  0  0  0  0  0  0  0  0  0
    2.8735   -0.0250    0.2533 H   0  0  0  0  0  0  0  0  0  0  0  0
    5.4929   -0.1129    4.0580 H   0  0  0  0  0  0  0  0  0  0  0  0
    4.4486   -0.4036    5.3938 H   0  0  0  0  0  0  0  0  0  0  0  0
    5.1842   -2.4032    3.1889 H   0  0  0  0  0  0  0  0  0  0  0  0
    5.7603   -2.3910    4.8140 H   0  0  0  0  0  0  0  0  0  0  0  0
    2.3564   -3.3206    6.3626 H   0  0  0  0  0  0  0  0  0  0  0  0
    3.2781   -1.8559    6.4105 H   0  0  0  0  0  0  0  0  0  0  0  0
    4.0476   -3.3421    6.7998 H   0  0  0  0  0  0  0  0  0  0  0  0
    1.5641   -3.1338    4.1551 H   0  0  0  0  0  0  0  0  0  0  0  0
    1.6866   -2.7924    1.7366 H   0  0  0  0  0  0  0  0  0  0  0  0
    3.4246   -2.6859    1.7754 H   0  0  0  0  0  0  0  0  0  0  0  0
    1.8220   -5.0933    2.6078 H   0  0  0  0  0  0  0  0  0  0  0  0
    2.6819   -4.8284    1.1280 H   0  0  0  0  0  0  0  0  0  0  0  0
    4.8477   -4.6152    2.3903 H   0  0  0  0  0  0  0  0  0  0  0  0
    4.6625   -7.6692    0.5697 H   0  0  0  0  0  0  0  0  0  0  0  0
    4.5469   -5.9606    0.4952 H   0  0  0  0  0  0  0  0  0  0  0  0
    3.0847   -6.9331    0.6773 H   0  0  0  0  0  0  0  0  0  0  0  0
    6.4234   -6.6864    2.3769 H   0  0  0  0  0  0  0  0  0  0  0  0
    5.8695   -7.1378    3.9550 H   0  0  0  0  0  0  0  0  0  0  0  0
    5.7755   -9.0193    1.5992 H   0  0  0  0  0  0  0  0  0  0  0  0
    7.7757   -8.6722    2.5716 H   0  0  0  0  0  0  0  0  0  0  0  0
    1.9741   -9.0500    1.3731 H   0  0  0  0  0  0  0  0  0  0  0  0
    2.6114  -10.6476    1.7248 H   0  0  0  0  0  0  0  0  0  0  0  0
    3.6411   -9.4843    0.9835 H   0  0  0  0  0  0  0  0  0  0  0  0
    1.3172   -9.4932    4.0646 H   0  0  0  0  0  0  0  0  0  0  0  0
    2.6678   -9.7901    5.1667 H   0  0  0  0  0  0  0  0  0  0  0  0
    2.2966  -10.9429    3.9152 H   0  0  0  0  0  0  0  0  0  0  0  0
    2.1789   -7.2900    2.9283 H   0  0  0  0  0  0  0  0  0  0  0  0
    2.3002   -7.6009    5.3277 H   0  0  0  0  0  0  0  0  0  0  0  0
    4.0221   -7.5066    5.3303 H   0  0  0  0  0  0  0  0  0  0  0  0
    1.9633   -5.3313    4.7955 H   0  0  0  0  0  0  0  0  0  0  0  0
    3.0038   -5.4846    6.1684 H   0  0  0  0  0  0  0  0  0  0  0  0
    5.4708   -5.9151    5.5650 H   0  0  0  0  0  0  0  0  0  0  0  0
    5.6591   -4.2562    5.8553 H   0  0  0  0  0  0  0  0  0  0  0  0
    6.2155   -4.8820    4.3350 H   0  0  0  0  0  0  0  0  0  0  0  0
    2.0589   -0.9627    4.9514 H   0  0  0  0  0  0  0  0  0  0  0  0
    0.0200   -1.2840    3.7450 H   0  0  0  0  0  0  0  0  0  0  0  0
    0.7346   -0.7313    2.2750 H   0  0  0  0  0  0  0  0  0  0  0  0
  1  2  1  0
  1 35  1  0
  1 36  1  0
  1 37  1  0
  2 34  1  0
  2  3  1  0
  2  4  1  0
  3 38  1  0
  3 39  1  0
  3 40  1  0
  4  5  1  0
  4 41  1  0
  4 42  1  0
  5  6  1  0
  5 43  1  0
  5 44  1  0
  6 33  1  0
  6  7  1  6
  6 10  1  0
  7  8  2  0
  7  9  1  0
  9 45  1  0
 10 11  1  0
 10 46  1  0
 10 47  1  0
 11 12  1  0
 11 48  1  0
 11 49  1  0
 12 31  1  0
 12 13  1  1
 12 14  1  0
 13 50  1  0
 13 51  1  0
 13 52  1  0
 14 15  1  0
 14 33  1  0
 14 53  1  1
 15 16  1  0
 15 54  1  0
 15 55  1  0
 16 17  1  0
 16 56  1  0
 16 57  1  0
 17 31  1  0
 17 18  1  0
 17 58  1  6
 18 28  1  0
 18 19  1  6
 18 20  1  0
 19 59  1  0
 19 60  1  0
 19 61  1  0
 20 21  1  0
 20 62  1  0
 20 63  1  0
 21 22  1  0
 21 23  1  0
 21 64  1  6
 22 65  1  0
 23 24  2  0
 23 25  1  0
 25 26  1  0
 25 27  1  0
 25 28  1  0
 26 66  1  0
 26 67  1  0
 26 68  1  0
 27 69  1  0
 27 70  1  0
 27 71  1  0
 28 29  1  0
 28 72  1  6
 29 30  1  0
 29 73  1  0
 29 74  1  0
 30 31  1  0
 30 75  1  0
 30 76  1  0
 31 32  1  1
 32 77  1  0
 32 78  1  0
 32 79  1  0
 33 34  1  0
 33 80  1  1
 34 81  1  0
 34 82  1  0
M  END
>  <i_m_ct_stereo_status>  (209) 
1

>  <s_m_source_file>  (209) 
/var/tmp/pbs.5076255.sched01/tmpkd0wjm76/823hn9mkkz.sdf

>  <i_m_source_file_index>  (209) 
8

>  <i_lp_mmshare_version>  (209) 
48012

>  <i_f3d_flags>  (209) 
0

>  <s_epik_input>  (209) 
W0NIMl0xW0NIMl1DKFtDSDNdKShbQ0gzXSlbQ0gyXVtDQEhdKFtDQEBdMTJDKD1PKVtPSF0pW0NAQEhdM1tDQF0oW0NIM10pKFtDSDJdW0NIMl0yKVtDQF00KFtDSDNdKVtDQEhdKFtDSDJdW0NIMl0zKVtDQF01KFtDSDNdKVtDQEhdKFtDSDJdW0NIMl00KUMoW0NIM10pKFtDSDNdKUMoPU8pW0NAQEhdKFtDSDJdNSlbT0hd

>  <s_epik_cmdline>  (209) 
J2VwaWtfcHl0aG9uJywgJy1waHQnLCAnMi4wJywgJy1waCcsICc3LjAnLCAnLXRuJywgJzgnLCAnLW1hJywgJzIwMCcsICctaW1hZScsICc8aW5maWxlLm1hZT4nLCAnLW9tYWUnLCAnPG91dGZpbGUubWFlPic=

>  <r_epik_Ionization_Penalty>  (209) 
2.37841

>  <r_epik_Ionization_Penalty_Charging>  (209) 
0

>  <r_epik_Ionization_Penalty_Neutral>  (209) 
2.37841

>  <r_epik_State_Penalty>  (209) 
2.53471

>  <r_epik_Charging_Adjusted_Penalty>  (209) 
2.53471

>  <i_epik_Tot_Q>  (209) 
0

>  <i_epik_Tot_abs_Q>  (209) 
0

>  <s_lp_Force_Field>  (209) 
OPLS3e

>  <r_lp_Energy>  (209) 
108.049

>  <b_lp_Chiralities_Consistent>  (209) 
1

>  <s_lp_Variant>  (209) 
62:0-2

>  <s_i_glide_gridfile>  (209) 
pfpi4k_grid

>  <i_i_glide_lignum>  (209) 
8

>  <i_i_glide_rotatable_bonds>  (209) 
3

>  <r_i_docking_score>  (209) 
-1.99424

>  <r_i_glide_ligand_efficiency>  (209) 
-0.0586542

>  <r_i_glide_ligand_efficiency_sa>  (209) 
-0.190017

>  <r_i_glide_ligand_efficiency_ln>  (209) 
-0.440584

>  <r_i_glide_gscore>  (209) 
-1.99424

>  <r_i_glide_lipo>  (209) 
-0.200501

>  <r_i_glide_hbond>  (209) 
-0.0668451

>  <r_i_glide_metal>  (209) 
-0

>  <r_i_glide_rewards>  (209) 
-0.223768

>  <r_i_glide_evdw>  (209) 
-28.4248

>  <r_i_glide_ecoul>  (209) 
-1.10121

>  <r_i_glide_erotb>  (209) 
0.0905011

>  <r_i_glide_esite>  (209) 
-0.00720499

>  <r_i_glide_emodel>  (209) 
-33.158

>  <r_i_glide_energy>  (209) 
-29.526

>  <r_i_glide_einternal>  (209) 
2.6609

>  <r_i_glide_intrahb_reward>  (209) 
-0

>  <i_i_glide_confnum>  (209) 
6

>  <i_i_glide_posenum>  (209) 
1

>  <r_i_glide_eff_state_penalty>  (209) 
0

>  <ligand_id>  (209) 
62

>  <original_smiles>  (209) 
CC1(C)CCC2(C(=O)O)CCC3(C)C(CCC4C5(C)CC(O)C(=O)C(C)(C)C5CCC43C)C2C1

>  <smiles>  (209) 
[H]OC(=O)C12C([H])([H])C([H])([H])C(C([H])([H])[H])(C([H])([H])[H])C([H])([H])C1([H])C1([H])C([H])([H])C([H])([H])C3([H])C4(C([H])([H])[H])C([H])([H])C([H])(O[H])C(=O)C(C([H])([H])[H])(C([H])([H])[H])C4([H])C([H])([H])C([H])([H])C3(C([H])([H])[H])C1(C([H])([H])[H])C([H])([H])C2([H])[H]

$$$$
62:1:2
     RDKit          3D

 82 86  0  0  1  0  0  0  0  0999 V2000
   -0.0523    1.5705    5.2785 C   0  0  0  0  0  0  0  0  0  0  0  0
    0.2271    1.3206    3.7788 C   0  0  0  0  0  0  0  0  0  0  0  0
   -0.9816    1.8414    2.9757 C   0  0  0  0  0  0  0  0  0  0  0  0
    1.4882    2.1113    3.3424 C   0  0  0  0  0  0  0  0  0  0  0  0
    2.7995    1.5118    3.9048 C   0  0  0  0  0  0  0  0  0  0  0  0
    3.0194    0.0067    3.5802 C   0  0  1  0  0  0  0  0  0  0  0  0
    3.3929   -0.1201    2.0633 C   0  0  0  0  0  0  0  0  0  0  0  0
    4.5373   -0.3627    1.6535 O   0  0  0  0  0  0  0  0  0  0  0  0
    2.3065    0.0619    1.2665 O   0  0  0  0  0  0  0  0  0  0  0  0
    4.1877   -0.5487    4.4257 C   0  0  0  0  0  0  0  0  0  0  0  0
    4.3177   -2.0988    4.4116 C   0  0  0  0  0  0  0  0  0  0  0  0
    3.0424   -2.8796    4.9008 C   0  0  1  0  0  0  0  0  0  0  0  0
    2.7524   -2.5042    6.3897 C   0  0  0  0  0  0  0  0  0  0  0  0
    1.8546   -2.3370    4.0340 C   0  0  2  0  0  0  0  0  0  0  0  0
    1.8883   -2.9199    2.6253 C   0  0  0  0  0  0  0  0  0  0  0  0
    1.8842   -4.4366    2.6311 C   0  0  0  0  0  0  0  0  0  0  0  0
    3.1417   -5.0469    3.3217 C   0  0  2  0  0  0  0  0  0  0  0  0
    3.1817   -6.6352    3.1141 C   0  0  1  0  0  0  0  0  0  0  0  0
    3.0183   -6.8769    1.5834 C   0  0  0  0  0  0  0  0  0  0  0  0
    4.5461   -7.3011    3.4817 C   0  0  0  0  0  0  0  0  0  0  0  0
    4.5676   -8.8385    3.3548 C   0  0  1  0  0  0  0  0  0  0  0  0
    5.8309   -9.3073    3.7982 O   0  0  0  0  0  0  0  0  0  0  0  0
    3.4217   -9.4676    4.1635 C   0  0  0  0  0  0  0  0  0  0  0  0
    3.6171  -10.3979    4.9509 O   0  0  0  0  0  0  0  0  0  0  0  0
    2.0009   -8.9041    3.9096 C   0  0  0  0  0  0  0  0  0  0  0  0
    1.4990   -9.4392    2.5438 C   0  0  0  0  0  0  0  0  0  0  0  0
    1.0105   -9.4754    4.9612 C   0  0  0  0  0  0  0  0  0  0  0  0
    2.0400   -7.3177    3.9662 C   0  0  1  0  0  0  0  0  0  0  0  0
    2.0970   -6.7786    5.4273 C   0  0  0  0  0  0  0  0  0  0  0  0
    2.0943   -5.2453    5.5799 C   0  0  0  0  0  0  0  0  0  0  0  0
    3.2193   -4.4914    4.8045 C   0  0  2  0  0  0  0  0  0  0  0  0
    4.5877   -4.8349    5.4652 C   0  0  0  0  0  0  0  0  0  0  0  0
    1.7377   -0.7727    4.0399 C   0  0  2  0  0  0  0  0  0  0  0  0
    0.3956   -0.2021    3.5029 C   0  0  0  0  0  0  0  0  0  0  0  0
   -0.2510    2.6265    5.4711 H   0  0  0  0  0  0  0  0  0  0  0  0
    0.7932    1.2900    5.9027 H   0  0  0  0  0  0  0  0  0  0  0  0
   -0.9128    0.9914    5.6138 H   0  0  0  0  0  0  0  0  0  0  0  0
   -0.8345    1.6976    1.9028 H   0  0  0  0  0  0  0  0  0  0  0  0
   -1.1395    2.9091    3.1388 H   0  0  0  0  0  0  0  0  0  0  0  0
   -1.8938    1.3189    3.2610 H   0  0  0  0  0  0  0  0  0  0  0  0
    1.5338    2.1732    2.2560 H   0  0  0  0  0  0  0  0  0  0  0  0
    1.4006    3.1562    3.6491 H   0  0  0  0  0  0  0  0  0  0  0  0
    3.6325    2.0983    3.5305 H   0  0  0  0  0  0  0  0  0  0  0  0
    2.8243    1.6586    4.9829 H   0  0  0  0  0  0  0  0  0  0  0  0
    2.4209   -0.1027    0.3282 H   0  0  0  0  0  0  0  0  0  0  0  0
    5.1257   -0.1232    4.0773 H   0  0  0  0  0  0  0  0  0  0  0  0
    4.0968   -0.1898    5.4474 H   0  0  0  0  0  0  0  0  0  0  0  0
    4.5742   -2.4206    3.4023 H   0  0  0  0  0  0  0  0  0  0  0  0
    5.1976   -2.3454    5.0077 H   0  0  0  0  0  0  0  0  0  0  0  0
    1.7467   -2.8048    6.6777 H   0  0  0  0  0  0  0  0  0  0  0  0
    2.8106   -1.4431    6.5956 H   0  0  0  0  0  0  0  0  0  0  0  0
    3.4368   -2.9643    7.0947 H   0  0  0  0  0  0  0  0  0  0  0  0
    0.9334   -2.7002    4.4847 H   0  0  0  0  0  0  0  0  0  0  0  0
    1.0194   -2.5422    2.0934 H   0  0  0  0  0  0  0  0  0  0  0  0
    2.7628   -2.6201    2.0551 H   0  0  0  0  0  0  0  0  0  0  0  0
    0.9640   -4.7894    3.0904 H   0  0  0  0  0  0  0  0  0  0  0  0
    1.8244   -4.7205    1.5843 H   0  0  0  0  0  0  0  0  0  0  0  0
    4.0064   -4.6521    2.7867 H   0  0  0  0  0  0  0  0  0  0  0  0
    3.4647   -7.7933    1.2170 H   0  0  0  0  0  0  0  0  0  0  0  0
    3.5186   -6.0952    1.0101 H   0  0  0  0  0  0  0  0  0  0  0  0
    1.9702   -6.9015    1.2817 H   0  0  0  0  0  0  0  0  0  0  0  0
    5.3556   -6.8633    2.9026 H   0  0  0  0  0  0  0  0  0  0  0  0
    4.7933   -7.1379    4.5176 H   0  0  0  0  0  0  0  0  0  0  0  0
    4.4565   -9.1751    2.3244 H   0  0  0  0  0  0  0  0  0  0  0  0
    6.4933   -9.0004    3.2131 H   0  0  0  0  0  0  0  0  0  0  0  0
    0.6723   -8.8452    2.1594 H   0  0  0  0  0  0  0  0  0  0  0  0
    1.1456  -10.4676    2.6229 H   0  0  0  0  0  0  0  0  0  0  0  0
    2.2711   -9.4705    1.7819 H   0  0  0  0  0  0  0  0  0  0  0  0
    0.0335   -8.9996    4.8834 H   0  0  0  0  0  0  0  0  0  0  0  0
    1.3721   -9.3474    5.9820 H   0  0  0  0  0  0  0  0  0  0  0  0
    0.8582  -10.5483    4.8374 H   0  0  0  0  0  0  0  0  0  0  0  0
    1.0786   -6.9919    3.5659 H   0  0  0  0  0  0  0  0  0  0  0  0
    1.2267   -7.1197    5.9779 H   0  0  0  0  0  0  0  0  0  0  0  0
    2.9493   -7.2067    5.9486 H   0  0  0  0  0  0  0  0  0  0  0  0
    1.1149   -4.8743    5.2807 H   0  0  0  0  0  0  0  0  0  0  0  0
    2.1684   -5.0352    6.6453 H   0  0  0  0  0  0  0  0  0  0  0  0
    4.5613   -5.7557    6.0348 H   0  0  0  0  0  0  0  0  0  0  0  0
    4.9217   -4.1081    6.1972 H   0  0  0  0  0  0  0  0  0  0  0  0
    5.3809   -4.8978    4.7238 H   0  0  0  0  0  0  0  0  0  0  0  0
    1.6580   -0.5355    5.0930 H   0  0  0  0  0  0  0  0  0  0  0  0
   -0.4365   -0.7487    3.9536 H   0  0  0  0  0  0  0  0  0  0  0  0
    0.2874   -0.3784    2.4365 H   0  0  0  0  0  0  0  0  0  0  0  0
  1  2  1  0
  1 35  1  0
  1 36  1  0
  1 37  1  0
  2 34  1  0
  2  3  1  0
  2  4  1  0
  3 38  1  0
  3 39  1  0
  3 40  1  0
  4  5  1  0
  4 41  1  0
  4 42  1  0
  5  6  1  0
  5 43  1  0
  5 44  1  0
  6 33  1  0
  6  7  1  6
  6 10  1  0
  7  8  2  0
  7  9  1  0
  9 45  1  0
 10 11  1  0
 10 46  1  0
 10 47  1  0
 11 12  1  0
 11 48  1  0
 11 49  1  0
 12 31  1  0
 12 13  1  1
 12 14  1  0
 13 50  1  0
 13 51  1  0
 13 52  1  0
 14 15  1  0
 14 33  1  0
 14 53  1  1
 15 16  1  0
 15 54  1  0
 15 55  1  0
 16 17  1  0
 16 56  1  0
 16 57  1  0
 17 31  1  0
 17 18  1  0
 17 58  1  6
 18 28  1  0
 18 19  1  6
 18 20  1  0
 19 59  1  0
 19 60  1  0
 19 61  1  0
 20 21  1  0
 20 62  1  0
 20 63  1  0
 21 22  1  0
 21 23  1  0
 21 64  1  6
 22 65  1  0
 23 24  2  0
 23 25  1  0
 25 26  1  0
 25 27  1  0
 25 28  1  0
 26 66  1  0
 26 67  1  0
 26 68  1  0
 27 69  1  0
 27 70  1  0
 27 71  1  0
 28 29  1  0
 28 72  1  6
 29 30  1  0
 29 73  1  0
 29 74  1  0
 30 31  1  0
 30 75  1  0
 30 76  1  0
 31 32  1  1
 32 77  1  0
 32 78  1  0
 32 79  1  0
 33 34  1  0
 33 80  1  1
 34 81  1  0
 34 82  1  0
M  END
>  <i_m_ct_stereo_status>  (210) 
1

>  <s_m_source_file>  (210) 
/var/tmp/pbs.5076255.sched01/tmpkd0wjm76/823hn9mkkz.sdf

>  <i_m_source_file_index>  (210) 
8

>  <i_lp_mmshare_version>  (210) 
48012

>  <i_f3d_flags>  (210) 
0

>  <s_epik_input>  (210) 
W0NIMl0xW0NIMl1DKFtDSDNdKShbQ0gzXSlbQ0gyXVtDQEhdKFtDQEBdMTJDKD1PKVtPSF0pW0NAQEhdM1tDQF0oW0NIM10pKFtDSDJdW0NIMl0yKVtDQF00KFtDSDNdKVtDQEhdKFtDSDJdW0NIMl0zKVtDQF01KFtDSDNdKVtDQEhdKFtDSDJdW0NIMl00KUMoW0NIM10pKFtDSDNdKUMoPU8pW0NAQEhdKFtDSDJdNSlbT0hd

>  <s_epik_cmdline>  (210) 
J2VwaWtfcHl0aG9uJywgJy1waHQnLCAnMi4wJywgJy1waCcsICc3LjAnLCAnLXRuJywgJzgnLCAnLW1hJywgJzIwMCcsICctaW1hZScsICc8aW5maWxlLm1hZT4nLCAnLW9tYWUnLCAnPG91dGZpbGUubWFlPic=

>  <r_epik_Ionization_Penalty>  (210) 
2.37841

>  <r_epik_Ionization_Penalty_Charging>  (210) 
0

>  <r_epik_Ionization_Penalty_Neutral>  (210) 
2.37841

>  <r_epik_State_Penalty>  (210) 
2.53471

>  <r_epik_Charging_Adjusted_Penalty>  (210) 
2.53471

>  <i_epik_Tot_Q>  (210) 
0

>  <i_epik_Tot_abs_Q>  (210) 
0

>  <s_lp_Force_Field>  (210) 
OPLS3e

>  <r_lp_Energy>  (210) 
108.049

>  <b_lp_Chiralities_Consistent>  (210) 
1

>  <s_lp_Variant>  (210) 
62:0-2

>  <s_i_glide_gridfile>  (210) 
pfpi4k_grid

>  <i_i_glide_lignum>  (210) 
8

>  <i_i_glide_rotatable_bonds>  (210) 
3

>  <r_i_docking_score>  (210) 
-1.77202

>  <r_i_glide_ligand_efficiency>  (210) 
-0.0521184

>  <r_i_glide_ligand_efficiency_sa>  (210) 
-0.168843

>  <r_i_glide_ligand_efficiency_ln>  (210) 
-0.39149

>  <r_i_glide_gscore>  (210) 
-1.77202

>  <r_i_glide_lipo>  (210) 
-0.130961

>  <r_i_glide_hbond>  (210) 
0

>  <r_i_glide_metal>  (210) 
-0

>  <r_i_glide_rewards>  (210) 
-0.193668

>  <r_i_glide_evdw>  (210) 
-26.7859

>  <r_i_glide_ecoul>  (210) 
-1.28799

>  <r_i_glide_erotb>  (210) 
0.0905011

>  <r_i_glide_esite>  (210) 
-0.00540336

>  <r_i_glide_emodel>  (210) 
-31.0696

>  <r_i_glide_energy>  (210) 
-28.0739

>  <r_i_glide_einternal>  (210) 
2.43136

>  <r_i_glide_intrahb_reward>  (210) 
-0

>  <i_i_glide_confnum>  (210) 
3

>  <i_i_glide_posenum>  (210) 
9

>  <r_i_glide_eff_state_penalty>  (210) 
0

>  <ligand_id>  (210) 
62

>  <original_smiles>  (210) 
CC1(C)CCC2(C(=O)O)CCC3(C)C(CCC4C5(C)CC(O)C(=O)C(C)(C)C5CCC43C)C2C1

>  <smiles>  (210) 
[H]OC(=O)C12C([H])([H])C([H])([H])C(C([H])([H])[H])(C([H])([H])[H])C([H])([H])C1([H])C1([H])C([H])([H])C([H])([H])C3([H])C4(C([H])([H])[H])C([H])([H])C([H])(O[H])C(=O)C(C([H])([H])[H])(C([H])([H])[H])C4([H])C([H])([H])C([H])([H])C3(C([H])([H])[H])C1(C([H])([H])[H])C([H])([H])C2([H])[H]

$$$$
63:0:0
     RDKit          3D

 43 46  0  0  1  0  0  0  0  0999 V2000
    2.3426   -5.6717    0.8685 C   0  0  0  0  0  0  0  0  0  0  0  0
    3.7915   -5.2861    0.5241 C   0  0  2  0  0  0  0  0  0  0  0  0
    4.7352   -6.0482    1.4510 C   0  0  0  0  0  0  0  0  0  0  0  0
    6.1822   -5.8160    1.0467 C   0  0  0  0  0  0  0  0  0  0  0  0
    6.5363   -4.3219    1.0015 C   0  0  1  0  0  0  0  0  0  0  0  0
    8.0237   -4.1370    0.6931 C   0  0  0  0  0  0  0  0  0  0  0  0
    8.8021   -5.0882    0.7370 O   0  0  0  0  0  0  0  0  0  0  0  0
    8.5006   -2.7903    0.4338 C   0  0  0  0  0  0  0  0  0  0  0  0
    7.6019   -1.7978    0.2572 C   0  0  0  0  0  0  0  0  0  0  0  0
    6.0945   -1.9216    0.1472 C   0  0  1  0  0  0  0  0  0  0  0  0
    5.5605   -1.1709    1.4027 C   0  0  0  0  0  0  0  0  0  0  0  0
    5.8362   -1.1647   -1.0325 O   0  0  0  0  0  0  0  0  0  0  0  0
    4.4018   -1.1917   -1.4212 O   0  0  0  0  0  0  0  0  0  0  0  0
    4.2385   -2.3182   -2.2421 C   0  0  2  0  0  0  0  0  0  0  0  0
    3.8868   -1.9048   -3.6930 C   0  0  0  0  0  0  0  0  0  0  0  0
    3.0129   -2.9954   -1.6202 C   0  0  0  0  0  0  0  0  0  0  0  0
    3.0198   -2.9270   -0.0917 C   0  0  0  0  0  0  0  0  0  0  0  0
    4.1184   -3.7528    0.5800 C   0  0  2  0  0  0  0  0  0  0  0  0
    5.5873   -3.4400    0.0890 C   0  0  2  0  0  0  0  0  0  0  0  0
    5.6058   -4.0545   -1.2029 O   0  0  0  0  0  0  0  0  0  0  0  0
    5.4557   -3.0527   -2.3438 O   0  0  0  0  0  0  0  0  0  0  0  0
    2.0241   -5.2380    1.8140 H   0  0  0  0  0  0  0  0  0  0  0  0
    2.2358   -6.7523    0.9450 H   0  0  0  0  0  0  0  0  0  0  0  0
    1.6567   -5.3598    0.0825 H   0  0  0  0  0  0  0  0  0  0  0  0
    3.9708   -5.6493   -0.4882 H   0  0  0  0  0  0  0  0  0  0  0  0
    4.5840   -5.7298    2.4870 H   0  0  0  0  0  0  0  0  0  0  0  0
    4.5233   -7.1198    1.4202 H   0  0  0  0  0  0  0  0  0  0  0  0
    6.8288   -6.3397    1.7454 H   0  0  0  0  0  0  0  0  0  0  0  0
    6.3590   -6.2461    0.0748 H   0  0  0  0  0  0  0  0  0  0  0  0
    6.4171   -3.9472    2.0263 H   0  0  0  0  0  0  0  0  0  0  0  0
    9.5540   -2.5881    0.4452 H   0  0  0  0  0  0  0  0  0  0  0  0
    7.9884   -0.7994    0.1395 H   0  0  0  0  0  0  0  0  0  0  0  0
    5.8208   -1.7158    2.3092 H   0  0  0  0  0  0  0  0  0  0  0  0
    4.4863   -1.0181    1.4447 H   0  0  0  0  0  0  0  0  0  0  0  0
    6.0090   -0.1845    1.5173 H   0  0  0  0  0  0  0  0  0  0  0  0
    4.7361   -1.4597   -4.1962 H   0  0  0  0  0  0  0  0  0  0  0  0
    3.0569   -1.1957   -3.7379 H   0  0  0  0  0  0  0  0  0  0  0  0
    3.5834   -2.7803   -4.2699 H   0  0  0  0  0  0  0  0  0  0  0  0
    2.1420   -2.4014   -1.9261 H   0  0  0  0  0  0  0  0  0  0  0  0
    2.8132   -3.9903   -2.0085 H   0  0  0  0  0  0  0  0  0  0  0  0
    3.0450   -1.8887    0.2370 H   0  0  0  0  0  0  0  0  0  0  0  0
    2.0345   -3.2082    0.2828 H   0  0  0  0  0  0  0  0  0  0  0  0
    4.0616   -3.4753    1.6345 H   0  0  0  0  0  0  0  0  0  0  0  0
  1  2  1  0
  1 22  1  0
  1 23  1  0
  1 24  1  0
  2 18  1  0
  2  3  1  0
  2 25  1  6
  3  4  1  0
  3 26  1  0
  3 27  1  0
  4  5  1  0
  4 28  1  0
  4 29  1  0
  5 19  1  0
  5  6  1  0
  5 30  1  1
  6  7  2  0
  6  8  1  0
  8  9  2  0
  8 31  1  0
  9 10  1  0
  9 32  1  0
 10 19  1  0
 10 11  1  1
 10 12  1  0
 11 33  1  0
 11 34  1  0
 11 35  1  0
 12 13  1  0
 13 14  1  0
 14 21  1  0
 14 15  1  6
 14 16  1  0
 15 36  1  0
 15 37  1  0
 15 38  1  0
 16 17  1  0
 16 39  1  0
 16 40  1  0
 17 18  1  0
 17 41  1  0
 17 42  1  0
 18 19  1  0
 18 43  1  1
 19 20  1  6
 20 21  1  0
M  END
>  <i_m_ct_stereo_status>  (211) 
1

>  <s_m_source_file>  (211) 
/var/tmp/pbs.5076255.sched01/tmpkd0wjm76/823hn9mkkz.sdf

>  <i_m_source_file_index>  (211) 
9

>  <i_lp_mmshare_version>  (211) 
48012

>  <i_f3d_flags>  (211) 
0

>  <s_epik_input>  (211) 
W0NAQF0xMjNbQ0BIXTRbQ0gyXVtDSDJdW0NAQEhdKFtDSDNdKVtDQEBIXTJbQ0gyXVtDSDJdW0NAXShbQ0gzXSkoT08zKU9PW0NAXTEoW0NIM10pW0NIXT1bQ0hdQzQ9Tw==

>  <s_epik_cmdline>  (211) 
J2VwaWtfcHl0aG9uJywgJy1waHQnLCAnMi4wJywgJy1waCcsICc3LjAnLCAnLXRuJywgJzgnLCAnLW1hJywgJzIwMCcsICctaW1hZScsICc8aW5maWxlLm1hZT4nLCAnLW9tYWUnLCAnPG91dGZpbGUubWFlPic=

>  <r_lp_tautomer_probability>  (211) 
1

>  <r_epik_Ionization_Penalty>  (211) 
0

>  <r_epik_Ionization_Penalty_Charging>  (211) 
0

>  <r_epik_Ionization_Penalty_Neutral>  (211) 
0

>  <r_epik_State_Penalty>  (211) 
-0

>  <r_epik_Charging_Adjusted_Penalty>  (211) 
0

>  <i_epik_Tot_Q>  (211) 
0

>  <i_epik_Tot_abs_Q>  (211) 
0

>  <s_lp_Force_Field>  (211) 
OPLS3e

>  <r_lp_Energy>  (211) 
24.4366

>  <b_lp_Chiralities_Consistent>  (211) 
1

>  <s_lp_Variant>  (211) 
63:0-1

>  <s_i_glide_gridfile>  (211) 
pfpi4k_grid

>  <i_i_glide_lignum>  (211) 
9

>  <i_i_glide_rotatable_bonds>  (211) 
0

>  <r_i_docking_score>  (211) 
-4.0917

>  <r_i_glide_ligand_efficiency>  (211) 
-0.194843

>  <r_i_glide_ligand_efficiency_sa>  (211) 
-0.537556

>  <r_i_glide_ligand_efficiency_ln>  (211) 
-1.01166

>  <r_i_glide_gscore>  (211) 
-4.0917

>  <r_i_glide_lipo>  (211) 
-0.814048

>  <r_i_glide_hbond>  (211) 
-0.0677379

>  <r_i_glide_metal>  (211) 
-0

>  <r_i_glide_rewards>  (211) 
-1.68357

>  <r_i_glide_evdw>  (211) 
-27.511

>  <r_i_glide_ecoul>  (211) 
-1.00528

>  <r_i_glide_erotb>  (211) 
0

>  <r_i_glide_esite>  (211) 
0

>  <r_i_glide_emodel>  (211) 
-35.0512

>  <r_i_glide_energy>  (211) 
-28.5163

>  <r_i_glide_einternal>  (211) 
0

>  <r_i_glide_intrahb_reward>  (211) 
-0

>  <i_i_glide_confnum>  (211) 
1

>  <i_i_glide_posenum>  (211) 
1

>  <r_i_glide_eff_state_penalty>  (211) 
0

>  <ligand_id>  (211) 
63

>  <original_smiles>  (211) 
CC1CCC2C(=O)C=CC3(C)OOC4(C)CCC1C23OO4

>  <smiles>  (211) 
[H]C1=C([H])C2(C([H])([H])[H])OOC3(C([H])([H])[H])OOC24C([H])(C1=O)C([H])([H])C([H])([H])C([H])(C([H])([H])[H])C4([H])C([H])([H])C3([H])[H]

$$$$
63:0:1
     RDKit          3D

 43 46  0  0  1  0  0  0  0  0999 V2000
    2.0008   -2.1633    2.0333 C   0  0  0  0  0  0  0  0  0  0  0  0
    3.1724   -3.0803    1.6549 C   0  0  2  0  0  0  0  0  0  0  0  0
    3.6646   -3.7661    2.9265 C   0  0  0  0  0  0  0  0  0  0  0  0
    4.7246   -4.8034    2.6024 C   0  0  0  0  0  0  0  0  0  0  0  0
    5.8994   -4.1741    1.8120 C   0  0  1  0  0  0  0  0  0  0  0  0
    7.0220   -5.2050    1.6227 C   0  0  0  0  0  0  0  0  0  0  0  0
    7.0039   -6.2669    2.2311 O   0  0  0  0  0  0  0  0  0  0  0  0
    8.1303   -4.8492    0.7460 C   0  0  0  0  0  0  0  0  0  0  0  0
    8.0469   -3.7367   -0.0185 C   0  0  0  0  0  0  0  0  0  0  0  0
    6.8303   -2.8381   -0.1959 C   0  0  1  0  0  0  0  0  0  0  0  0
    7.2609   -1.4833    0.4157 C   0  0  0  0  0  0  0  0  0  0  0  0
    6.7903   -2.7311   -1.6173 O   0  0  0  0  0  0  0  0  0  0  0  0
    5.5925   -1.9530   -2.0895 O   0  0  0  0  0  0  0  0  0  0  0  0
    4.5267   -2.8748   -2.2056 C   0  0  2  0  0  0  0  0  0  0  0  0
    4.0947   -3.0387   -3.6641 C   0  0  0  0  0  0  0  0  0  0  0  0
    3.4031   -2.1571   -1.4381 C   0  0  0  0  0  0  0  0  0  0  0  0
    3.8805   -1.4393   -0.1788 C   0  0  0  0  0  0  0  0  0  0  0  0
    4.3723   -2.3768    0.9299 C   0  0  2  0  0  0  0  0  0  0  0  0
    5.4880   -3.4122    0.4885 C   0  0  2  0  0  0  0  0  0  0  0  0
    4.7263   -4.3673   -0.2751 O   0  0  0  0  0  0  0  0  0  0  0  0
    4.9203   -4.1784   -1.7779 O   0  0  0  0  0  0  0  0  0  0  0  0
    2.3224   -1.2749    2.5694 H   0  0  0  0  0  0  0  0  0  0  0  0
    1.2751   -2.6904    2.6441 H   0  0  0  0  0  0  0  0  0  0  0  0
    1.4553   -1.8515    1.1465 H   0  0  0  0  0  0  0  0  0  0  0  0
    2.7654   -3.8511    1.0013 H   0  0  0  0  0  0  0  0  0  0  0  0
    4.0641   -3.0223    3.6193 H   0  0  0  0  0  0  0  0  0  0  0  0
    2.8371   -4.2581    3.4409 H   0  0  0  0  0  0  0  0  0  0  0  0
    5.0895   -5.2228    3.5333 H   0  0  0  0  0  0  0  0  0  0  0  0
    4.2849   -5.6187    2.0330 H   0  0  0  0  0  0  0  0  0  0  0  0
    6.3299   -3.4065    2.4621 H   0  0  0  0  0  0  0  0  0  0  0  0
    9.0205   -5.4526    0.7784 H   0  0  0  0  0  0  0  0  0  0  0  0
    8.8905   -3.4826   -0.6491 H   0  0  0  0  0  0  0  0  0  0  0  0
    7.3474   -1.5634    1.4964 H   0  0  0  0  0  0  0  0  0  0  0  0
    6.5862   -0.6551    0.2450 H   0  0  0  0  0  0  0  0  0  0  0  0
    8.2443   -1.1662    0.0745 H   0  0  0  0  0  0  0  0  0  0  0  0
    4.8374   -3.5916   -4.2458 H   0  0  0  0  0  0  0  0  0  0  0  0
    3.9122   -2.0805   -4.1594 H   0  0  0  0  0  0  0  0  0  0  0  0
    3.1559   -3.6037   -3.7284 H   0  0  0  0  0  0  0  0  0  0  0  0
    3.0275   -1.3479   -2.0870 H   0  0  0  0  0  0  0  0  0  0  0  0
    2.5269   -2.7912   -1.2595 H   0  0  0  0  0  0  0  0  0  0  0  0
    4.6358   -0.6986   -0.4329 H   0  0  0  0  0  0  0  0  0  0  0  0
    3.0914   -0.7785    0.1831 H   0  0  0  0  0  0  0  0  0  0  0  0
    4.8273   -1.7152    1.6719 H   0  0  0  0  0  0  0  0  0  0  0  0
  1  2  1  0
  1 22  1  0
  1 23  1  0
  1 24  1  0
  2 18  1  0
  2  3  1  0
  2 25  1  6
  3  4  1  0
  3 26  1  0
  3 27  1  0
  4  5  1  0
  4 28  1  0
  4 29  1  0
  5 19  1  0
  5  6  1  0
  5 30  1  1
  6  7  2  0
  6  8  1  0
  8  9  2  0
  8 31  1  0
  9 10  1  0
  9 32  1  0
 10 19  1  0
 10 11  1  1
 10 12  1  0
 11 33  1  0
 11 34  1  0
 11 35  1  0
 12 13  1  0
 13 14  1  0
 14 21  1  0
 14 15  1  6
 14 16  1  0
 15 36  1  0
 15 37  1  0
 15 38  1  0
 16 17  1  0
 16 39  1  0
 16 40  1  0
 17 18  1  0
 17 41  1  0
 17 42  1  0
 18 19  1  0
 18 43  1  1
 19 20  1  6
 20 21  1  0
M  END
>  <i_m_ct_stereo_status>  (212) 
1

>  <s_m_source_file>  (212) 
/var/tmp/pbs.5076255.sched01/tmpkd0wjm76/823hn9mkkz.sdf

>  <i_m_source_file_index>  (212) 
9

>  <i_lp_mmshare_version>  (212) 
48012

>  <i_f3d_flags>  (212) 
0

>  <s_epik_input>  (212) 
W0NAQF0xMjNbQ0BIXTRbQ0gyXVtDSDJdW0NAQEhdKFtDSDNdKVtDQEBIXTJbQ0gyXVtDSDJdW0NAXShbQ0gzXSkoT08zKU9PW0NAXTEoW0NIM10pW0NIXT1bQ0hdQzQ9Tw==

>  <s_epik_cmdline>  (212) 
J2VwaWtfcHl0aG9uJywgJy1waHQnLCAnMi4wJywgJy1waCcsICc3LjAnLCAnLXRuJywgJzgnLCAnLW1hJywgJzIwMCcsICctaW1hZScsICc8aW5maWxlLm1hZT4nLCAnLW9tYWUnLCAnPG91dGZpbGUubWFlPic=

>  <r_lp_tautomer_probability>  (212) 
1

>  <r_epik_Ionization_Penalty>  (212) 
0

>  <r_epik_Ionization_Penalty_Charging>  (212) 
0

>  <r_epik_Ionization_Penalty_Neutral>  (212) 
0

>  <r_epik_State_Penalty>  (212) 
-0

>  <r_epik_Charging_Adjusted_Penalty>  (212) 
0

>  <i_epik_Tot_Q>  (212) 
0

>  <i_epik_Tot_abs_Q>  (212) 
0

>  <s_lp_Force_Field>  (212) 
OPLS3e

>  <r_lp_Energy>  (212) 
24.4366

>  <b_lp_Chiralities_Consistent>  (212) 
1

>  <s_lp_Variant>  (212) 
63:0-1

>  <s_i_glide_gridfile>  (212) 
pfpi4k_grid

>  <i_i_glide_lignum>  (212) 
9

>  <i_i_glide_rotatable_bonds>  (212) 
0

>  <r_i_docking_score>  (212) 
-3.58227

>  <r_i_glide_ligand_efficiency>  (212) 
-0.170585

>  <r_i_glide_ligand_efficiency_sa>  (212) 
-0.47063

>  <r_i_glide_ligand_efficiency_ln>  (212) 
-0.88571

>  <r_i_glide_gscore>  (212) 
-3.58227

>  <r_i_glide_lipo>  (212) 
-0.686576

>  <r_i_glide_hbond>  (212) 
-0.0421822

>  <r_i_glide_metal>  (212) 
-0

>  <r_i_glide_rewards>  (212) 
-1.554

>  <r_i_glide_evdw>  (212) 
-25.5484

>  <r_i_glide_ecoul>  (212) 
-0.147345

>  <r_i_glide_erotb>  (212) 
0

>  <r_i_glide_esite>  (212) 
0

>  <r_i_glide_emodel>  (212) 
-31.3686

>  <r_i_glide_energy>  (212) 
-25.6957

>  <r_i_glide_einternal>  (212) 
0

>  <r_i_glide_intrahb_reward>  (212) 
-0

>  <i_i_glide_confnum>  (212) 
1

>  <i_i_glide_posenum>  (212) 
29

>  <r_i_glide_eff_state_penalty>  (212) 
0

>  <ligand_id>  (212) 
63

>  <original_smiles>  (212) 
CC1CCC2C(=O)C=CC3(C)OOC4(C)CCC1C23OO4

>  <smiles>  (212) 
[H]C1=C([H])C2(C([H])([H])[H])OOC3(C([H])([H])[H])OOC24C([H])(C1=O)C([H])([H])C([H])([H])C([H])(C([H])([H])[H])C4([H])C([H])([H])C3([H])[H]

$$$$
63:0:2
     RDKit          3D

 43 46  0  0  1  0  0  0  0  0999 V2000
    3.4140    0.2767    1.8558 C   0  0  0  0  0  0  0  0  0  0  0  0
    3.1095   -1.2196    1.7172 C   0  0  2  0  0  0  0  0  0  0  0  0
    2.7681   -1.7798    3.0998 C   0  0  0  0  0  0  0  0  0  0  0  0
    2.2981   -3.2173    2.9931 C   0  0  0  0  0  0  0  0  0  0  0  0
    3.3423   -4.1050    2.2888 C   0  0  1  0  0  0  0  0  0  0  0  0
    2.9050   -5.5688    2.2917 C   0  0  0  0  0  0  0  0  0  0  0  0
    1.9262   -5.9326    2.9793 O   0  0  0  0  0  0  0  0  0  0  0  0
    3.6679   -6.5123    1.4971 C   0  0  0  0  0  0  0  0  0  0  0  0
    4.5730   -6.0777    0.6290 C   0  0  0  0  0  0  0  0  0  0  0  0
    4.8617   -4.6161    0.2655 C   0  0  1  0  0  0  0  0  0  0  0  0
    6.2997   -4.3601    0.7747 C   0  0  0  0  0  0  0  0  0  0  0  0
    4.8830   -4.7080   -1.1573 O   0  0  0  0  0  0  0  0  0  0  0  0
    5.0235   -3.3820   -1.8402 O   0  0  0  0  0  0  0  0  0  0  0  0
    3.7274   -2.8215   -1.9791 C   0  0  2  0  0  0  0  0  0  0  0  0
    3.3372   -2.7299   -3.4561 C   0  0  0  0  0  0  0  0  0  0  0  0
    3.9254   -1.4064   -1.4070 C   0  0  0  0  0  0  0  0  0  0  0  0
    4.8276   -1.3769   -0.1718 C   0  0  0  0  0  0  0  0  0  0  0  0
    4.2432   -2.0757    1.0670 C   0  0  2  0  0  0  0  0  0  0  0  0
    3.7895   -3.5818    0.8631 C   0  0  2  0  0  0  0  0  0  0  0  0
    2.5707   -3.4166    0.1055 O   0  0  0  0  0  0  0  0  0  0  0  0
    2.7388   -3.6773   -1.3708 O   0  0  0  0  0  0  0  0  0  0  0  0
    4.3742    0.4448    2.3450 H   0  0  0  0  0  0  0  0  0  0  0  0
    2.6513    0.7792    2.4431 H   0  0  0  0  0  0  0  0  0  0  0  0
    3.4262    0.7756    0.8856 H   0  0  0  0  0  0  0  0  0  0  0  0
    2.2118   -1.2868    1.1003 H   0  0  0  0  0  0  0  0  0  0  0  0
    3.6381   -1.7189    3.7562 H   0  0  0  0  0  0  0  0  0  0  0  0
    1.9815   -1.1862    3.5672 H   0  0  0  0  0  0  0  0  0  0  0  0
    2.1084   -3.5978    3.9951 H   0  0  0  0  0  0  0  0  0  0  0  0
    1.3474   -3.2521    2.4636 H   0  0  0  0  0  0  0  0  0  0  0  0
    4.2452   -4.0863    2.9054 H   0  0  0  0  0  0  0  0  0  0  0  0
    3.5204   -7.5783    1.6771 H   0  0  0  0  0  0  0  0  0  0  0  0
    5.1509   -6.8082    0.0700 H   0  0  0  0  0  0  0  0  0  0  0  0
    6.3003   -4.3613    1.8572 H   0  0  0  0  0  0  0  0  0  0  0  0
    6.7305   -3.4184    0.4689 H   0  0  0  0  0  0  0  0  0  0  0  0
    6.9927   -5.1339    0.4636 H   0  0  0  0  0  0  0  0  0  0  0  0
    3.1475   -3.7148   -3.8837 H   0  0  0  0  0  0  0  0  0  0  0  0
    4.0971   -2.2318   -4.0539 H   0  0  0  0  0  0  0  0  0  0  0  0
    2.4182   -2.1526   -3.5603 H   0  0  0  0  0  0  0  0  0  0  0  0
    4.4488   -0.8226   -2.1695 H   0  0  0  0  0  0  0  0  0  0  0  0
    2.9870   -0.8943   -1.2503 H   0  0  0  0  0  0  0  0  0  0  0  0
    5.8050   -1.7783   -0.4165 H   0  0  0  0  0  0  0  0  0  0  0  0
    5.0942   -0.3486    0.0472 H   0  0  0  0  0  0  0  0  0  0  0  0
    5.0639   -2.1010    1.7802 H   0  0  0  0  0  0  0  0  0  0  0  0
  1  2  1  0
  1 22  1  0
  1 23  1  0
  1 24  1  0
  2 18  1  0
  2  3  1  0
  2 25  1  6
  3  4  1  0
  3 26  1  0
  3 27  1  0
  4  5  1  0
  4 28  1  0
  4 29  1  0
  5 19  1  0
  5  6  1  0
  5 30  1  1
  6  7  2  0
  6  8  1  0
  8  9  2  0
  8 31  1  0
  9 10  1  0
  9 32  1  0
 10 19  1  0
 10 11  1  1
 10 12  1  0
 11 33  1  0
 11 34  1  0
 11 35  1  0
 12 13  1  0
 13 14  1  0
 14 21  1  0
 14 15  1  6
 14 16  1  0
 15 36  1  0
 15 37  1  0
 15 38  1  0
 16 17  1  0
 16 39  1  0
 16 40  1  0
 17 18  1  0
 17 41  1  0
 17 42  1  0
 18 19  1  0
 18 43  1  1
 19 20  1  6
 20 21  1  0
M  END
>  <i_m_ct_stereo_status>  (213) 
1

>  <s_m_source_file>  (213) 
/var/tmp/pbs.5076255.sched01/tmpkd0wjm76/823hn9mkkz.sdf

>  <i_m_source_file_index>  (213) 
9

>  <i_lp_mmshare_version>  (213) 
48012

>  <i_f3d_flags>  (213) 
0

>  <s_epik_input>  (213) 
W0NAQF0xMjNbQ0BIXTRbQ0gyXVtDSDJdW0NAQEhdKFtDSDNdKVtDQEBIXTJbQ0gyXVtDSDJdW0NAXShbQ0gzXSkoT08zKU9PW0NAXTEoW0NIM10pW0NIXT1bQ0hdQzQ9Tw==

>  <s_epik_cmdline>  (213) 
J2VwaWtfcHl0aG9uJywgJy1waHQnLCAnMi4wJywgJy1waCcsICc3LjAnLCAnLXRuJywgJzgnLCAnLW1hJywgJzIwMCcsICctaW1hZScsICc8aW5maWxlLm1hZT4nLCAnLW9tYWUnLCAnPG91dGZpbGUubWFlPic=

>  <r_lp_tautomer_probability>  (213) 
1

>  <r_epik_Ionization_Penalty>  (213) 
0

>  <r_epik_Ionization_Penalty_Charging>  (213) 
0

>  <r_epik_Ionization_Penalty_Neutral>  (213) 
0

>  <r_epik_State_Penalty>  (213) 
-0

>  <r_epik_Charging_Adjusted_Penalty>  (213) 
0

>  <i_epik_Tot_Q>  (213) 
0

>  <i_epik_Tot_abs_Q>  (213) 
0

>  <s_lp_Force_Field>  (213) 
OPLS3e

>  <r_lp_Energy>  (213) 
24.4366

>  <b_lp_Chiralities_Consistent>  (213) 
1

>  <s_lp_Variant>  (213) 
63:0-1

>  <s_i_glide_gridfile>  (213) 
pfpi4k_grid

>  <i_i_glide_lignum>  (213) 
9

>  <i_i_glide_rotatable_bonds>  (213) 
0

>  <r_i_docking_score>  (213) 
-3.00021

>  <r_i_glide_ligand_efficiency>  (213) 
-0.142867

>  <r_i_glide_ligand_efficiency_sa>  (213) 
-0.394159

>  <r_i_glide_ligand_efficiency_ln>  (213) 
-0.741795

>  <r_i_glide_gscore>  (213) 
-3.00021

>  <r_i_glide_lipo>  (213) 
-0.559702

>  <r_i_glide_hbond>  (213) 
0

>  <r_i_glide_metal>  (213) 
-0

>  <r_i_glide_rewards>  (213) 
-1.40221

>  <r_i_glide_evdw>  (213) 
-24.5504

>  <r_i_glide_ecoul>  (213) 
1.41166

>  <r_i_glide_erotb>  (213) 
0

>  <r_i_glide_esite>  (213) 
-0.022527

>  <r_i_glide_emodel>  (213) 
-27.8079

>  <r_i_glide_energy>  (213) 
-23.1388

>  <r_i_glide_einternal>  (213) 
0

>  <r_i_glide_intrahb_reward>  (213) 
-0

>  <i_i_glide_confnum>  (213) 
2

>  <i_i_glide_posenum>  (213) 
17

>  <r_i_glide_eff_state_penalty>  (213) 
0

>  <ligand_id>  (213) 
63

>  <original_smiles>  (213) 
CC1CCC2C(=O)C=CC3(C)OOC4(C)CCC1C23OO4

>  <smiles>  (213) 
[H]C1=C([H])C2(C([H])([H])[H])OOC3(C([H])([H])[H])OOC24C([H])(C1=O)C([H])([H])C([H])([H])C([H])(C([H])([H])[H])C4([H])C([H])([H])C3([H])[H]

$$$$
64:0:0
     RDKit          3D

 51 56  0  0  1  0  0  0  0  0999 V2000
    2.6420   -0.0926    4.7698 C   0  0  0  0  0  0  0  0  0  0  0  0
    3.5017   -1.3672    4.6559 C   0  0  2  0  0  0  0  0  0  0  0  0
    5.0163   -1.0065    4.6405 C   0  0  0  0  0  0  0  0  0  0  0  0
    5.5155   -0.4582    3.2919 C   0  0  0  0  0  0  0  0  0  0  0  0
    5.2434   -1.4629    2.1628 C   0  0  2  0  0  0  0  0  0  0  0  0
    6.0102   -1.0885    0.8609 C   0  0  0  0  0  0  0  0  0  0  0  0
    6.2483   -2.3684    0.1048 C   0  0  2  0  0  0  0  0  0  0  0  0
    6.4789   -2.5270   -1.2841 O   0  0  0  0  0  0  0  0  0  0  0  0
    5.1529   -2.8809   -0.7985 C   0  0  1  0  0  0  0  0  0  0  0  0
    4.6150   -4.1404   -0.1306 C   0  0  0  0  0  0  0  0  0  0  0  0
    3.1905   -3.7658    0.3418 C   0  0  2  0  0  0  0  0  0  0  0  0
    2.3934   -3.8541   -0.8402 O   0  0  0  0  0  0  0  0  0  0  0  0
    2.8573   -2.9941   -1.9011 C   0  0  0  0  0  0  0  0  0  0  0  0
    3.9921   -2.0642   -1.3837 C   0  0  2  0  0  0  0  0  0  0  0  0
    4.4029   -1.0257   -2.4342 C   0  0  0  0  0  0  0  0  0  0  0  0
    3.4214   -1.3768   -0.2771 O   0  0  0  0  0  0  0  0  0  0  0  0
    3.0352   -2.2556    0.7890 C   0  0  2  0  0  0  0  0  0  0  0  0
    3.6937   -1.6656    2.0745 C   0  0  1  0  0  0  0  0  0  0  0  0
    3.1163   -2.2154    3.4139 C   0  0  1  0  0  0  0  0  0  0  0  0
    3.4703   -3.6743    3.7862 C   0  0  0  0  0  0  0  0  0  0  0  0
    3.5631   -3.7294    5.3207 C   0  0  0  0  0  0  0  0  0  0  0  0
    3.1560   -2.3365    5.8075 C   0  0  1  0  0  0  0  0  0  0  0  0
    3.7426   -1.9986    7.0503 O   0  0  0  0  0  0  0  0  0  0  0  0
    2.8568    0.4419    5.6957 H   0  0  0  0  0  0  0  0  0  0  0  0
    1.5774   -0.3315    4.7772 H   0  0  0  0  0  0  0  0  0  0  0  0
    2.8154    0.5954    3.9443 H   0  0  0  0  0  0  0  0  0  0  0  0
    5.2247   -0.2665    5.4110 H   0  0  0  0  0  0  0  0  0  0  0  0
    5.6083   -1.8852    4.8934 H   0  0  0  0  0  0  0  0  0  0  0  0
    5.0386    0.4990    3.0774 H   0  0  0  0  0  0  0  0  0  0  0  0
    6.5849   -0.2471    3.3567 H   0  0  0  0  0  0  0  0  0  0  0  0
    5.6817   -2.4017    2.5051 H   0  0  0  0  0  0  0  0  0  0  0  0
    5.4936   -0.3440    0.2610 H   0  0  0  0  0  0  0  0  0  0  0  0
    6.9874   -0.6703    1.0934 H   0  0  0  0  0  0  0  0  0  0  0  0
    6.8584   -3.0796    0.6671 H   0  0  0  0  0  0  0  0  0  0  0  0
    4.6164   -4.9801   -0.8261 H   0  0  0  0  0  0  0  0  0  0  0  0
    5.2007   -4.4309    0.7390 H   0  0  0  0  0  0  0  0  0  0  0  0
    2.8038   -4.4699    1.0831 H   0  0  0  0  0  0  0  0  0  0  0  0
    3.2327   -3.6102   -2.7231 H   0  0  0  0  0  0  0  0  0  0  0  0
    2.0207   -2.4167   -2.2992 H   0  0  0  0  0  0  0  0  0  0  0  0
    4.8307   -1.5035   -3.3170 H   0  0  0  0  0  0  0  0  0  0  0  0
    5.1337   -0.3197   -2.0329 H   0  0  0  0  0  0  0  0  0  0  0  0
    3.5237   -0.4524   -2.7414 H   0  0  0  0  0  0  0  0  0  0  0  0
    1.9617   -2.1058    0.9157 H   0  0  0  0  0  0  0  0  0  0  0  0
    3.3134   -0.6447    2.0293 H   0  0  0  0  0  0  0  0  0  0  0  0
    2.0279   -2.1792    3.3405 H   0  0  0  0  0  0  0  0  0  0  0  0
    2.7005   -4.3593    3.4280 H   0  0  0  0  0  0  0  0  0  0  0  0
    4.4137   -4.0014    3.3509 H   0  0  0  0  0  0  0  0  0  0  0  0
    2.9236   -4.5030    5.7463 H   0  0  0  0  0  0  0  0  0  0  0  0
    4.5871   -3.9652    5.6155 H   0  0  0  0  0  0  0  0  0  0  0  0
    2.0771   -2.3454    5.9544 H   0  0  0  0  0  0  0  0  0  0  0  0
    4.6796   -2.0381    6.9556 H   0  0  0  0  0  0  0  0  0  0  0  0
  2  1  1  1
  1 24  1  0
  1 25  1  0
  1 26  1  0
  2 19  1  0
  2 22  1  0
  2  3  1  0
  3  4  1  0
  3 27  1  0
  3 28  1  0
  4  5  1  0
  4 29  1  0
  4 30  1  0
  5 18  1  0
  5  6  1  0
  5 31  1  1
  6  7  1  0
  6 32  1  0
  6 33  1  0
  7  9  1  0
  7  8  1  0
  7 34  1  1
  9  8  1  6
  9 14  1  0
  9 10  1  0
 10 11  1  0
 10 35  1  0
 10 36  1  0
 11 17  1  0
 11 12  1  0
 11 37  1  1
 12 13  1  0
 13 14  1  0
 13 38  1  0
 13 39  1  0
 14 15  1  6
 14 16  1  0
 15 40  1  0
 15 41  1  0
 15 42  1  0
 16 17  1  0
 17 18  1  0
 17 43  1  1
 18 19  1  0
 18 44  1  1
 19 20  1  0
 19 45  1  6
 20 21  1  0
 20 46  1  0
 20 47  1  0
 21 22  1  0
 21 48  1  0
 21 49  1  0
 22 23  1  0
 22 50  1  1
 23 51  1  0
M  END
>  <i_m_ct_stereo_status>  (214) 
1

>  <s_m_source_file>  (214) 
/var/tmp/pbs.5076255.sched01/tmpkd0wjm76/823hn9mkkz.sdf

>  <i_m_source_file_index>  (214) 
10

>  <i_lp_mmshare_version>  (214) 
48012

>  <i_f3d_flags>  (214) 
0

>  <s_epik_input>  (214) 
W0NIMl0xW0NIMl1bQ0BASF0oW09IXSlbQ0BAXShbQ0gzXSkoW0NIMl1bQ0gyXTIpW0NASF0xW0NAQEhdKFtDQEhdMltDSDJdW0NASF0oTzMpW0NAQF0zNDUpW0NAQEhdNltDQEhdKFtDSDJdNClPW0NIMl1bQ0BdNShPNilbQ0gzXQ==

>  <s_epik_cmdline>  (214) 
J2VwaWtfcHl0aG9uJywgJy1waHQnLCAnMi4wJywgJy1waCcsICc3LjAnLCAnLXRuJywgJzgnLCAnLW1hJywgJzIwMCcsICctaW1hZScsICc8aW5maWxlLm1hZT4nLCAnLW9tYWUnLCAnPG91dGZpbGUubWFlPic=

>  <r_lp_tautomer_probability>  (214) 
1

>  <r_epik_Ionization_Penalty>  (214) 
2.0369e-06

>  <r_epik_Ionization_Penalty_Charging>  (214) 
0

>  <r_epik_Ionization_Penalty_Neutral>  (214) 
2.0369e-06

>  <r_epik_State_Penalty>  (214) 
-0

>  <r_epik_Charging_Adjusted_Penalty>  (214) 
0

>  <i_epik_Tot_Q>  (214) 
0

>  <i_epik_Tot_abs_Q>  (214) 
0

>  <s_lp_Force_Field>  (214) 
OPLS3e

>  <r_lp_Energy>  (214) 
78.4715

>  <b_lp_Chiralities_Consistent>  (214) 
1

>  <s_lp_Variant>  (214) 
64:0-1

>  <s_i_glide_gridfile>  (214) 
pfpi4k_grid

>  <i_i_glide_lignum>  (214) 
10

>  <i_i_glide_rotatable_bonds>  (214) 
1

>  <r_i_docking_score>  (214) 
-3.02969

>  <r_i_glide_ligand_efficiency>  (214) 
-0.131726

>  <r_i_glide_ligand_efficiency_sa>  (214) 
-0.374611

>  <r_i_glide_ligand_efficiency_ln>  (214) 
-0.732608

>  <r_i_glide_gscore>  (214) 
-3.02969

>  <r_i_glide_lipo>  (214) 
-0.479849

>  <r_i_glide_hbond>  (214) 
-0.0378934

>  <r_i_glide_metal>  (214) 
-0

>  <r_i_glide_rewards>  (214) 
-1.22439

>  <r_i_glide_evdw>  (214) 
-23.7732

>  <r_i_glide_ecoul>  (214) 
-0.659376

>  <r_i_glide_erotb>  (214) 
0

>  <r_i_glide_esite>  (214) 
0

>  <r_i_glide_emodel>  (214) 
-28.767

>  <r_i_glide_energy>  (214) 
-24.4325

>  <r_i_glide_einternal>  (214) 
0.000131351

>  <r_i_glide_intrahb_reward>  (214) 
-0

>  <i_i_glide_confnum>  (214) 
1

>  <i_i_glide_posenum>  (214) 
1

>  <r_i_glide_eff_state_penalty>  (214) 
0

>  <ligand_id>  (214) 
64

>  <original_smiles>  (214) 
CC12CCC3CC4OC45CC4OCC5(C)OC4C3C1CCC2O

>  <smiles>  (214) 
[H]OC1([H])C([H])([H])C([H])([H])C2([H])C3([H])C4([H])OC5(C([H])([H])[H])C([H])([H])OC4([H])C([H])([H])C54OC4([H])C([H])([H])C3([H])C([H])([H])C([H])([H])C12C([H])([H])[H]

$$$$
64:0:1
     RDKit          3D

 51 56  0  0  1  0  0  0  0  0999 V2000
    1.9810   -4.7421    3.5068 C   0  0  0  0  0  0  0  0  0  0  0  0
    3.4803   -4.3935    3.3955 C   0  0  2  0  0  0  0  0  0  0  0  0
    3.7345   -2.9150    3.8130 C   0  0  0  0  0  0  0  0  0  0  0  0
    3.3456   -1.8755    2.7447 C   0  0  0  0  0  0  0  0  0  0  0  0
    4.0835   -2.1507    1.4269 C   0  0  2  0  0  0  0  0  0  0  0  0
    3.9521   -0.9652    0.4287 C   0  0  0  0  0  0  0  0  0  0  0  0
    5.1767   -0.9889   -0.4464 C   0  0  2  0  0  0  0  0  0  0  0  0
    5.3579   -0.5111   -1.7791 O   0  0  0  0  0  0  0  0  0  0  0  0
    5.1533   -1.9152   -1.6254 C   0  0  1  0  0  0  0  0  0  0  0  0
    6.1546   -3.0053   -1.3504 C   0  0  0  0  0  0  0  0  0  0  0  0
    5.2781   -4.2500   -1.1939 C   0  0  2  0  0  0  0  0  0  0  0  0
    5.0207   -4.5924   -2.5547 O   0  0  0  0  0  0  0  0  0  0  0  0
    4.3180   -3.5939   -3.3052 C   0  0  0  0  0  0  0  0  0  0  0  0
    3.9167   -2.4591   -2.3563 C   0  0  2  0  0  0  0  0  0  0  0  0
    3.0785   -1.3991   -3.0921 C   0  0  0  0  0  0  0  0  0  0  0  0
    3.1081   -3.0831   -1.3661 O   0  0  0  0  0  0  0  0  0  0  0  0
    3.8567   -4.0015   -0.5570 C   0  0  2  0  0  0  0  0  0  0  0  0
    3.6560   -3.5719    0.9313 C   0  0  1  0  0  0  0  0  0  0  0  0
    4.0339   -4.6708    1.9731 C   0  0  1  0  0  0  0  0  0  0  0  0
    5.5376   -4.9842    2.1716 C   0  0  0  0  0  0  0  0  0  0  0  0
    5.7154   -5.3814    3.6510 C   0  0  0  0  0  0  0  0  0  0  0  0
    4.3057   -5.3839    4.2489 C   0  0  1  0  0  0  0  0  0  0  0  0
    4.3050   -5.0919    5.6302 O   0  0  0  0  0  0  0  0  0  0  0  0
    1.6305   -4.6377    4.5335 H   0  0  0  0  0  0  0  0  0  0  0  0
    1.7954   -5.7761    3.2096 H   0  0  0  0  0  0  0  0  0  0  0  0
    1.3628   -4.1053    2.8805 H   0  0  0  0  0  0  0  0  0  0  0  0
    3.1793   -2.6948    4.7269 H   0  0  0  0  0  0  0  0  0  0  0  0
    4.7863   -2.7700    4.0561 H   0  0  0  0  0  0  0  0  0  0  0  0
    2.2655   -1.8807    2.5809 H   0  0  0  0  0  0  0  0  0  0  0  0
    3.5898   -0.8780    3.1123 H   0  0  0  0  0  0  0  0  0  0  0  0
    5.1381   -2.1950    1.7027 H   0  0  0  0  0  0  0  0  0  0  0  0
    3.0293   -0.9977   -0.1478 H   0  0  0  0  0  0  0  0  0  0  0  0
    3.9550   -0.0120    0.9574 H   0  0  0  0  0  0  0  0  0  0  0  0
    6.0988   -0.8495    0.1205 H   0  0  0  0  0  0  0  0  0  0  0  0
    6.8756   -3.0897   -2.1609 H   0  0  0  0  0  0  0  0  0  0  0  0
    6.7144   -2.8338   -0.4323 H   0  0  0  0  0  0  0  0  0  0  0  0
    5.8155   -5.0615   -0.7028 H   0  0  0  0  0  0  0  0  0  0  0  0
    4.9634   -3.2209   -4.0976 H   0  0  0  0  0  0  0  0  0  0  0  0
    3.4387   -4.0263   -3.7841 H   0  0  0  0  0  0  0  0  0  0  0  0
    3.6290   -0.9167   -3.8997 H   0  0  0  0  0  0  0  0  0  0  0  0
    2.7104   -0.6245   -2.4130 H   0  0  0  0  0  0  0  0  0  0  0  0
    2.2076   -1.8864   -3.5334 H   0  0  0  0  0  0  0  0  0  0  0  0
    3.3322   -4.9482   -0.6608 H   0  0  0  0  0  0  0  0  0  0  0  0
    2.5688   -3.5320    0.9730 H   0  0  0  0  0  0  0  0  0  0  0  0
    3.5809   -5.6061    1.6390 H   0  0  0  0  0  0  0  0  0  0  0  0
    5.8490   -5.8022    1.5167 H   0  0  0  0  0  0  0  0  0  0  0  0
    6.1760   -4.1349    1.9387 H   0  0  0  0  0  0  0  0  0  0  0  0
    6.1995   -6.3556    3.7596 H   0  0  0  0  0  0  0  0  0  0  0  0
    6.3401   -4.6541    4.1593 H   0  0  0  0  0  0  0  0  0  0  0  0
    3.9017   -6.3931    4.1295 H   0  0  0  0  0  0  0  0  0  0  0  0
    4.7087   -4.2473    5.7651 H   0  0  0  0  0  0  0  0  0  0  0  0
  2  1  1  6
  1 24  1  0
  1 25  1  0
  1 26  1  0
  2 19  1  0
  2 22  1  0
  2  3  1  0
  3  4  1  0
  3 27  1  0
  3 28  1  0
  4  5  1  0
  4 29  1  0
  4 30  1  0
  5 18  1  0
  5  6  1  0
  5 31  1  1
  6  7  1  0
  6 32  1  0
  6 33  1  0
  7  9  1  0
  7  8  1  0
  7 34  1  1
  9  8  1  6
  9 14  1  0
  9 10  1  0
 10 11  1  0
 10 35  1  0
 10 36  1  0
 11 17  1  0
 11 12  1  0
 11 37  1  1
 12 13  1  0
 13 14  1  0
 13 38  1  0
 13 39  1  0
 14 15  1  6
 14 16  1  0
 15 40  1  0
 15 41  1  0
 15 42  1  0
 16 17  1  0
 17 18  1  0
 17 43  1  1
 18 19  1  0
 18 44  1  6
 19 20  1  0
 19 45  1  6
 20 21  1  0
 20 46  1  0
 20 47  1  0
 21 22  1  0
 21 48  1  0
 21 49  1  0
 22 23  1  0
 22 50  1  1
 23 51  1  0
M  END
>  <i_m_ct_stereo_status>  (215) 
1

>  <s_m_source_file>  (215) 
/var/tmp/pbs.5076255.sched01/tmpkd0wjm76/823hn9mkkz.sdf

>  <i_m_source_file_index>  (215) 
10

>  <i_lp_mmshare_version>  (215) 
48012

>  <i_f3d_flags>  (215) 
0

>  <s_epik_input>  (215) 
W0NIMl0xW0NIMl1bQ0BASF0oW09IXSlbQ0BAXShbQ0gzXSkoW0NIMl1bQ0gyXTIpW0NASF0xW0NAQEhdKFtDQEhdMltDSDJdW0NASF0oTzMpW0NAQF0zNDUpW0NAQEhdNltDQEhdKFtDSDJdNClPW0NIMl1bQ0BdNShPNilbQ0gzXQ==

>  <s_epik_cmdline>  (215) 
J2VwaWtfcHl0aG9uJywgJy1waHQnLCAnMi4wJywgJy1waCcsICc3LjAnLCAnLXRuJywgJzgnLCAnLW1hJywgJzIwMCcsICctaW1hZScsICc8aW5maWxlLm1hZT4nLCAnLW9tYWUnLCAnPG91dGZpbGUubWFlPic=

>  <r_lp_tautomer_probability>  (215) 
1

>  <r_epik_Ionization_Penalty>  (215) 
2.0369e-06

>  <r_epik_Ionization_Penalty_Charging>  (215) 
0

>  <r_epik_Ionization_Penalty_Neutral>  (215) 
2.0369e-06

>  <r_epik_State_Penalty>  (215) 
-0

>  <r_epik_Charging_Adjusted_Penalty>  (215) 
0

>  <i_epik_Tot_Q>  (215) 
0

>  <i_epik_Tot_abs_Q>  (215) 
0

>  <s_lp_Force_Field>  (215) 
OPLS3e

>  <r_lp_Energy>  (215) 
78.4715

>  <b_lp_Chiralities_Consistent>  (215) 
1

>  <s_lp_Variant>  (215) 
64:0-1

>  <s_i_glide_gridfile>  (215) 
pfpi4k_grid

>  <i_i_glide_lignum>  (215) 
10

>  <i_i_glide_rotatable_bonds>  (215) 
1

>  <r_i_docking_score>  (215) 
-2.02235

>  <r_i_glide_ligand_efficiency>  (215) 
-0.0879284

>  <r_i_glide_ligand_efficiency_sa>  (215) 
-0.250057

>  <r_i_glide_ligand_efficiency_ln>  (215) 
-0.489024

>  <r_i_glide_gscore>  (215) 
-2.02235

>  <r_i_glide_lipo>  (215) 
-0.148341

>  <r_i_glide_hbond>  (215) 
-0.00245521

>  <r_i_glide_metal>  (215) 
-0

>  <r_i_glide_rewards>  (215) 
-1.22439

>  <r_i_glide_evdw>  (215) 
-18.7288

>  <r_i_glide_ecoul>  (215) 
1.92847

>  <r_i_glide_erotb>  (215) 
0

>  <r_i_glide_esite>  (215) 
0

>  <r_i_glide_emodel>  (215) 
-19.5972

>  <r_i_glide_energy>  (215) 
-16.8003

>  <r_i_glide_einternal>  (215) 
0.000621052

>  <r_i_glide_intrahb_reward>  (215) 
-0

>  <i_i_glide_confnum>  (215) 
2

>  <i_i_glide_posenum>  (215) 
7

>  <r_i_glide_eff_state_penalty>  (215) 
0

>  <ligand_id>  (215) 
64

>  <original_smiles>  (215) 
CC12CCC3CC4OC45CC4OCC5(C)OC4C3C1CCC2O

>  <smiles>  (215) 
[H]OC1([H])C([H])([H])C([H])([H])C2([H])C3([H])C4([H])OC5(C([H])([H])[H])C([H])([H])OC4([H])C([H])([H])C54OC4([H])C([H])([H])C3([H])C([H])([H])C([H])([H])C12C([H])([H])[H]

$$$$
65:0:0
     RDKit          3D

 36 38  0  0  1  0  0  0  0  0999 V2000
    6.3272   -0.8657    0.8888 C   0  0  0  0  0  0  0  0  0  0  0  0
    5.7140   -2.0505    0.3018 N   0  0  0  0  0  0  0  0  0  0  0  0
    5.3167   -3.1549    1.0890 C   0  0  0  0  0  0  0  0  0  0  0  0
    5.5052   -3.1714    2.4889 C   0  0  0  0  0  0  0  0  0  0  0  0
    5.1632   -4.2988    3.2587 C   0  0  0  0  0  0  0  0  0  0  0  0
    4.5985   -5.4311    2.6418 C   0  0  0  0  0  0  0  0  0  0  0  0
    4.2894   -6.5235    3.3940 O   0  0  0  0  0  0  0  0  0  0  0  0
    4.3712   -5.4194    1.2555 C   0  0  0  0  0  0  0  0  0  0  0  0
    4.7165   -4.2938    0.4825 C   0  0  0  0  0  0  0  0  0  0  0  0
    4.4226   -4.3335   -1.0011 C   0  0  0  0  0  0  0  0  0  0  0  0
    5.1720   -3.2567   -1.8026 C   0  0  1  0  0  0  0  0  0  0  0  0
    4.6481   -3.0339   -3.2390 C   0  0  1  0  0  0  0  0  0  0  0  0
    4.6005   -4.2430   -3.9638 O   0  0  0  0  0  0  0  0  0  0  0  0
    3.2747   -2.3439   -3.2853 C   0  0  0  0  0  0  0  0  0  0  0  0
    3.2547   -1.0510   -2.4483 C   0  0  0  0  0  0  0  0  0  0  0  0
    3.7713   -1.2849   -1.0184 C   0  0  0  0  0  0  0  0  0  0  0  0
    5.1685   -1.9223   -1.0398 C   0  0  1  0  0  0  0  0  0  0  0  0
    6.9997   -1.0827    1.7132 H   0  0  0  0  0  0  0  0  0  0  0  0
    5.5623   -0.1612    1.2173 H   0  0  0  0  0  0  0  0  0  0  0  0
    6.9280   -0.3585    0.1365 H   0  0  0  0  0  0  0  0  0  0  0  0
    5.9393   -2.3273    3.0004 H   0  0  0  0  0  0  0  0  0  0  0  0
    5.3387   -4.2973    4.3191 H   0  0  0  0  0  0  0  0  0  0  0  0
    3.9273   -6.2809    0.7787 H   0  0  0  0  0  0  0  0  0  0  0  0
    3.9936   -7.2687    2.8973 H   0  0  0  0  0  0  0  0  0  0  0  0
    3.3470   -4.2030   -1.1104 H   0  0  0  0  0  0  0  0  0  0  0  0
    4.6641   -5.3220   -1.3860 H   0  0  0  0  0  0  0  0  0  0  0  0
    6.2105   -3.5856   -1.8728 H   0  0  0  0  0  0  0  0  0  0  0  0
    5.3615   -2.3791   -3.7304 H   0  0  0  0  0  0  0  0  0  0  0  0
    4.0307   -4.8454   -3.4967 H   0  0  0  0  0  0  0  0  0  0  0  0
    3.0172   -2.1022   -4.3209 H   0  0  0  0  0  0  0  0  0  0  0  0
    2.4997   -3.0244   -2.9230 H   0  0  0  0  0  0  0  0  0  0  0  0
    3.8605   -0.2829   -2.9310 H   0  0  0  0  0  0  0  0  0  0  0  0
    2.2382   -0.6589   -2.4090 H   0  0  0  0  0  0  0  0  0  0  0  0
    3.8281   -0.3364   -0.4897 H   0  0  0  0  0  0  0  0  0  0  0  0
    3.0592   -1.8967   -0.4610 H   0  0  0  0  0  0  0  0  0  0  0  0
    5.8156   -1.2392   -1.5944 H   0  0  0  0  0  0  0  0  0  0  0  0
  1  2  1  0
  1 18  1  0
  1 19  1  0
  1 20  1  0
  2 17  1  0
  2  3  1  0
  3  9  2  0
  3  4  1  0
  4  5  2  0
  4 21  1  0
  5 22  1  0
  5  6  1  0
  6  7  1  0
  6  8  2  0
  7 24  1  0
  8 23  1  0
  8  9  1  0
  9 10  1  0
 10 11  1  0
 10 25  1  0
 10 26  1  0
 11 17  1  0
 11 12  1  0
 11 27  1  6
 12 13  1  0
 12 14  1  0
 12 28  1  6
 13 29  1  0
 14 15  1  0
 14 30  1  0
 14 31  1  0
 15 16  1  0
 15 32  1  0
 15 33  1  0
 16 17  1  0
 16 34  1  0
 16 35  1  0
 17 36  1  6
M  END
>  <i_m_ct_stereo_status>  (216) 
1

>  <s_m_source_file>  (216) 
/var/tmp/pbs.5076255.sched01/tmpkd0wjm76/823hn9mkkz.sdf

>  <i_m_source_file_index>  (216) 
11

>  <i_lp_mmshare_version>  (216) 
48012

>  <i_f3d_flags>  (216) 
0

>  <s_epik_input>  (216) 
W09IXVtDQEhdMVtDSDJdW0NIMl1bQ0gyXVtDQEBIXShbTitdPTJbQ0gzXSlbQ0BIXTFbQ0gyXVtDQEhdKEMyMylbQ0gyXUMoPU8pW0NIXT1bQ0hdMw==

>  <s_epik_cmdline>  (216) 
J2VwaWtfcHl0aG9uJywgJy1waHQnLCAnMi4wJywgJy1waCcsICc3LjAnLCAnLXRuJywgJzgnLCAnLW1hJywgJzIwMCcsICctaW1hZScsICc8aW5maWxlLm1hZT4nLCAnLW9tYWUnLCAnPG91dGZpbGUubWFlPic=

>  <r_lp_tautomer_probability>  (216) 
1

>  <r_epik_Ionization_Penalty>  (216) 
0.177306

>  <r_epik_Ionization_Penalty_Charging>  (216) 
0

>  <r_epik_Ionization_Penalty_Neutral>  (216) 
0.177306

>  <r_epik_State_Penalty>  (216) 
0.109854

>  <r_epik_Charging_Adjusted_Penalty>  (216) 
0.109854

>  <i_epik_Tot_Q>  (216) 
0

>  <i_epik_Tot_abs_Q>  (216) 
0

>  <s_lp_Force_Field>  (216) 
OPLS3e

>  <r_lp_Energy>  (216) 
36.8817

>  <b_lp_Chiralities_Consistent>  (216) 
1

>  <s_lp_Variant>  (216) 
65:0-1

>  <s_i_glide_gridfile>  (216) 
pfpi4k_grid

>  <i_i_glide_lignum>  (216) 
11

>  <i_i_glide_rotatable_bonds>  (216) 
2

>  <r_i_docking_score>  (216) 
-4.50329

>  <r_i_glide_ligand_efficiency>  (216) 
-0.264899

>  <r_i_glide_ligand_efficiency_sa>  (216) 
-0.68113

>  <r_i_glide_ligand_efficiency_ln>  (216) 
-1.17481

>  <r_i_glide_gscore>  (216) 
-4.50329

>  <r_i_glide_lipo>  (216) 
-0.623782

>  <r_i_glide_hbond>  (216) 
-0.32

>  <r_i_glide_metal>  (216) 
-0

>  <r_i_glide_rewards>  (216) 
-1.8815

>  <r_i_glide_evdw>  (216) 
-17.5684

>  <r_i_glide_ecoul>  (216) 
-5.33051

>  <r_i_glide_erotb>  (216) 
0

>  <r_i_glide_esite>  (216) 
0

>  <r_i_glide_emodel>  (216) 
-29.2863

>  <r_i_glide_energy>  (216) 
-22.899

>  <r_i_glide_einternal>  (216) 
0.0618131

>  <r_i_glide_intrahb_reward>  (216) 
-0

>  <i_i_glide_confnum>  (216) 
2

>  <i_i_glide_posenum>  (216) 
17

>  <r_i_glide_eff_state_penalty>  (216) 
0

>  <ligand_id>  (216) 
65

>  <original_smiles>  (216) 
C[N+]1=C2C=CC(=O)CC2CC2C(O)CCCC21

>  <smiles>  (216) 
[H]Oc1c([H])c([H])c2c(c1[H])C([H])([H])C1([H])C([H])(O[H])C([H])([H])C([H])([H])C([H])([H])C1([H])N2C([H])([H])[H]

$$$$
65:0:1
     RDKit          3D

 36 38  0  0  1  0  0  0  0  0999 V2000
    8.7335   -2.2311    0.0140 C   0  0  0  0  0  0  0  0  0  0  0  0
    7.5200   -2.9871   -0.2326 N   0  0  0  0  0  0  0  0  0  0  0  0
    7.2770   -4.2105    0.4592 C   0  0  0  0  0  0  0  0  0  0  0  0
    8.2078   -4.7260    1.3874 C   0  0  0  0  0  0  0  0  0  0  0  0
    7.9730   -5.9486    2.0558 C   0  0  0  0  0  0  0  0  0  0  0  0
    6.7961   -6.6808    1.7936 C   0  0  0  0  0  0  0  0  0  0  0  0
    6.5845   -7.8756    2.4037 O   0  0  0  0  0  0  0  0  0  0  0  0
    5.8451   -6.1698    0.8832 C   0  0  0  0  0  0  0  0  0  0  0  0
    6.0730   -4.9357    0.2320 C   0  0  0  0  0  0  0  0  0  0  0  0
    5.0315   -4.4658   -0.7615 C   0  0  0  0  0  0  0  0  0  0  0  0
    5.5400   -3.3643   -1.7056 C   0  0  1  0  0  0  0  0  0  0  0  0
    4.4528   -2.5861   -2.4803 C   0  0  1  0  0  0  0  0  0  0  0  0
    3.6477   -3.4506   -3.2484 O   0  0  0  0  0  0  0  0  0  0  0  0
    3.5917   -1.6940   -1.5671 C   0  0  0  0  0  0  0  0  0  0  0  0
    4.4645   -0.7615   -0.7141 C   0  0  0  0  0  0  0  0  0  0  0  0
    5.5712   -1.5116    0.0389 C   0  0  0  0  0  0  0  0  0  0  0  0
    6.4074   -2.3775   -0.9276 C   0  0  1  0  0  0  0  0  0  0  0  0
    9.6117   -2.8263    0.2125 H   0  0  0  0  0  0  0  0  0  0  0  0
    8.5842   -1.5136    0.8243 H   0  0  0  0  0  0  0  0  0  0  0  0
    8.9886   -1.6591   -0.8800 H   0  0  0  0  0  0  0  0  0  0  0  0
    9.1106   -4.2030    1.6400 H   0  0  0  0  0  0  0  0  0  0  0  0
    8.6934   -6.3112    2.7641 H   0  0  0  0  0  0  0  0  0  0  0  0
    4.9514   -6.7390    0.6820 H   0  0  0  0  0  0  0  0  0  0  0  0
    7.2682   -8.1397    2.9851 H   0  0  0  0  0  0  0  0  0  0  0  0
    4.1825   -4.1055   -0.1776 H   0  0  0  0  0  0  0  0  0  0  0  0
    4.7056   -5.3224   -1.3475 H   0  0  0  0  0  0  0  0  0  0  0  0
    6.1803   -3.8480   -2.4442 H   0  0  0  0  0  0  0  0  0  0  0  0
    4.9582   -1.9352   -3.1945 H   0  0  0  0  0  0  0  0  0  0  0  0
    3.2226   -4.0834   -2.6929 H   0  0  0  0  0  0  0  0  0  0  0  0
    2.9206   -1.0733   -2.1731 H   0  0  0  0  0  0  0  0  0  0  0  0
    2.9600   -2.2876   -0.9077 H   0  0  0  0  0  0  0  0  0  0  0  0
    4.9159   -0.0427   -1.3922 H   0  0  0  0  0  0  0  0  0  0  0  0
    3.8520   -0.2086    0.0045 H   0  0  0  0  0  0  0  0  0  0  0  0
    6.2093   -0.7859    0.5441 H   0  0  0  0  0  0  0  0  0  0  0  0
    5.1268   -2.1226    0.8269 H   0  0  0  0  0  0  0  0  0  0  0  0
    6.8316   -1.7176   -1.6863 H   0  0  0  0  0  0  0  0  0  0  0  0
  1  2  1  0
  1 18  1  0
  1 19  1  0
  1 20  1  0
  2 17  1  0
  2  3  1  0
  3  9  2  0
  3  4  1  0
  4  5  2  0
  4 21  1  0
  5 22  1  0
  5  6  1  0
  6  7  1  0
  6  8  2  0
  7 24  1  0
  8 23  1  0
  8  9  1  0
  9 10  1  0
 10 11  1  0
 10 25  1  0
 10 26  1  0
 11 17  1  0
 11 12  1  0
 11 27  1  6
 12 13  1  0
 12 14  1  0
 12 28  1  6
 13 29  1  0
 14 15  1  0
 14 30  1  0
 14 31  1  0
 15 16  1  0
 15 32  1  0
 15 33  1  0
 16 17  1  0
 16 34  1  0
 16 35  1  0
 17 36  1  6
M  END
>  <i_m_ct_stereo_status>  (217) 
1

>  <s_m_source_file>  (217) 
/var/tmp/pbs.5076255.sched01/tmpkd0wjm76/823hn9mkkz.sdf

>  <i_m_source_file_index>  (217) 
11

>  <i_lp_mmshare_version>  (217) 
48012

>  <i_f3d_flags>  (217) 
0

>  <s_epik_input>  (217) 
W09IXVtDQEhdMVtDSDJdW0NIMl1bQ0gyXVtDQEBIXShbTitdPTJbQ0gzXSlbQ0BIXTFbQ0gyXVtDQEhdKEMyMylbQ0gyXUMoPU8pW0NIXT1bQ0hdMw==

>  <s_epik_cmdline>  (217) 
J2VwaWtfcHl0aG9uJywgJy1waHQnLCAnMi4wJywgJy1waCcsICc3LjAnLCAnLXRuJywgJzgnLCAnLW1hJywgJzIwMCcsICctaW1hZScsICc8aW5maWxlLm1hZT4nLCAnLW9tYWUnLCAnPG91dGZpbGUubWFlPic=

>  <r_lp_tautomer_probability>  (217) 
1

>  <r_epik_Ionization_Penalty>  (217) 
0.177306

>  <r_epik_Ionization_Penalty_Charging>  (217) 
0

>  <r_epik_Ionization_Penalty_Neutral>  (217) 
0.177306

>  <r_epik_State_Penalty>  (217) 
0.109854

>  <r_epik_Charging_Adjusted_Penalty>  (217) 
0.109854

>  <i_epik_Tot_Q>  (217) 
0

>  <i_epik_Tot_abs_Q>  (217) 
0

>  <s_lp_Force_Field>  (217) 
OPLS3e

>  <r_lp_Energy>  (217) 
36.8817

>  <b_lp_Chiralities_Consistent>  (217) 
1

>  <s_lp_Variant>  (217) 
65:0-1

>  <s_i_glide_gridfile>  (217) 
pfpi4k_grid

>  <i_i_glide_lignum>  (217) 
11

>  <i_i_glide_rotatable_bonds>  (217) 
2

>  <r_i_docking_score>  (217) 
-4.44013

>  <r_i_glide_ligand_efficiency>  (217) 
-0.261184

>  <r_i_glide_ligand_efficiency_sa>  (217) 
-0.671577

>  <r_i_glide_ligand_efficiency_ln>  (217) 
-1.15833

>  <r_i_glide_gscore>  (217) 
-4.44013

>  <r_i_glide_lipo>  (217) 
-0.726091

>  <r_i_glide_hbond>  (217) 
-0.240252

>  <r_i_glide_metal>  (217) 
-0

>  <r_i_glide_rewards>  (217) 
-1.96141

>  <r_i_glide_evdw>  (217) 
-19.2898

>  <r_i_glide_ecoul>  (217) 
-3.65257

>  <r_i_glide_erotb>  (217) 
0

>  <r_i_glide_esite>  (217) 
0

>  <r_i_glide_emodel>  (217) 
-29.2155

>  <r_i_glide_energy>  (217) 
-22.9424

>  <r_i_glide_einternal>  (217) 
0.0133737

>  <r_i_glide_intrahb_reward>  (217) 
-0

>  <i_i_glide_confnum>  (217) 
1

>  <i_i_glide_posenum>  (217) 
3

>  <r_i_glide_eff_state_penalty>  (217) 
0

>  <ligand_id>  (217) 
65

>  <original_smiles>  (217) 
C[N+]1=C2C=CC(=O)CC2CC2C(O)CCCC21

>  <smiles>  (217) 
[H]Oc1c([H])c([H])c2c(c1[H])C([H])([H])C1([H])C([H])(O[H])C([H])([H])C([H])([H])C([H])([H])C1([H])N2C([H])([H])[H]

$$$$
65:0:2
     RDKit          3D

 36 38  0  0  1  0  0  0  0  0999 V2000
    5.1757   -5.2721    0.1316 C   0  0  0  0  0  0  0  0  0  0  0  0
    4.8101   -3.8630    0.1015 N   0  0  0  0  0  0  0  0  0  0  0  0
    4.6063   -3.1623   -1.1109 C   0  0  0  0  0  0  0  0  0  0  0  0
    4.7633   -3.8009   -2.3641 C   0  0  0  0  0  0  0  0  0  0  0  0
    4.5507   -3.1016   -3.5648 C   0  0  0  0  0  0  0  0  0  0  0  0
    4.2035   -1.7426   -3.5449 C   0  0  0  0  0  0  0  0  0  0  0  0
    4.0115   -1.0641   -4.7141 O   0  0  0  0  0  0  0  0  0  0  0  0
    4.0652   -1.0838   -2.3144 C   0  0  0  0  0  0  0  0  0  0  0  0
    4.2414   -1.7847   -1.1000 C   0  0  0  0  0  0  0  0  0  0  0  0
    4.0149   -1.0374    0.2047 C   0  0  0  0  0  0  0  0  0  0  0  0
    4.6104   -1.7708    1.4225 C   0  0  1  0  0  0  0  0  0  0  0  0
    4.1459   -1.2453    2.7982 C   0  0  1  0  0  0  0  0  0  0  0  0
    4.3752    0.1410    2.9123 O   0  0  0  0  0  0  0  0  0  0  0  0
    2.6686   -1.5675    3.0956 C   0  0  0  0  0  0  0  0  0  0  0  0
    2.3538   -3.0639    2.9220 C   0  0  0  0  0  0  0  0  0  0  0  0
    2.8295   -3.5910    1.5585 C   0  0  0  0  0  0  0  0  0  0  0  0
    4.3217   -3.2772    1.3396 C   0  0  1  0  0  0  0  0  0  0  0  0
    5.8137   -5.5732   -0.6956 H   0  0  0  0  0  0  0  0  0  0  0  0
    4.2811   -5.8968    0.1325 H   0  0  0  0  0  0  0  0  0  0  0  0
    5.7303   -5.4861    1.0461 H   0  0  0  0  0  0  0  0  0  0  0  0
    5.0193   -4.8507   -2.4387 H   0  0  0  0  0  0  0  0  0  0  0  0
    4.6450   -3.6236   -4.5025 H   0  0  0  0  0  0  0  0  0  0  0  0
    3.8128   -0.0345   -2.3173 H   0  0  0  0  0  0  0  0  0  0  0  0
    3.6325   -0.2055   -4.5801 H   0  0  0  0  0  0  0  0  0  0  0  0
    2.9378   -0.9334    0.3205 H   0  0  0  0  0  0  0  0  0  0  0  0
    4.4236   -0.0292    0.1258 H   0  0  0  0  0  0  0  0  0  0  0  0
    5.6918   -1.6428    1.3675 H   0  0  0  0  0  0  0  0  0  0  0  0
    4.7572   -1.7302    3.5586 H   0  0  0  0  0  0  0  0  0  0  0  0
    3.8155    0.5982    2.2999 H   0  0  0  0  0  0  0  0  0  0  0  0
    2.4305   -1.2734    4.1204 H   0  0  0  0  0  0  0  0  0  0  0  0
    2.0155   -0.9858    2.4414 H   0  0  0  0  0  0  0  0  0  0  0  0
    2.8417   -3.6369    3.7120 H   0  0  0  0  0  0  0  0  0  0  0  0
    1.2807   -3.2366    3.0289 H   0  0  0  0  0  0  0  0  0  0  0  0
    2.6736   -4.6691    1.5203 H   0  0  0  0  0  0  0  0  0  0  0  0
    2.2237   -3.1667    0.7547 H   0  0  0  0  0  0  0  0  0  0  0  0
    4.8776   -3.7505    2.1518 H   0  0  0  0  0  0  0  0  0  0  0  0
  1  2  1  0
  1 18  1  0
  1 19  1  0
  1 20  1  0
  2 17  1  0
  2  3  1  0
  3  9  2  0
  3  4  1  0
  4  5  2  0
  4 21  1  0
  5 22  1  0
  5  6  1  0
  6  7  1  0
  6  8  2  0
  7 24  1  0
  8 23  1  0
  8  9  1  0
  9 10  1  0
 10 11  1  0
 10 25  1  0
 10 26  1  0
 11 17  1  0
 11 12  1  0
 11 27  1  1
 12 13  1  0
 12 14  1  0
 12 28  1  1
 13 29  1  0
 14 15  1  0
 14 30  1  0
 14 31  1  0
 15 16  1  0
 15 32  1  0
 15 33  1  0
 16 17  1  0
 16 34  1  0
 16 35  1  0
 17 36  1  1
M  END
>  <i_m_ct_stereo_status>  (218) 
1

>  <s_m_source_file>  (218) 
/var/tmp/pbs.5076255.sched01/tmpkd0wjm76/823hn9mkkz.sdf

>  <i_m_source_file_index>  (218) 
11

>  <i_lp_mmshare_version>  (218) 
48012

>  <i_f3d_flags>  (218) 
0

>  <s_epik_input>  (218) 
W09IXVtDQEhdMVtDSDJdW0NIMl1bQ0gyXVtDQEBIXShbTitdPTJbQ0gzXSlbQ0BIXTFbQ0gyXVtDQEhdKEMyMylbQ0gyXUMoPU8pW0NIXT1bQ0hdMw==

>  <s_epik_cmdline>  (218) 
J2VwaWtfcHl0aG9uJywgJy1waHQnLCAnMi4wJywgJy1waCcsICc3LjAnLCAnLXRuJywgJzgnLCAnLW1hJywgJzIwMCcsICctaW1hZScsICc8aW5maWxlLm1hZT4nLCAnLW9tYWUnLCAnPG91dGZpbGUubWFlPic=

>  <r_lp_tautomer_probability>  (218) 
1

>  <r_epik_Ionization_Penalty>  (218) 
0.177306

>  <r_epik_Ionization_Penalty_Charging>  (218) 
0

>  <r_epik_Ionization_Penalty_Neutral>  (218) 
0.177306

>  <r_epik_State_Penalty>  (218) 
0.109854

>  <r_epik_Charging_Adjusted_Penalty>  (218) 
0.109854

>  <i_epik_Tot_Q>  (218) 
0

>  <i_epik_Tot_abs_Q>  (218) 
0

>  <s_lp_Force_Field>  (218) 
OPLS3e

>  <r_lp_Energy>  (218) 
36.8817

>  <b_lp_Chiralities_Consistent>  (218) 
1

>  <s_lp_Variant>  (218) 
65:0-1

>  <s_i_glide_gridfile>  (218) 
pfpi4k_grid

>  <i_i_glide_lignum>  (218) 
11

>  <i_i_glide_rotatable_bonds>  (218) 
2

>  <r_i_docking_score>  (218) 
-4.24943

>  <r_i_glide_ligand_efficiency>  (218) 
-0.249966

>  <r_i_glide_ligand_efficiency_sa>  (218) 
-0.642734

>  <r_i_glide_ligand_efficiency_ln>  (218) 
-1.10858

>  <r_i_glide_gscore>  (218) 
-4.24943

>  <r_i_glide_lipo>  (218) 
-0.506622

>  <r_i_glide_hbond>  (218) 
-0.32

>  <r_i_glide_metal>  (218) 
-0

>  <r_i_glide_rewards>  (218) 
-1.86865

>  <r_i_glide_evdw>  (218) 
-19.6275

>  <r_i_glide_ecoul>  (218) 
-3.81857

>  <r_i_glide_erotb>  (218) 
0

>  <r_i_glide_esite>  (218) 
0

>  <r_i_glide_emodel>  (218) 
-29.4089

>  <r_i_glide_energy>  (218) 
-23.446

>  <r_i_glide_einternal>  (218) 
0.178732

>  <r_i_glide_intrahb_reward>  (218) 
-0

>  <i_i_glide_confnum>  (218) 
2

>  <i_i_glide_posenum>  (218) 
11

>  <r_i_glide_eff_state_penalty>  (218) 
0

>  <ligand_id>  (218) 
65

>  <original_smiles>  (218) 
C[N+]1=C2C=CC(=O)CC2CC2C(O)CCCC21

>  <smiles>  (218) 
[H]Oc1c([H])c([H])c2c(c1[H])C([H])([H])C1([H])C([H])(O[H])C([H])([H])C([H])([H])C([H])([H])C1([H])N2C([H])([H])[H]

$$$$
65:1:0
     RDKit          3D

 37 39  0  0  1  0  0  0  0  0999 V2000
   -8.8262   -3.9318   -7.7914 C   0  0  0  0  0  0  0  0  0  0  0  0
   -9.3094   -5.2456   -7.2966 N   0  0  2  0  0  0  0  0  0  0  0  0
   -8.1663   -5.9895   -6.6539 C   0  0  0  0  0  0  0  0  0  0  0  0
   -7.7732   -5.6290   -5.3462 C   0  0  0  0  0  0  0  0  0  0  0  0
   -6.6493   -6.2503   -4.7684 C   0  0  0  0  0  0  0  0  0  0  0  0
   -5.9286   -7.2237   -5.4915 C   0  0  0  0  0  0  0  0  0  0  0  0
   -4.8312   -7.7964   -4.9239 O   0  0  0  0  0  0  0  0  0  0  0  0
   -6.3406   -7.5934   -6.7903 C   0  0  0  0  0  0  0  0  0  0  0  0
   -7.4698   -6.9784   -7.3792 C   0  0  0  0  0  0  0  0  0  0  0  0
   -7.9106   -7.4084   -8.7736 C   0  0  0  0  0  0  0  0  0  0  0  0
   -9.0571   -6.5654   -9.4020 C   0  0  1  0  0  0  0  0  0  0  0  0
   -9.8592   -7.2977  -10.5055 C   0  0  1  0  0  0  0  0  0  0  0  0
   -8.9833   -7.7703  -11.4997 O   0  0  0  0  0  0  0  0  0  0  0  0
  -10.7423   -8.4396   -9.9652 C   0  0  0  0  0  0  0  0  0  0  0  0
  -11.6681   -7.9423   -8.8455 C   0  0  0  0  0  0  0  0  0  0  0  0
  -10.8724   -7.1985   -7.7748 C   0  0  0  0  0  0  0  0  0  0  0  0
  -10.0307   -6.0299   -8.3396 C   0  0  1  0  0  0  0  0  0  0  0  0
   -8.4653   -3.3249   -6.9567 H   0  0  0  0  0  0  0  0  0  0  0  0
   -9.6102   -3.3740   -8.3010 H   0  0  0  0  0  0  0  0  0  0  0  0
   -7.9905   -4.0584   -8.4840 H   0  0  0  0  0  0  0  0  0  0  0  0
   -8.3198   -4.8825   -4.7851 H   0  0  0  0  0  0  0  0  0  0  0  0
   -6.3518   -5.9970   -3.7575 H   0  0  0  0  0  0  0  0  0  0  0  0
   -5.7885   -8.3345   -7.3477 H   0  0  0  0  0  0  0  0  0  0  0  0
   -4.4542   -8.4958   -5.4370 H   0  0  0  0  0  0  0  0  0  0  0  0
   -8.2348   -8.4454   -8.6709 H   0  0  0  0  0  0  0  0  0  0  0  0
   -7.0510   -7.4185   -9.4498 H   0  0  0  0  0  0  0  0  0  0  0  0
   -8.5891   -5.7085   -9.8879 H   0  0  0  0  0  0  0  0  0  0  0  0
  -10.5200   -6.5760  -10.9883 H   0  0  0  0  0  0  0  0  0  0  0  0
   -8.3924   -8.3925  -11.1015 H   0  0  0  0  0  0  0  0  0  0  0  0
  -11.3604   -8.8465  -10.7646 H   0  0  0  0  0  0  0  0  0  0  0  0
  -10.1317   -9.2651   -9.5968 H   0  0  0  0  0  0  0  0  0  0  0  0
  -12.4516   -7.2855   -9.2306 H   0  0  0  0  0  0  0  0  0  0  0  0
  -12.1679   -8.7926   -8.3706 H   0  0  0  0  0  0  0  0  0  0  0  0
  -11.5780   -6.8280   -7.0341 H   0  0  0  0  0  0  0  0  0  0  0  0
  -10.2346   -7.9618   -7.3319 H   0  0  0  0  0  0  0  0  0  0  0  0
  -10.7487   -5.3554   -8.8023 H   0  0  0  0  0  0  0  0  0  0  0  0
  -10.0042   -5.0329   -6.5959 H   0  0  0  0  0  0  0  0  0  0  0  0
  1  2  1  0
  1 18  1  0
  1 19  1  0
  1 20  1  0
  2 17  1  0
  2  3  1  0
  2 37  1  1
  3  9  2  0
  3  4  1  0
  4  5  2  0
  4 21  1  0
  5 22  1  0
  5  6  1  0
  6  7  1  0
  6  8  2  0
  7 24  1  0
  8 23  1  0
  8  9  1  0
  9 10  1  0
 10 11  1  0
 10 25  1  0
 10 26  1  0
 11 17  1  0
 11 12  1  0
 11 27  1  6
 12 13  1  0
 12 14  1  0
 12 28  1  6
 13 29  1  0
 14 15  1  0
 14 30  1  0
 14 31  1  0
 15 16  1  0
 15 32  1  0
 15 33  1  0
 16 17  1  0
 16 34  1  0
 16 35  1  0
 17 36  1  6
M  CHG  1   2   1
M  END
>  <i_m_ct_stereo_status>  (219) 
1

>  <s_m_source_file>  (219) 
/var/tmp/pbs.5076255.sched01/tmpkd0wjm76/823hn9mkkz.sdf

>  <i_m_source_file_index>  (219) 
12

>  <i_lp_mmshare_version>  (219) 
48012

>  <i_f3d_flags>  (219) 
0

>  <s_epik_input>  (219) 
W09IXVtDQEhdMVtDSDJdW0NIMl1bQ0gyXVtDQEBIXShbTitdPTJbQ0gzXSlbQ0BIXTFbQ0gyXVtDQEhdKEMyMylbQ0gyXUMoPU8pW0NIXT1bQ0hdMw==

>  <s_epik_cmdline>  (219) 
J2VwaWtfcHl0aG9uJywgJy1waHQnLCAnMi4wJywgJy1waCcsICc3LjAnLCAnLXRuJywgJzgnLCAnLW1hJywgJzIwMCcsICctaW1hZScsICc8aW5maWxlLm1hZT4nLCAnLW9tYWUnLCAnPG91dGZpbGUubWFlPic=

>  <r_epik_Ionization_Penalty>  (219) 
0.827826

>  <r_epik_Ionization_Penalty_Charging>  (219) 
0.801961

>  <r_epik_Ionization_Penalty_Neutral>  (219) 
0.0258651

>  <r_epik_State_Penalty>  (219) 
1.06671

>  <r_epik_Charging_Adjusted_Penalty>  (219) 
1.86867

>  <i_epik_Tot_Q>  (219) 
1

>  <i_epik_Tot_abs_Q>  (219) 
1

>  <s_lp_Force_Field>  (219) 
OPLS3e

>  <r_lp_Energy>  (219) 
27.555

>  <b_lp_Chiralities_Consistent>  (219) 
1

>  <s_lp_Variant>  (219) 
65:0-2

>  <s_i_glide_gridfile>  (219) 
pfpi4k_grid

>  <i_i_glide_lignum>  (219) 
12

>  <i_i_glide_rotatable_bonds>  (219) 
2

>  <r_i_docking_score>  (219) 
-5.24244

>  <r_i_glide_ligand_efficiency>  (219) 
-0.308379

>  <r_i_glide_ligand_efficiency_sa>  (219) 
-0.792928

>  <r_i_glide_ligand_efficiency_ln>  (219) 
-1.36764

>  <r_i_glide_gscore>  (219) 
-5.24244

>  <r_i_glide_lipo>  (219) 
-1.90115

>  <r_i_glide_hbond>  (219) 
0

>  <r_i_glide_metal>  (219) 
-0

>  <r_i_glide_rewards>  (219) 
-2.371

>  <r_i_glide_evdw>  (219) 
-18.2622

>  <r_i_glide_ecoul>  (219) 
-0.381152

>  <r_i_glide_erotb>  (219) 
0

>  <r_i_glide_esite>  (219) 
0

>  <r_i_glide_emodel>  (219) 
-25.099

>  <r_i_glide_energy>  (219) 
-18.6433

>  <r_i_glide_einternal>  (219) 
0.0489174

>  <r_i_glide_intrahb_reward>  (219) 
-0

>  <i_i_glide_confnum>  (219) 
1

>  <i_i_glide_posenum>  (219) 
2

>  <r_i_glide_eff_state_penalty>  (219) 
0

>  <ligand_id>  (219) 
65

>  <original_smiles>  (219) 
C[N+]1=C2C=CC(=O)CC2CC2C(O)CCCC21

>  <smiles>  (219) 
[H]Oc1c([H])c([H])c2c(c1[H])C([H])([H])C1([H])C([H])(O[H])C([H])([H])C([H])([H])C([H])([H])C1([H])[N+]2([H])C([H])([H])[H]

$$$$
65:1:1
     RDKit          3D

 37 39  0  0  1  0  0  0  0  0999 V2000
    5.3747   -4.6556   -1.3509 C   0  0  0  0  0  0  0  0  0  0  0  0
    4.0936   -3.9993   -1.0462 N   0  0  2  0  0  0  0  0  0  0  0  0
    3.9239   -2.7995   -1.9257 C   0  0  0  0  0  0  0  0  0  0  0  0
    3.4858   -2.9804   -3.2534 C   0  0  0  0  0  0  0  0  0  0  0  0
    3.4128   -1.8670   -4.1064 C   0  0  0  0  0  0  0  0  0  0  0  0
    3.7838   -0.5949   -3.6474 C   0  0  0  0  0  0  0  0  0  0  0  0
    3.6853    0.4901   -4.4700 O   0  0  0  0  0  0  0  0  0  0  0  0
    4.2185   -0.4389   -2.3254 C   0  0  0  0  0  0  0  0  0  0  0  0
    4.2829   -1.5248   -1.4347 C   0  0  0  0  0  0  0  0  0  0  0  0
    4.6798   -1.3029    0.0201 C   0  0  0  0  0  0  0  0  0  0  0  0
    4.8800   -2.5956    0.8603 C   0  0  1  0  0  0  0  0  0  0  0  0
    4.7432   -2.3989    2.3880 C   0  0  1  0  0  0  0  0  0  0  0  0
    5.5681   -1.3335    2.8005 O   0  0  0  0  0  0  0  0  0  0  0  0
    3.2981   -2.1228    2.8339 C   0  0  0  0  0  0  0  0  0  0  0  0
    2.3261   -3.1847    2.2968 C   0  0  0  0  0  0  0  0  0  0  0  0
    2.4868   -3.4057    0.7805 C   0  0  0  0  0  0  0  0  0  0  0  0
    3.9385   -3.7271    0.4034 C   0  0  1  0  0  0  0  0  0  0  0  0
    5.3427   -4.9829   -2.3907 H   0  0  0  0  0  0  0  0  0  0  0  0
    5.5521   -5.5258   -0.7100 H   0  0  0  0  0  0  0  0  0  0  0  0
    6.2114   -3.9696   -1.2590 H   0  0  0  0  0  0  0  0  0  0  0  0
    3.2043   -3.9578   -3.6233 H   0  0  0  0  0  0  0  0  0  0  0  0
    3.0540   -1.9786   -5.1057 H   0  0  0  0  0  0  0  0  0  0  0  0
    4.4803    0.5456   -1.9922 H   0  0  0  0  0  0  0  0  0  0  0  0
    3.4233    1.2732   -4.0009 H   0  0  0  0  0  0  0  0  0  0  0  0
    3.8775   -0.7098    0.4609 H   0  0  0  0  0  0  0  0  0  0  0  0
    5.5788   -0.6860    0.0743 H   0  0  0  0  0  0  0  0  0  0  0  0
    5.9025   -2.9313    0.6851 H   0  0  0  0  0  0  0  0  0  0  0  0
    5.0838   -3.3098    2.8881 H   0  0  0  0  0  0  0  0  0  0  0  0
    6.4641   -1.5414    2.5802 H   0  0  0  0  0  0  0  0  0  0  0  0
    3.2464   -2.1022    3.9231 H   0  0  0  0  0  0  0  0  0  0  0  0
    2.9822   -1.1343    2.5023 H   0  0  0  0  0  0  0  0  0  0  0  0
    2.4775   -4.1274    2.8233 H   0  0  0  0  0  0  0  0  0  0  0  0
    1.3054   -2.8733    2.5191 H   0  0  0  0  0  0  0  0  0  0  0  0
    1.8626   -4.2373    0.4540 H   0  0  0  0  0  0  0  0  0  0  0  0
    2.1525   -2.5123    0.2543 H   0  0  0  0  0  0  0  0  0  0  0  0
    4.1926   -4.6481    0.9287 H   0  0  0  0  0  0  0  0  0  0  0  0
    3.4074   -4.6966   -1.3044 H   0  0  0  0  0  0  0  0  0  0  0  0
  1  2  1  0
  1 18  1  0
  1 19  1  0
  1 20  1  0
  2 17  1  0
  2  3  1  0
  2 37  1  6
  3  9  2  0
  3  4  1  0
  4  5  2  0
  4 21  1  0
  5 22  1  0
  5  6  1  0
  6  7  1  0
  6  8  2  0
  7 24  1  0
  8 23  1  0
  8  9  1  0
  9 10  1  0
 10 11  1  0
 10 25  1  0
 10 26  1  0
 11 17  1  0
 11 12  1  0
 11 27  1  1
 12 13  1  0
 12 14  1  0
 12 28  1  1
 13 29  1  0
 14 15  1  0
 14 30  1  0
 14 31  1  0
 15 16  1  0
 15 32  1  0
 15 33  1  0
 16 17  1  0
 16 34  1  0
 16 35  1  0
 17 36  1  1
M  CHG  1   2   1
M  END
>  <i_m_ct_stereo_status>  (220) 
1

>  <s_m_source_file>  (220) 
/var/tmp/pbs.5076255.sched01/tmpkd0wjm76/823hn9mkkz.sdf

>  <i_m_source_file_index>  (220) 
12

>  <i_lp_mmshare_version>  (220) 
48012

>  <i_f3d_flags>  (220) 
0

>  <s_epik_input>  (220) 
W09IXVtDQEhdMVtDSDJdW0NIMl1bQ0gyXVtDQEBIXShbTitdPTJbQ0gzXSlbQ0BIXTFbQ0gyXVtDQEhdKEMyMylbQ0gyXUMoPU8pW0NIXT1bQ0hdMw==

>  <s_epik_cmdline>  (220) 
J2VwaWtfcHl0aG9uJywgJy1waHQnLCAnMi4wJywgJy1waCcsICc3LjAnLCAnLXRuJywgJzgnLCAnLW1hJywgJzIwMCcsICctaW1hZScsICc8aW5maWxlLm1hZT4nLCAnLW9tYWUnLCAnPG91dGZpbGUubWFlPic=

>  <r_epik_Ionization_Penalty>  (220) 
0.827826

>  <r_epik_Ionization_Penalty_Charging>  (220) 
0.801961

>  <r_epik_Ionization_Penalty_Neutral>  (220) 
0.0258651

>  <r_epik_State_Penalty>  (220) 
1.06671

>  <r_epik_Charging_Adjusted_Penalty>  (220) 
1.86867

>  <i_epik_Tot_Q>  (220) 
1

>  <i_epik_Tot_abs_Q>  (220) 
1

>  <s_lp_Force_Field>  (220) 
OPLS3e

>  <r_lp_Energy>  (220) 
27.555

>  <b_lp_Chiralities_Consistent>  (220) 
1

>  <s_lp_Variant>  (220) 
65:0-2

>  <s_i_glide_gridfile>  (220) 
pfpi4k_grid

>  <i_i_glide_lignum>  (220) 
12

>  <i_i_glide_rotatable_bonds>  (220) 
2

>  <r_i_docking_score>  (220) 
-4.53596

>  <r_i_glide_ligand_efficiency>  (220) 
-0.266821

>  <r_i_glide_ligand_efficiency_sa>  (220) 
-0.686073

>  <r_i_glide_ligand_efficiency_ln>  (220) 
-1.18333

>  <r_i_glide_gscore>  (220) 
-4.53596

>  <r_i_glide_lipo>  (220) 
-0.517558

>  <r_i_glide_hbond>  (220) 
-0.243381

>  <r_i_glide_metal>  (220) 
-0

>  <r_i_glide_rewards>  (220) 
-1.81149

>  <r_i_glide_evdw>  (220) 
-13.4733

>  <r_i_glide_ecoul>  (220) 
-8.39725

>  <r_i_glide_erotb>  (220) 
0

>  <r_i_glide_esite>  (220) 
-0.0302782

>  <r_i_glide_emodel>  (220) 
-26.0844

>  <r_i_glide_energy>  (220) 
-21.8705

>  <r_i_glide_einternal>  (220) 
1.61821

>  <r_i_glide_intrahb_reward>  (220) 
-0

>  <i_i_glide_confnum>  (220) 
1

>  <i_i_glide_posenum>  (220) 
9

>  <r_i_glide_eff_state_penalty>  (220) 
0

>  <ligand_id>  (220) 
65

>  <original_smiles>  (220) 
C[N+]1=C2C=CC(=O)CC2CC2C(O)CCCC21

>  <smiles>  (220) 
[H]Oc1c([H])c([H])c2c(c1[H])C([H])([H])C1([H])C([H])(O[H])C([H])([H])C([H])([H])C([H])([H])C1([H])[N+]2([H])C([H])([H])[H]

$$$$
65:1:2
     RDKit          3D

 37 39  0  0  1  0  0  0  0  0999 V2000
    5.3379   -4.8385   -1.0217 C   0  0  0  0  0  0  0  0  0  0  0  0
    4.0478   -4.1758   -0.7782 N   0  0  2  0  0  0  0  0  0  0  0  0
    3.9006   -3.0005   -1.7033 C   0  0  0  0  0  0  0  0  0  0  0  0
    3.5204   -3.2066   -3.0431 C   0  0  0  0  0  0  0  0  0  0  0  0
    3.4631   -2.1229   -3.9264 C   0  0  0  0  0  0  0  0  0  0  0  0
    3.8117   -0.8387   -3.4836 C   0  0  0  0  0  0  0  0  0  0  0  0
    3.7484    0.2260   -4.3307 O   0  0  0  0  0  0  0  0  0  0  0  0
    4.2169   -0.6530   -2.1478 C   0  0  0  0  0  0  0  0  0  0  0  0
    4.2465   -1.7158   -1.2300 C   0  0  0  0  0  0  0  0  0  0  0  0
    4.5941   -1.4551    0.2289 C   0  0  0  0  0  0  0  0  0  0  0  0
    4.7659   -2.7187    1.1131 C   0  0  1  0  0  0  0  0  0  0  0  0
    4.5734   -2.4897    2.6253 C   0  0  1  0  0  0  0  0  0  0  0  0
    5.4146   -1.4490    3.0600 O   0  0  0  0  0  0  0  0  0  0  0  0
    3.1112   -2.2084    3.0110 C   0  0  0  0  0  0  0  0  0  0  0  0
    2.1665   -3.2908    2.4713 C   0  0  0  0  0  0  0  0  0  0  0  0
    2.3809   -3.5413    0.9694 C   0  0  0  0  0  0  0  0  0  0  0  0
    3.8491   -3.8647    0.6576 C   0  0  1  0  0  0  0  0  0  0  0  0
    5.3147   -5.1157   -2.0696 H   0  0  0  0  0  0  0  0  0  0  0  0
    5.5050   -5.7165   -0.3911 H   0  0  0  0  0  0  0  0  0  0  0  0
    6.1801   -4.1486   -0.9223 H   0  0  0  0  0  0  0  0  0  0  0  0
    3.2701   -4.1874   -3.4249 H   0  0  0  0  0  0  0  0  0  0  0  0
    3.1446   -2.2724   -4.9372 H   0  0  0  0  0  0  0  0  0  0  0  0
    4.4856    0.3227   -1.8270 H   0  0  0  0  0  0  0  0  0  0  0  0
    3.5440    1.0410   -3.8865 H   0  0  0  0  0  0  0  0  0  0  0  0
    3.7707   -0.8553    0.6208 H   0  0  0  0  0  0  0  0  0  0  0  0
    5.4927   -0.8388    0.2965 H   0  0  0  0  0  0  0  0  0  0  0  0
    5.7947   -3.0559    0.9833 H   0  0  0  0  0  0  0  0  0  0  0  0
    4.8898   -3.3926    3.1509 H   0  0  0  0  0  0  0  0  0  0  0  0
    5.1193   -0.6391    2.6732 H   0  0  0  0  0  0  0  0  0  0  0  0
    3.0202   -2.1654    4.0986 H   0  0  0  0  0  0  0  0  0  0  0  0
    2.7962   -1.2319    2.6413 H   0  0  0  0  0  0  0  0  0  0  0  0
    2.3066   -4.2220    3.0186 H   0  0  0  0  0  0  0  0  0  0  0  0
    1.1388   -2.9830    2.6470 H   0  0  0  0  0  0  0  0  0  0  0  0
    1.8223   -4.4156    0.6433 H   0  0  0  0  0  0  0  0  0  0  0  0
    2.0480   -2.6730    0.4005 H   0  0  0  0  0  0  0  0  0  0  0  0
    4.0816   -4.7774    1.2087 H   0  0  0  0  0  0  0  0  0  0  0  0
    3.3682   -4.8799   -1.0403 H   0  0  0  0  0  0  0  0  0  0  0  0
  1  2  1  0
  1 18  1  0
  1 19  1  0
  1 20  1  0
  2 17  1  0
  2  3  1  0
  2 37  1  6
  3  9  2  0
  3  4  1  0
  4  5  2  0
  4 21  1  0
  5 22  1  0
  5  6  1  0
  6  7  1  0
  6  8  2  0
  7 24  1  0
  8 23  1  0
  8  9  1  0
  9 10  1  0
 10 11  1  0
 10 25  1  0
 10 26  1  0
 11 17  1  0
 11 12  1  0
 11 27  1  1
 12 13  1  0
 12 14  1  0
 12 28  1  1
 13 29  1  0
 14 15  1  0
 14 30  1  0
 14 31  1  0
 15 16  1  0
 15 32  1  0
 15 33  1  0
 16 17  1  0
 16 34  1  0
 16 35  1  0
 17 36  1  1
M  CHG  1   2   1
M  END
>  <i_m_ct_stereo_status>  (221) 
1

>  <s_m_source_file>  (221) 
/var/tmp/pbs.5076255.sched01/tmpkd0wjm76/823hn9mkkz.sdf

>  <i_m_source_file_index>  (221) 
12

>  <i_lp_mmshare_version>  (221) 
48012

>  <i_f3d_flags>  (221) 
0

>  <s_epik_input>  (221) 
W09IXVtDQEhdMVtDSDJdW0NIMl1bQ0gyXVtDQEBIXShbTitdPTJbQ0gzXSlbQ0BIXTFbQ0gyXVtDQEhdKEMyMylbQ0gyXUMoPU8pW0NIXT1bQ0hdMw==

>  <s_epik_cmdline>  (221) 
J2VwaWtfcHl0aG9uJywgJy1waHQnLCAnMi4wJywgJy1waCcsICc3LjAnLCAnLXRuJywgJzgnLCAnLW1hJywgJzIwMCcsICctaW1hZScsICc8aW5maWxlLm1hZT4nLCAnLW9tYWUnLCAnPG91dGZpbGUubWFlPic=

>  <r_epik_Ionization_Penalty>  (221) 
0.827826

>  <r_epik_Ionization_Penalty_Charging>  (221) 
0.801961

>  <r_epik_Ionization_Penalty_Neutral>  (221) 
0.0258651

>  <r_epik_State_Penalty>  (221) 
1.06671

>  <r_epik_Charging_Adjusted_Penalty>  (221) 
1.86867

>  <i_epik_Tot_Q>  (221) 
1

>  <i_epik_Tot_abs_Q>  (221) 
1

>  <s_lp_Force_Field>  (221) 
OPLS3e

>  <r_lp_Energy>  (221) 
27.555

>  <b_lp_Chiralities_Consistent>  (221) 
1

>  <s_lp_Variant>  (221) 
65:0-2

>  <s_i_glide_gridfile>  (221) 
pfpi4k_grid

>  <i_i_glide_lignum>  (221) 
12

>  <i_i_glide_rotatable_bonds>  (221) 
2

>  <r_i_docking_score>  (221) 
-4.23071

>  <r_i_glide_ligand_efficiency>  (221) 
-0.248865

>  <r_i_glide_ligand_efficiency_sa>  (221) 
-0.639902

>  <r_i_glide_ligand_efficiency_ln>  (221) 
-1.1037

>  <r_i_glide_gscore>  (221) 
-4.23071

>  <r_i_glide_lipo>  (221) 
-0.375769

>  <r_i_glide_hbond>  (221) 
-0.129797

>  <r_i_glide_metal>  (221) 
-0

>  <r_i_glide_rewards>  (221) 
-1.81149

>  <r_i_glide_evdw>  (221) 
-15.0237

>  <r_i_glide_ecoul>  (221) 
-7.55252

>  <r_i_glide_erotb>  (221) 
0

>  <r_i_glide_esite>  (221) 
-0.0295818

>  <r_i_glide_emodel>  (221) 
-26.8407

>  <r_i_glide_energy>  (221) 
-22.5763

>  <r_i_glide_einternal>  (221) 
0.967755

>  <r_i_glide_intrahb_reward>  (221) 
-0

>  <i_i_glide_confnum>  (221) 
1

>  <i_i_glide_posenum>  (221) 
1

>  <r_i_glide_eff_state_penalty>  (221) 
0

>  <ligand_id>  (221) 
65

>  <original_smiles>  (221) 
C[N+]1=C2C=CC(=O)CC2CC2C(O)CCCC21

>  <smiles>  (221) 
[H]Oc1c([H])c([H])c2c(c1[H])C([H])([H])C1([H])C([H])(O[H])C([H])([H])C([H])([H])C([H])([H])C1([H])[N+]2([H])C([H])([H])[H]

$$$$
66:0:0
     RDKit          3D

 35 38  0  0  1  0  0  0  0  0999 V2000
    4.9227   -5.4401    3.2235 O   0  0  0  0  0  0  0  0  0  0  0  0
    4.9276   -4.4401    2.5049 C   0  0  0  0  0  0  0  0  0  0  0  0
    4.9015   -4.5664    0.9801 C   0  0  0  0  0  0  0  0  0  0  0  0
    4.4674   -5.5826    0.3189 N   0  0  0  0  0  0  0  0  0  0  0  0
    3.7364   -6.6282    0.9075 C   0  0  0  0  0  0  0  0  0  0  0  0
    4.2465   -7.9452    0.9019 C   0  0  0  0  0  0  0  0  0  0  0  0
    3.5054   -9.0010    1.4732 C   0  0  0  0  0  0  0  0  0  0  0  0
    2.2462   -8.7512    2.0505 C   0  0  0  0  0  0  0  0  0  0  0  0
    1.7293   -7.4430    2.0612 C   0  0  0  0  0  0  0  0  0  0  0  0
    2.4646   -6.3888    1.4823 C   0  0  0  0  0  0  0  0  0  0  0  0
    5.5291   -3.3832    0.1880 C   0  0  1  0  0  0  0  0  0  0  0  0
    4.9860   -3.3061   -1.1713 N   0  0  0  0  0  0  0  0  0  0  0  0
    3.6818   -3.0825   -1.4411 N   0  0  0  0  0  0  0  0  0  0  0  0
    3.7278   -3.0440   -2.7623 C   0  0  0  0  0  0  0  0  0  0  0  0
    4.9864   -3.1600   -3.2772 N   0  0  0  0  0  0  0  0  0  0  0  0
    5.7802   -3.3082   -2.2664 N   0  0  0  0  0  0  0  0  0  0  0  0
    5.5190   -2.0027    0.8768 C   0  0  0  0  0  0  0  0  0  0  0  0
    5.8025   -1.0103    0.2023 O   0  0  0  0  0  0  0  0  0  0  0  0
    5.2300   -1.9215    2.3308 C   0  0  0  0  0  0  0  0  0  0  0  0
    5.2359   -0.6582    2.9655 C   0  0  0  0  0  0  0  0  0  0  0  0
    4.9778   -0.5401    4.3434 C   0  0  0  0  0  0  0  0  0  0  0  0
    4.7113   -1.6910    5.1060 C   0  0  0  0  0  0  0  0  0  0  0  0
    4.7054   -2.9529    4.4855 C   0  0  0  0  0  0  0  0  0  0  0  0
    4.9660   -3.0796    3.0995 C   0  0  0  0  0  0  0  0  0  0  0  0
    5.2123   -8.1558    0.4700 H   0  0  0  0  0  0  0  0  0  0  0  0
    3.8975  -10.0074    1.4628 H   0  0  0  0  0  0  0  0  0  0  0  0
    1.6814   -9.5619    2.4871 H   0  0  0  0  0  0  0  0  0  0  0  0
    0.7688   -7.2531    2.5113 H   0  0  0  0  0  0  0  0  0  0  0  0
    2.0601   -5.3891    1.4990 H   0  0  0  0  0  0  0  0  0  0  0  0
    6.5867   -3.6167    0.0799 H   0  0  0  0  0  0  0  0  0  0  0  0
    2.8428   -2.9132   -3.3672 H   0  0  0  0  0  0  0  0  0  0  0  0
    5.4393    0.2319    2.3948 H   0  0  0  0  0  0  0  0  0  0  0  0
    4.9852    0.4325    4.8163 H   0  0  0  0  0  0  0  0  0  0  0  0
    4.5090   -1.6112    6.1646 H   0  0  0  0  0  0  0  0  0  0  0  0
    4.4884   -3.8256    5.0845 H   0  0  0  0  0  0  0  0  0  0  0  0
  1  2  2  0
  2 24  1  0
  2  3  1  0
  3  4  2  3
  3 11  1  0
  4  5  1  0
  5 10  1  0
  5  6  2  0
  6  7  1  0
  6 25  1  0
  7  8  2  0
  7 26  1  0
  8  9  1  0
  8 27  1  0
  9 10  2  0
  9 28  1  0
 10 29  1  0
 11 12  1  0
 11 17  1  0
 11 30  1  6
 12 16  1  0
 12 13  1  0
 13 14  2  0
 14 15  1  0
 14 31  1  0
 15 16  2  0
 17 18  2  0
 17 19  1  0
 19 24  2  0
 19 20  1  0
 20 21  2  0
 20 32  1  0
 21 22  1  0
 21 33  1  0
 22 23  2  0
 22 34  1  0
 23 24  1  0
 23 35  1  0
M  END
>  <i_m_ct_stereo_status>  (222) 
1

>  <s_m_source_file>  (222) 
/var/tmp/pbs.5076255.sched01/tmpkd0wjm76/823hn9mkkz.sdf

>  <i_m_source_file_index>  (222) 
13

>  <i_lp_mmshare_version>  (222) 
48012

>  <i_f3d_flags>  (222) 
0

>  <s_epik_input>  (222) 
bjFuW2NIXW5uMVtDQEBIXShDMj1PKUMoXEMoPU8pYyhjMjMpW2NIXVtjSF1bY0hdW2NIXTMpPU5cYzRbY0hdW2NIXVtjSF1bY0hdW2NIXTQ=

>  <s_epik_cmdline>  (222) 
J2VwaWtfcHl0aG9uJywgJy1waHQnLCAnMi4wJywgJy1waCcsICc3LjAnLCAnLXRuJywgJzgnLCAnLW1hJywgJzIwMCcsICctaW1hZScsICc8aW5maWxlLm1hZT4nLCAnLW9tYWUnLCAnPG91dGZpbGUubWFlPic=

>  <r_lp_tautomer_probability>  (222) 
1

>  <r_epik_Ionization_Penalty>  (222) 
8.52263e-05

>  <r_epik_Ionization_Penalty_Charging>  (222) 
0

>  <r_epik_Ionization_Penalty_Neutral>  (222) 
8.52263e-05

>  <r_epik_State_Penalty>  (222) 
-0

>  <r_epik_Charging_Adjusted_Penalty>  (222) 
0

>  <i_epik_Tot_Q>  (222) 
0

>  <i_epik_Tot_abs_Q>  (222) 
0

>  <s_epik_Chemistry_Notes>  (222) 
This compound has an imine and may undergo hydrolysis.

>  <s_lp_Force_Field>  (222) 
OPLS3e

>  <r_lp_Energy>  (222) 
48.7723

>  <b_lp_Chiralities_Consistent>  (222) 
1

>  <s_lp_Variant>  (222) 
66:0-1

>  <s_i_glide_gridfile>  (222) 
pfpi4k_grid

>  <i_i_glide_lignum>  (222) 
13

>  <i_i_glide_rotatable_bonds>  (222) 
2

>  <r_i_docking_score>  (222) 
-3.36319

>  <r_i_glide_ligand_efficiency>  (222) 
-0.140133

>  <r_i_glide_ligand_efficiency_sa>  (222) 
-0.404213

>  <r_i_glide_ligand_efficiency_ln>  (222) 
-0.804966

>  <r_i_glide_gscore>  (222) 
-3.36319

>  <r_i_glide_lipo>  (222) 
-0.52018

>  <r_i_glide_hbond>  (222) 
0

>  <r_i_glide_metal>  (222) 
-0

>  <r_i_glide_rewards>  (222) 
-1.50973

>  <r_i_glide_evdw>  (222) 
-30.1219

>  <r_i_glide_ecoul>  (222) 
0.0074433

>  <r_i_glide_erotb>  (222) 
0.185031

>  <r_i_glide_esite>  (222) 
-0.0133366

>  <r_i_glide_emodel>  (222) 
-35.6234

>  <r_i_glide_energy>  (222) 
-30.1144

>  <r_i_glide_einternal>  (222) 
1.29175

>  <r_i_glide_intrahb_reward>  (222) 
-0

>  <i_i_glide_confnum>  (222) 
3

>  <i_i_glide_posenum>  (222) 
2

>  <r_i_glide_eff_state_penalty>  (222) 
0

>  <ligand_id>  (222) 
66

>  <original_smiles>  (222) 
O=C1C(=Nc2ccccc2)C(n2ncnn2)C(=O)c2ccccc21

>  <smiles>  (222) 
[H]c1nnn(C2([H])C(=O)c3c([H])c([H])c([H])c([H])c3C(=O)C2=Nc2c([H])c([H])c([H])c([H])c2[H])n1

$$$$
66:0:1
     RDKit          3D

 35 38  0  0  1  0  0  0  0  0999 V2000
    4.1463   -5.1562    0.3667 O   0  0  0  0  0  0  0  0  0  0  0  0
    3.4225   -4.5268    1.1377 C   0  0  0  0  0  0  0  0  0  0  0  0
    3.5034   -2.9965    1.2216 C   0  0  0  0  0  0  0  0  0  0  0  0
    3.9364   -2.2042    0.3012 N   0  0  0  0  0  0  0  0  0  0  0  0
    4.2012   -2.6314   -1.0084 C   0  0  0  0  0  0  0  0  0  0  0  0
    5.4874   -3.0504   -1.4171 C   0  0  0  0  0  0  0  0  0  0  0  0
    5.6979   -3.4506   -2.7515 C   0  0  0  0  0  0  0  0  0  0  0  0
    4.6417   -3.4341   -3.6840 C   0  0  0  0  0  0  0  0  0  0  0  0
    3.3659   -3.0056   -3.2873 C   0  0  0  0  0  0  0  0  0  0  0  0
    3.1599   -2.6103   -1.9567 C   0  0  0  0  0  0  0  0  0  0  0  0
    3.0940   -2.3775    2.5922 C   0  0  1  0  0  0  0  0  0  0  0  0
    2.7054   -0.9688    2.4622 N   0  0  0  0  0  0  0  0  0  0  0  0
    3.5203    0.0494    2.8118 N   0  0  0  0  0  0  0  0  0  0  0  0
    2.7042    1.0710    2.5943 C   0  0  0  0  0  0  0  0  0  0  0  0
    1.4616    0.7131    2.1576 N   0  0  0  0  0  0  0  0  0  0  0  0
    1.4669   -0.5770    2.0756 N   0  0  0  0  0  0  0  0  0  0  0  0
    2.0871   -3.1820    3.4427 C   0  0  0  0  0  0  0  0  0  0  0  0
    1.5503   -2.6272    4.4039 O   0  0  0  0  0  0  0  0  0  0  0  0
    1.8265   -4.6027    3.1172 C   0  0  0  0  0  0  0  0  0  0  0  0
    0.9168   -5.3343    3.9150 C   0  0  0  0  0  0  0  0  0  0  0  0
    0.6388   -6.6852    3.6339 C   0  0  0  0  0  0  0  0  0  0  0  0
    1.2849   -7.3216    2.5570 C   0  0  0  0  0  0  0  0  0  0  0  0
    2.1975   -6.6023    1.7646 C   0  0  0  0  0  0  0  0  0  0  0  0
    2.4719   -5.2402    2.0314 C   0  0  0  0  0  0  0  0  0  0  0  0
    6.3072   -3.0887   -0.7137 H   0  0  0  0  0  0  0  0  0  0  0  0
    6.6750   -3.7696   -3.0764 H   0  0  0  0  0  0  0  0  0  0  0  0
    4.8145   -3.7486   -4.7011 H   0  0  0  0  0  0  0  0  0  0  0  0
    2.5536   -2.9700   -3.9984 H   0  0  0  0  0  0  0  0  0  0  0  0
    2.1909   -2.2730   -1.6528 H   0  0  0  0  0  0  0  0  0  0  0  0
    3.9949   -2.3663    3.2021 H   0  0  0  0  0  0  0  0  0  0  0  0
    3.0011    2.0947    2.7662 H   0  0  0  0  0  0  0  0  0  0  0  0
    0.4115   -4.8586    4.7443 H   0  0  0  0  0  0  0  0  0  0  0  0
   -0.0587   -7.2392    4.2513 H   0  0  0  0  0  0  0  0  0  0  0  0
    1.0862   -8.3633    2.3391 H   0  0  0  0  0  0  0  0  0  0  0  0
    2.6842   -7.1060    0.9398 H   0  0  0  0  0  0  0  0  0  0  0  0
  1  2  2  0
  2 24  1  0
  2  3  1  0
  3  4  2  3
  3 11  1  0
  4  5  1  0
  5 10  1  0
  5  6  2  0
  6  7  1  0
  6 25  1  0
  7  8  2  0
  7 26  1  0
  8  9  1  0
  8 27  1  0
  9 10  2  0
  9 28  1  0
 10 29  1  0
 11 12  1  0
 11 17  1  0
 11 30  1  1
 12 16  1  0
 12 13  1  0
 13 14  2  0
 14 15  1  0
 14 31  1  0
 15 16  2  0
 17 18  2  0
 17 19  1  0
 19 24  2  0
 19 20  1  0
 20 21  2  0
 20 32  1  0
 21 22  1  0
 21 33  1  0
 22 23  2  0
 22 34  1  0
 23 24  1  0
 23 35  1  0
M  END
>  <i_m_ct_stereo_status>  (223) 
1

>  <s_m_source_file>  (223) 
/var/tmp/pbs.5076255.sched01/tmpkd0wjm76/823hn9mkkz.sdf

>  <i_m_source_file_index>  (223) 
13

>  <i_lp_mmshare_version>  (223) 
48012

>  <i_f3d_flags>  (223) 
0

>  <s_epik_input>  (223) 
bjFuW2NIXW5uMVtDQEBIXShDMj1PKUMoXEMoPU8pYyhjMjMpW2NIXVtjSF1bY0hdW2NIXTMpPU5cYzRbY0hdW2NIXVtjSF1bY0hdW2NIXTQ=

>  <s_epik_cmdline>  (223) 
J2VwaWtfcHl0aG9uJywgJy1waHQnLCAnMi4wJywgJy1waCcsICc3LjAnLCAnLXRuJywgJzgnLCAnLW1hJywgJzIwMCcsICctaW1hZScsICc8aW5maWxlLm1hZT4nLCAnLW9tYWUnLCAnPG91dGZpbGUubWFlPic=

>  <r_lp_tautomer_probability>  (223) 
1

>  <r_epik_Ionization_Penalty>  (223) 
8.52263e-05

>  <r_epik_Ionization_Penalty_Charging>  (223) 
0

>  <r_epik_Ionization_Penalty_Neutral>  (223) 
8.52263e-05

>  <r_epik_State_Penalty>  (223) 
-0

>  <r_epik_Charging_Adjusted_Penalty>  (223) 
0

>  <i_epik_Tot_Q>  (223) 
0

>  <i_epik_Tot_abs_Q>  (223) 
0

>  <s_epik_Chemistry_Notes>  (223) 
This compound has an imine and may undergo hydrolysis.

>  <s_lp_Force_Field>  (223) 
OPLS3e

>  <r_lp_Energy>  (223) 
48.7723

>  <b_lp_Chiralities_Consistent>  (223) 
1

>  <s_lp_Variant>  (223) 
66:0-1

>  <s_i_glide_gridfile>  (223) 
pfpi4k_grid

>  <i_i_glide_lignum>  (223) 
13

>  <i_i_glide_rotatable_bonds>  (223) 
2

>  <r_i_docking_score>  (223) 
-3.2851

>  <r_i_glide_ligand_efficiency>  (223) 
-0.136879

>  <r_i_glide_ligand_efficiency_sa>  (223) 
-0.394828

>  <r_i_glide_ligand_efficiency_ln>  (223) 
-0.786276

>  <r_i_glide_gscore>  (223) 
-3.2851

>  <r_i_glide_lipo>  (223) 
-0.608912

>  <r_i_glide_hbond>  (223) 
0

>  <r_i_glide_metal>  (223) 
-0

>  <r_i_glide_rewards>  (223) 
-1.26428

>  <r_i_glide_evdw>  (223) 
-28.741

>  <r_i_glide_ecoul>  (223) 
-0.224838

>  <r_i_glide_erotb>  (223) 
0.185031

>  <r_i_glide_esite>  (223) 
-0.126162

>  <r_i_glide_emodel>  (223) 
-33.8159

>  <r_i_glide_energy>  (223) 
-28.9659

>  <r_i_glide_einternal>  (223) 
1.97153

>  <r_i_glide_intrahb_reward>  (223) 
-0

>  <i_i_glide_confnum>  (223) 
1

>  <i_i_glide_posenum>  (223) 
14

>  <r_i_glide_eff_state_penalty>  (223) 
0

>  <ligand_id>  (223) 
66

>  <original_smiles>  (223) 
O=C1C(=Nc2ccccc2)C(n2ncnn2)C(=O)c2ccccc21

>  <smiles>  (223) 
[H]c1nnn(C2([H])C(=O)c3c([H])c([H])c([H])c([H])c3C(=O)C2=Nc2c([H])c([H])c([H])c([H])c2[H])n1

$$$$
66:0:2
     RDKit          3D

 35 38  0  0  1  0  0  0  0  0999 V2000
    3.1258   -4.8987    2.4307 O   0  0  0  0  0  0  0  0  0  0  0  0
    2.2522   -4.9420    3.2963 C   0  0  0  0  0  0  0  0  0  0  0  0
    2.3111   -4.0227    4.5228 C   0  0  0  0  0  0  0  0  0  0  0  0
    2.9215   -2.8882    4.5957 N   0  0  0  0  0  0  0  0  0  0  0  0
    3.4725   -2.2189    3.4872 C   0  0  0  0  0  0  0  0  0  0  0  0
    4.8265   -1.8159    3.4961 C   0  0  0  0  0  0  0  0  0  0  0  0
    5.3794   -1.1365    2.3870 C   0  0  0  0  0  0  0  0  0  0  0  0
    4.5812   -0.8480    1.2636 C   0  0  0  0  0  0  0  0  0  0  0  0
    3.2349   -1.2475    1.2474 C   0  0  0  0  0  0  0  0  0  0  0  0
    2.6786   -1.9067    2.3595 C   0  0  0  0  0  0  0  0  0  0  0  0
    1.6298   -4.5808    5.8012 C   0  0  1  0  0  0  0  0  0  0  0  0
    1.2987   -3.5126    6.7511 N   0  0  0  0  0  0  0  0  0  0  0  0
    1.9301   -3.3765    7.9348 N   0  0  0  0  0  0  0  0  0  0  0  0
    1.2327   -2.3738    8.4491 C   0  0  0  0  0  0  0  0  0  0  0  0
    0.2231   -1.9261    7.6467 N   0  0  0  0  0  0  0  0  0  0  0  0
    0.2722   -2.6431    6.5693 N   0  0  0  0  0  0  0  0  0  0  0  0
    0.4474   -5.5507    5.5854 C   0  0  0  0  0  0  0  0  0  0  0  0
   -0.2847   -5.8053    6.5418 O   0  0  0  0  0  0  0  0  0  0  0  0
    0.2442   -6.1697    4.2504 C   0  0  0  0  0  0  0  0  0  0  0  0
   -0.8312   -7.0674    4.0593 C   0  0  0  0  0  0  0  0  0  0  0  0
   -1.0502   -7.6700    2.8067 C   0  0  0  0  0  0  0  0  0  0  0  0
   -0.1894   -7.3844    1.7304 C   0  0  0  0  0  0  0  0  0  0  0  0
    0.8866   -6.4983    1.9109 C   0  0  0  0  0  0  0  0  0  0  0  0
    1.1106   -5.8868    3.1690 C   0  0  0  0  0  0  0  0  0  0  0  0
    5.4531   -2.0307    4.3528 H   0  0  0  0  0  0  0  0  0  0  0  0
    6.4108   -0.8231    2.3976 H   0  0  0  0  0  0  0  0  0  0  0  0
    4.9929   -0.3340    0.4100 H   0  0  0  0  0  0  0  0  0  0  0  0
    2.6181   -1.0456    0.3858 H   0  0  0  0  0  0  0  0  0  0  0  0
    1.6415   -2.1963    2.3249 H   0  0  0  0  0  0  0  0  0  0  0  0
    2.3751   -5.1864    6.3089 H   0  0  0  0  0  0  0  0  0  0  0  0
    1.4400   -1.9662    9.4256 H   0  0  0  0  0  0  0  0  0  0  0  0
   -1.4952   -7.3079    4.8753 H   0  0  0  0  0  0  0  0  0  0  0  0
   -1.8659   -8.3718    2.6786 H   0  0  0  0  0  0  0  0  0  0  0  0
   -0.3517   -7.8548    0.7699 H   0  0  0  0  0  0  0  0  0  0  0  0
    1.5366   -6.2840    1.0726 H   0  0  0  0  0  0  0  0  0  0  0  0
  1  2  2  0
  2 24  1  0
  2  3  1  0
  3  4  2  3
  3 11  1  0
  4  5  1  0
  5 10  1  0
  5  6  2  0
  6  7  1  0
  6 25  1  0
  7  8  2  0
  7 26  1  0
  8  9  1  0
  8 27  1  0
  9 10  2  0
  9 28  1  0
 10 29  1  0
 11 12  1  0
 11 17  1  0
 11 30  1  1
 12 16  1  0
 12 13  1  0
 13 14  2  0
 14 15  1  0
 14 31  1  0
 15 16  2  0
 17 18  2  0
 17 19  1  0
 19 24  2  0
 19 20  1  0
 20 21  2  0
 20 32  1  0
 21 22  1  0
 21 33  1  0
 22 23  2  0
 22 34  1  0
 23 24  1  0
 23 35  1  0
M  END
>  <i_m_ct_stereo_status>  (224) 
1

>  <s_m_source_file>  (224) 
/var/tmp/pbs.5076255.sched01/tmpkd0wjm76/823hn9mkkz.sdf

>  <i_m_source_file_index>  (224) 
13

>  <i_lp_mmshare_version>  (224) 
48012

>  <i_f3d_flags>  (224) 
0

>  <s_epik_input>  (224) 
bjFuW2NIXW5uMVtDQEBIXShDMj1PKUMoXEMoPU8pYyhjMjMpW2NIXVtjSF1bY0hdW2NIXTMpPU5cYzRbY0hdW2NIXVtjSF1bY0hdW2NIXTQ=

>  <s_epik_cmdline>  (224) 
J2VwaWtfcHl0aG9uJywgJy1waHQnLCAnMi4wJywgJy1waCcsICc3LjAnLCAnLXRuJywgJzgnLCAnLW1hJywgJzIwMCcsICctaW1hZScsICc8aW5maWxlLm1hZT4nLCAnLW9tYWUnLCAnPG91dGZpbGUubWFlPic=

>  <r_lp_tautomer_probability>  (224) 
1

>  <r_epik_Ionization_Penalty>  (224) 
8.52263e-05

>  <r_epik_Ionization_Penalty_Charging>  (224) 
0

>  <r_epik_Ionization_Penalty_Neutral>  (224) 
8.52263e-05

>  <r_epik_State_Penalty>  (224) 
-0

>  <r_epik_Charging_Adjusted_Penalty>  (224) 
0

>  <i_epik_Tot_Q>  (224) 
0

>  <i_epik_Tot_abs_Q>  (224) 
0

>  <s_epik_Chemistry_Notes>  (224) 
This compound has an imine and may undergo hydrolysis.

>  <s_lp_Force_Field>  (224) 
OPLS3e

>  <r_lp_Energy>  (224) 
48.7723

>  <b_lp_Chiralities_Consistent>  (224) 
1

>  <s_lp_Variant>  (224) 
66:0-1

>  <s_i_glide_gridfile>  (224) 
pfpi4k_grid

>  <i_i_glide_lignum>  (224) 
13

>  <i_i_glide_rotatable_bonds>  (224) 
2

>  <r_i_docking_score>  (224) 
-3.12143

>  <r_i_glide_ligand_efficiency>  (224) 
-0.13006

>  <r_i_glide_ligand_efficiency_sa>  (224) 
-0.375157

>  <r_i_glide_ligand_efficiency_ln>  (224) 
-0.747102

>  <r_i_glide_gscore>  (224) 
-3.12143

>  <r_i_glide_lipo>  (224) 
-0.252211

>  <r_i_glide_hbond>  (224) 
0

>  <r_i_glide_metal>  (224) 
-0

>  <r_i_glide_rewards>  (224) 
-1.24567

>  <r_i_glide_evdw>  (224) 
-21.8073

>  <r_i_glide_ecoul>  (224) 
-4.2268

>  <r_i_glide_erotb>  (224) 
0.185031

>  <r_i_glide_esite>  (224) 
-0.0841952

>  <r_i_glide_emodel>  (224) 
-31.1124

>  <r_i_glide_energy>  (224) 
-26.0341

>  <r_i_glide_einternal>  (224) 
1.12303

>  <r_i_glide_intrahb_reward>  (224) 
-0

>  <i_i_glide_confnum>  (224) 
3

>  <i_i_glide_posenum>  (224) 
19

>  <r_i_glide_eff_state_penalty>  (224) 
0

>  <ligand_id>  (224) 
66

>  <original_smiles>  (224) 
O=C1C(=Nc2ccccc2)C(n2ncnn2)C(=O)c2ccccc21

>  <smiles>  (224) 
[H]c1nnn(C2([H])C(=O)c3c([H])c([H])c([H])c([H])c3C(=O)C2=Nc2c([H])c([H])c([H])c([H])c2[H])n1

$$$$
66:1:0
     RDKit          3D

 35 38  0  0  1  0  0  0  0  0999 V2000
    0.2499   -6.2601    2.0536 O   0  0  0  0  0  0  0  0  0  0  0  0
    1.3374   -6.8681    1.9701 C   0  0  0  0  0  0  0  0  0  0  0  0
    2.5508   -6.1548    1.3940 C   0  0  0  0  0  0  0  0  0  0  0  0
    2.3558   -4.9522    0.9714 N   0  0  0  0  0  0  0  0  0  0  0  0
    3.2922   -4.1230    0.3269 C   0  0  0  0  0  0  0  0  0  0  0  0
    4.2002   -4.5922   -0.6478 C   0  0  0  0  0  0  0  0  0  0  0  0
    5.1328   -3.7336   -1.2215 C   0  0  0  0  0  0  0  0  0  0  0  0
    5.1400   -2.3568   -0.9010 C   0  0  0  0  0  0  0  0  0  0  0  0
    4.1832   -1.8443    0.0001 C   0  0  0  0  0  0  0  0  0  0  0  0
    3.2700   -2.7308    0.6026 C   0  0  0  0  0  0  0  0  0  0  0  0
    3.9074   -6.9428    1.3171 C   0  0  1  0  0  0  0  0  0  0  0  0
    5.0024   -6.1774    1.9038 N   0  0  0  0  0  0  0  0  0  0  0  0
    6.1212   -5.9005    1.2037 N   0  0  0  0  0  0  0  0  0  0  0  0
    6.7718   -5.1689    2.0935 C   0  0  0  0  0  0  0  0  0  0  0  0
    6.1361   -5.0779    3.2999 N   0  0  0  0  0  0  0  0  0  0  0  0
    5.0206   -5.7280    3.1965 N   0  0  0  0  0  0  0  0  0  0  0  0
    3.9197   -8.3969    1.7953 C   0  0  0  0  0  0  0  0  0  0  0  0
    4.9919   -9.0120    1.7069 O   0  0  0  0  0  0  0  0  0  0  0  0
    2.6831   -9.0043    2.3262 C   0  0  0  0  0  0  0  0  0  0  0  0
    2.7451  -10.3601    2.7323 C   0  0  0  0  0  0  0  0  0  0  0  0
    1.6024  -10.9976    3.2407 C   0  0  0  0  0  0  0  0  0  0  0  0
    0.3866  -10.2907    3.3111 C   0  0  0  0  0  0  0  0  0  0  0  0
    0.3158   -8.9512    2.8943 C   0  0  0  0  0  0  0  0  0  0  0  0
    1.4660   -8.2829    2.4058 C   0  0  0  0  0  0  0  0  0  0  0  0
    4.2170   -5.6254   -0.9633 H   0  0  0  0  0  0  0  0  0  0  0  0
    5.8553   -4.1438   -1.9088 H   0  0  0  0  0  0  0  0  0  0  0  0
    5.8855   -1.7031   -1.3479 H   0  0  0  0  0  0  0  0  0  0  0  0
    4.1519   -0.7894    0.2247 H   0  0  0  0  0  0  0  0  0  0  0  0
    2.5442   -2.3385    1.3103 H   0  0  0  0  0  0  0  0  0  0  0  0
    4.1293   -7.0418    0.2651 H   0  0  0  0  0  0  0  0  0  0  0  0
    7.6811   -4.6535    1.8726 H   0  0  0  0  0  0  0  0  0  0  0  0
    3.6660  -10.9160    2.6393 H   0  0  0  0  0  0  0  0  0  0  0  0
    1.6575  -12.0387    3.5549 H   0  0  0  0  0  0  0  0  0  0  0  0
   -0.5158  -10.7717    3.6838 H   0  0  0  0  0  0  0  0  0  0  0  0
   -0.6297   -8.4386    2.9681 H   0  0  0  0  0  0  0  0  0  0  0  0
  1  2  2  0
  2 24  1  0
  2  3  1  0
  3  4  2  3
  3 11  1  0
  4  5  1  0
  5 10  1  0
  5  6  2  0
  6  7  1  0
  6 25  1  0
  7  8  2  0
  7 26  1  0
  8  9  1  0
  8 27  1  0
  9 10  2  0
  9 28  1  0
 10 29  1  0
 11 12  1  0
 11 17  1  0
 11 30  1  6
 12 16  1  0
 12 13  1  0
 13 14  2  0
 14 15  1  0
 14 31  1  0
 15 16  2  0
 17 18  2  0
 17 19  1  0
 19 24  2  0
 19 20  1  0
 20 21  2  0
 20 32  1  0
 21 22  1  0
 21 33  1  0
 22 23  2  0
 22 34  1  0
 23 24  1  0
 23 35  1  0
M  END
>  <i_m_ct_stereo_status>  (225) 
1

>  <s_m_source_file>  (225) 
/var/tmp/pbs.5076255.sched01/tmpkd0wjm76/823hn9mkkz.sdf

>  <i_m_source_file_index>  (225) 
14

>  <i_lp_mmshare_version>  (225) 
48012

>  <i_f3d_flags>  (225) 
0

>  <s_epik_input>  (225) 
bjFuW2NIXW5uMVtDQEBIXShDMj1PKUMoXEMoPU8pYyhjMjMpW2NIXVtjSF1bY0hdW2NIXTMpPU5cYzRbY0hdW2NIXVtjSF1bY0hdW2NIXTQ=

>  <s_epik_cmdline>  (225) 
J2VwaWtfcHl0aG9uJywgJy1waHQnLCAnMi4wJywgJy1waCcsICc3LjAnLCAnLXRuJywgJzgnLCAnLW1hJywgJzIwMCcsICctaW1hZScsICc8aW5maWxlLm1hZT4nLCAnLW9tYWUnLCAnPG91dGZpbGUubWFlPic=

>  <r_lp_tautomer_probability>  (225) 
1

>  <r_epik_Ionization_Penalty>  (225) 
8.52263e-05

>  <r_epik_Ionization_Penalty_Charging>  (225) 
0

>  <r_epik_Ionization_Penalty_Neutral>  (225) 
8.52263e-05

>  <r_epik_State_Penalty>  (225) 
-0

>  <r_epik_Charging_Adjusted_Penalty>  (225) 
0

>  <i_epik_Tot_Q>  (225) 
0

>  <i_epik_Tot_abs_Q>  (225) 
0

>  <s_epik_Chemistry_Notes>  (225) 
This compound has an imine and may undergo hydrolysis.

>  <s_lp_Force_Field>  (225) 
OPLS3e

>  <r_lp_Energy>  (225) 
42.6968

>  <b_lp_Chiralities_Consistent>  (225) 
1

>  <s_lp_Variant>  (225) 
66:0-2

>  <s_i_glide_gridfile>  (225) 
pfpi4k_grid

>  <i_i_glide_lignum>  (225) 
14

>  <i_i_glide_rotatable_bonds>  (225) 
2

>  <r_i_docking_score>  (225) 
-3.43369

>  <r_i_glide_ligand_efficiency>  (225) 
-0.14307

>  <r_i_glide_ligand_efficiency_sa>  (225) 
-0.412686

>  <r_i_glide_ligand_efficiency_ln>  (225) 
-0.821839

>  <r_i_glide_gscore>  (225) 
-3.43369

>  <r_i_glide_lipo>  (225) 
-0.258875

>  <r_i_glide_hbond>  (225) 
-0.241658

>  <r_i_glide_metal>  (225) 
-0

>  <r_i_glide_rewards>  (225) 
-1.35907

>  <r_i_glide_evdw>  (225) 
-24.6254

>  <r_i_glide_ecoul>  (225) 
-3.07004

>  <r_i_glide_erotb>  (225) 
0.185031

>  <r_i_glide_esite>  (225) 
-0.0673368

>  <r_i_glide_emodel>  (225) 
-33.0084

>  <r_i_glide_energy>  (225) 
-27.6954

>  <r_i_glide_einternal>  (225) 
0.940107

>  <r_i_glide_intrahb_reward>  (225) 
-0

>  <i_i_glide_confnum>  (225) 
4

>  <i_i_glide_posenum>  (225) 
23

>  <r_i_glide_eff_state_penalty>  (225) 
0

>  <ligand_id>  (225) 
66

>  <original_smiles>  (225) 
O=C1C(=Nc2ccccc2)C(n2ncnn2)C(=O)c2ccccc21

>  <smiles>  (225) 
[H]c1nnn(C2([H])C(=O)c3c([H])c([H])c([H])c([H])c3C(=O)C2=Nc2c([H])c([H])c([H])c([H])c2[H])n1

$$$$
66:1:1
     RDKit          3D

 35 38  0  0  1  0  0  0  0  0999 V2000
    3.3375   -9.0541    1.2539 O   0  0  0  0  0  0  0  0  0  0  0  0
    2.9493   -7.9950    1.7411 C   0  0  0  0  0  0  0  0  0  0  0  0
    3.8432   -6.7793    1.6166 C   0  0  0  0  0  0  0  0  0  0  0  0
    4.9881   -6.9471    1.0423 N   0  0  0  0  0  0  0  0  0  0  0  0
    5.9688   -5.9844    0.8545 C   0  0  0  0  0  0  0  0  0  0  0  0
    7.2909   -6.2093    1.3089 C   0  0  0  0  0  0  0  0  0  0  0  0
    8.2876   -5.2108    1.1442 C   0  0  0  0  0  0  0  0  0  0  0  0
    7.9363   -3.9947    0.5133 C   0  0  0  0  0  0  0  0  0  0  0  0
    6.6399   -3.8222    0.0059 C   0  0  0  0  0  0  0  0  0  0  0  0
    5.7250   -4.8673    0.0670 C   0  0  0  0  0  0  0  0  0  0  0  0
    3.3111   -5.4135    2.2304 C   0  0  1  0  0  0  0  0  0  0  0  0
    3.2990   -4.2832    1.3070 N   0  0  0  0  0  0  0  0  0  0  0  0
    2.5761   -4.2613    0.1631 N   0  0  0  0  0  0  0  0  0  0  0  0
    2.9252   -3.0545   -0.2963 C   0  0  0  0  0  0  0  0  0  0  0  0
    3.7815   -2.3545    0.5267 N   0  0  0  0  0  0  0  0  0  0  0  0
    4.0005   -3.1342    1.5398 N   0  0  0  0  0  0  0  0  0  0  0  0
    1.9488   -5.4214    2.9481 C   0  0  0  0  0  0  0  0  0  0  0  0
    1.5205   -4.3719    3.4384 O   0  0  0  0  0  0  0  0  0  0  0  0
    1.1947   -6.6758    3.0355 C   0  0  0  0  0  0  0  0  0  0  0  0
   -0.0566   -6.6596    3.6820 C   0  0  0  0  0  0  0  0  0  0  0  0
   -0.8443   -7.8210    3.7879 C   0  0  0  0  0  0  0  0  0  0  0  0
   -0.3665   -9.0311    3.2586 C   0  0  0  0  0  0  0  0  0  0  0  0
    0.8716   -9.0571    2.5943 C   0  0  0  0  0  0  0  0  0  0  0  0
    1.6564   -7.8829    2.4661 C   0  0  0  0  0  0  0  0  0  0  0  0
    7.5585   -7.1354    1.8082 H   0  0  0  0  0  0  0  0  0  0  0  0
    9.3123   -5.3901    1.5000 H   0  0  0  0  0  0  0  0  0  0  0  0
    8.6688   -3.2022    0.4370 H   0  0  0  0  0  0  0  0  0  0  0  0
    6.3753   -2.8933   -0.4685 H   0  0  0  0  0  0  0  0  0  0  0  0
    4.7959   -4.7753   -0.4544 H   0  0  0  0  0  0  0  0  0  0  0  0
    4.0397   -5.1529    3.0072 H   0  0  0  0  0  0  0  0  0  0  0  0
    2.6019   -2.6837   -1.2661 H   0  0  0  0  0  0  0  0  0  0  0  0
   -0.4373   -5.7439    4.1018 H   0  0  0  0  0  0  0  0  0  0  0  0
   -1.8019   -7.7847    4.3042 H   0  0  0  0  0  0  0  0  0  0  0  0
   -0.9587   -9.9255    3.3542 H   0  0  0  0  0  0  0  0  0  0  0  0
    1.2084  -10.0073    2.1943 H   0  0  0  0  0  0  0  0  0  0  0  0
  1  2  2  0
  2 24  1  0
  2  3  1  0
  3  4  2  3
  3 11  1  0
  4  5  1  0
  5 10  1  0
  5  6  2  0
  6  7  1  0
  6 25  1  0
  7  8  2  0
  7 26  1  0
  8  9  1  0
  8 27  1  0
  9 10  2  0
  9 28  1  0
 10 29  1  0
 11 12  1  0
 11 17  1  0
 11 30  1  1
 12 16  1  0
 12 13  1  0
 13 14  2  0
 14 15  1  0
 14 31  1  0
 15 16  2  0
 17 18  2  0
 17 19  1  0
 19 24  2  0
 19 20  1  0
 20 21  2  0
 20 32  1  0
 21 22  1  0
 21 33  1  0
 22 23  2  0
 22 34  1  0
 23 24  1  0
 23 35  1  0
M  END
>  <i_m_ct_stereo_status>  (226) 
1

>  <s_m_source_file>  (226) 
/var/tmp/pbs.5076255.sched01/tmpkd0wjm76/823hn9mkkz.sdf

>  <i_m_source_file_index>  (226) 
14

>  <i_lp_mmshare_version>  (226) 
48012

>  <i_f3d_flags>  (226) 
0

>  <s_epik_input>  (226) 
bjFuW2NIXW5uMVtDQEBIXShDMj1PKUMoXEMoPU8pYyhjMjMpW2NIXVtjSF1bY0hdW2NIXTMpPU5cYzRbY0hdW2NIXVtjSF1bY0hdW2NIXTQ=

>  <s_epik_cmdline>  (226) 
J2VwaWtfcHl0aG9uJywgJy1waHQnLCAnMi4wJywgJy1waCcsICc3LjAnLCAnLXRuJywgJzgnLCAnLW1hJywgJzIwMCcsICctaW1hZScsICc8aW5maWxlLm1hZT4nLCAnLW9tYWUnLCAnPG91dGZpbGUubWFlPic=

>  <r_lp_tautomer_probability>  (226) 
1

>  <r_epik_Ionization_Penalty>  (226) 
8.52263e-05

>  <r_epik_Ionization_Penalty_Charging>  (226) 
0

>  <r_epik_Ionization_Penalty_Neutral>  (226) 
8.52263e-05

>  <r_epik_State_Penalty>  (226) 
-0

>  <r_epik_Charging_Adjusted_Penalty>  (226) 
0

>  <i_epik_Tot_Q>  (226) 
0

>  <i_epik_Tot_abs_Q>  (226) 
0

>  <s_epik_Chemistry_Notes>  (226) 
This compound has an imine and may undergo hydrolysis.

>  <s_lp_Force_Field>  (226) 
OPLS3e

>  <r_lp_Energy>  (226) 
42.6968

>  <b_lp_Chiralities_Consistent>  (226) 
1

>  <s_lp_Variant>  (226) 
66:0-2

>  <s_i_glide_gridfile>  (226) 
pfpi4k_grid

>  <i_i_glide_lignum>  (226) 
14

>  <i_i_glide_rotatable_bonds>  (226) 
2

>  <r_i_docking_score>  (226) 
-3.21522

>  <r_i_glide_ligand_efficiency>  (226) 
-0.133968

>  <r_i_glide_ligand_efficiency_sa>  (226) 
-0.386429

>  <r_i_glide_ligand_efficiency_ln>  (226) 
-0.76955

>  <r_i_glide_gscore>  (226) 
-3.21522

>  <r_i_glide_lipo>  (226) 
-0.556928

>  <r_i_glide_hbond>  (226) 
0

>  <r_i_glide_metal>  (226) 
-0

>  <r_i_glide_rewards>  (226) 
-1.32159

>  <r_i_glide_evdw>  (226) 
-28.4131

>  <r_i_glide_ecoul>  (226) 
-0.245341

>  <r_i_glide_erotb>  (226) 
0.185031

>  <r_i_glide_esite>  (226) 
-0.0642772

>  <r_i_glide_emodel>  (226) 
-30.9784

>  <r_i_glide_energy>  (226) 
-28.6585

>  <r_i_glide_einternal>  (226) 
0.832474

>  <r_i_glide_intrahb_reward>  (226) 
-0

>  <i_i_glide_confnum>  (226) 
3

>  <i_i_glide_posenum>  (226) 
40

>  <r_i_glide_eff_state_penalty>  (226) 
0

>  <ligand_id>  (226) 
66

>  <original_smiles>  (226) 
O=C1C(=Nc2ccccc2)C(n2ncnn2)C(=O)c2ccccc21

>  <smiles>  (226) 
[H]c1nnn(C2([H])C(=O)c3c([H])c([H])c([H])c([H])c3C(=O)C2=Nc2c([H])c([H])c([H])c([H])c2[H])n1

$$$$
66:1:2
     RDKit          3D

 35 38  0  0  1  0  0  0  0  0999 V2000
    0.1651   -6.6547    0.9489 O   0  0  0  0  0  0  0  0  0  0  0  0
    1.1944   -6.8749    1.5977 C   0  0  0  0  0  0  0  0  0  0  0  0
    2.3747   -5.9302    1.4365 C   0  0  0  0  0  0  0  0  0  0  0  0
    2.2382   -4.9809    0.5826 N   0  0  0  0  0  0  0  0  0  0  0  0
    3.2583   -4.1118    0.2033 C   0  0  0  0  0  0  0  0  0  0  0  0
    3.0704   -2.7249    0.3624 C   0  0  0  0  0  0  0  0  0  0  0  0
    4.0826   -1.8207   -0.0035 C   0  0  0  0  0  0  0  0  0  0  0  0
    5.2901   -2.3069   -0.5416 C   0  0  0  0  0  0  0  0  0  0  0  0
    5.4768   -3.6892   -0.7310 C   0  0  0  0  0  0  0  0  0  0  0  0
    4.4556   -4.5860   -0.3785 C   0  0  0  0  0  0  0  0  0  0  0  0
    3.6613   -6.1731    2.2893 C   0  0  1  0  0  0  0  0  0  0  0  0
    4.0695   -4.9540    2.9880 N   0  0  0  0  0  0  0  0  0  0  0  0
    5.1900   -4.2758    2.6677 N   0  0  0  0  0  0  0  0  0  0  0  0
    5.0913   -3.2615    3.5140 C   0  0  0  0  0  0  0  0  0  0  0  0
    4.0341   -3.3619    4.3723 N   0  0  0  0  0  0  0  0  0  0  0  0
    3.3758   -4.4170    4.0208 N   0  0  0  0  0  0  0  0  0  0  0  0
    3.6554   -7.3812    3.2321 C   0  0  0  0  0  0  0  0  0  0  0  0
    4.6673   -7.5623    3.9074 O   0  0  0  0  0  0  0  0  0  0  0  0
    2.4686   -8.2657    3.3012 C   0  0  0  0  0  0  0  0  0  0  0  0
    2.4992   -9.3645    4.1926 C   0  0  0  0  0  0  0  0  0  0  0  0
    1.3930  -10.2296    4.3031 C   0  0  0  0  0  0  0  0  0  0  0  0
    0.2556  -10.0057    3.5089 C   0  0  0  0  0  0  0  0  0  0  0  0
    0.2088   -8.9149    2.6249 C   0  0  0  0  0  0  0  0  0  0  0  0
    1.3096   -8.0291    2.5231 C   0  0  0  0  0  0  0  0  0  0  0  0
    2.1426   -2.3573    0.7694 H   0  0  0  0  0  0  0  0  0  0  0  0
    3.9199   -0.7622    0.1376 H   0  0  0  0  0  0  0  0  0  0  0  0
    6.0714   -1.6142   -0.7959 H   0  0  0  0  0  0  0  0  0  0  0  0
    6.4049   -4.0616   -1.1295 H   0  0  0  0  0  0  0  0  0  0  0  0
    4.5997   -5.6386   -0.5544 H   0  0  0  0  0  0  0  0  0  0  0  0
    4.4676   -6.3967    1.5898 H   0  0  0  0  0  0  0  0  0  0  0  0
    5.7973   -2.4425    3.5147 H   0  0  0  0  0  0  0  0  0  0  0  0
    3.3640   -9.5442    4.8125 H   0  0  0  0  0  0  0  0  0  0  0  0
    1.4144  -11.0688    4.9924 H   0  0  0  0  0  0  0  0  0  0  0  0
   -0.5858  -10.6747    3.5869 H   0  0  0  0  0  0  0  0  0  0  0  0
   -0.6754   -8.7606    2.0201 H   0  0  0  0  0  0  0  0  0  0  0  0
  1  2  2  0
  2 24  1  0
  2  3  1  0
  3  4  2  3
  3 11  1  0
  4  5  1  0
  5 10  1  0
  5  6  2  0
  6  7  1  0
  6 25  1  0
  7  8  2  0
  7 26  1  0
  8  9  1  0
  8 27  1  0
  9 10  2  0
  9 28  1  0
 10 29  1  0
 11 12  1  0
 11 17  1  0
 11 30  1  6
 12 16  1  0
 12 13  1  0
 13 14  2  0
 14 15  1  0
 14 31  1  0
 15 16  2  0
 17 18  2  0
 17 19  1  0
 19 24  2  0
 19 20  1  0
 20 21  2  0
 20 32  1  0
 21 22  1  0
 21 33  1  0
 22 23  2  0
 22 34  1  0
 23 24  1  0
 23 35  1  0
M  END
>  <i_m_ct_stereo_status>  (227) 
1

>  <s_m_source_file>  (227) 
/var/tmp/pbs.5076255.sched01/tmpkd0wjm76/823hn9mkkz.sdf

>  <i_m_source_file_index>  (227) 
14

>  <i_lp_mmshare_version>  (227) 
48012

>  <i_f3d_flags>  (227) 
0

>  <s_epik_input>  (227) 
bjFuW2NIXW5uMVtDQEBIXShDMj1PKUMoXEMoPU8pYyhjMjMpW2NIXVtjSF1bY0hdW2NIXTMpPU5cYzRbY0hdW2NIXVtjSF1bY0hdW2NIXTQ=

>  <s_epik_cmdline>  (227) 
J2VwaWtfcHl0aG9uJywgJy1waHQnLCAnMi4wJywgJy1waCcsICc3LjAnLCAnLXRuJywgJzgnLCAnLW1hJywgJzIwMCcsICctaW1hZScsICc8aW5maWxlLm1hZT4nLCAnLW9tYWUnLCAnPG91dGZpbGUubWFlPic=

>  <r_lp_tautomer_probability>  (227) 
1

>  <r_epik_Ionization_Penalty>  (227) 
8.52263e-05

>  <r_epik_Ionization_Penalty_Charging>  (227) 
0

>  <r_epik_Ionization_Penalty_Neutral>  (227) 
8.52263e-05

>  <r_epik_State_Penalty>  (227) 
-0

>  <r_epik_Charging_Adjusted_Penalty>  (227) 
0

>  <i_epik_Tot_Q>  (227) 
0

>  <i_epik_Tot_abs_Q>  (227) 
0

>  <s_epik_Chemistry_Notes>  (227) 
This compound has an imine and may undergo hydrolysis.

>  <s_lp_Force_Field>  (227) 
OPLS3e

>  <r_lp_Energy>  (227) 
42.6968

>  <b_lp_Chiralities_Consistent>  (227) 
1

>  <s_lp_Variant>  (227) 
66:0-2

>  <s_i_glide_gridfile>  (227) 
pfpi4k_grid

>  <i_i_glide_lignum>  (227) 
14

>  <i_i_glide_rotatable_bonds>  (227) 
2

>  <r_i_docking_score>  (227) 
-2.96615

>  <r_i_glide_ligand_efficiency>  (227) 
-0.123589

>  <r_i_glide_ligand_efficiency_sa>  (227) 
-0.356493

>  <r_i_glide_ligand_efficiency_ln>  (227) 
-0.709935

>  <r_i_glide_gscore>  (227) 
-2.96615

>  <r_i_glide_lipo>  (227) 
-0.0637815

>  <r_i_glide_hbond>  (227) 
-0.177038

>  <r_i_glide_metal>  (227) 
-0

>  <r_i_glide_rewards>  (227) 
-1.31052

>  <r_i_glide_evdw>  (227) 
-24.1775

>  <r_i_glide_ecoul>  (227) 
-2.09025

>  <r_i_glide_erotb>  (227) 
0.185031

>  <r_i_glide_esite>  (227) 
-0.0774227

>  <r_i_glide_emodel>  (227) 
-31.0597

>  <r_i_glide_energy>  (227) 
-26.2678

>  <r_i_glide_einternal>  (227) 
1.08684

>  <r_i_glide_intrahb_reward>  (227) 
-0

>  <i_i_glide_confnum>  (227) 
2

>  <i_i_glide_posenum>  (227) 
6

>  <r_i_glide_eff_state_penalty>  (227) 
0

>  <ligand_id>  (227) 
66

>  <original_smiles>  (227) 
O=C1C(=Nc2ccccc2)C(n2ncnn2)C(=O)c2ccccc21

>  <smiles>  (227) 
[H]c1nnn(C2([H])C(=O)c3c([H])c([H])c([H])c([H])c3C(=O)C2=Nc2c([H])c([H])c([H])c([H])c2[H])n1

$$$$
67:0:0
     RDKit          3D

 67 71  0  0  1  0  0  0  0  0999 V2000
   -2.1425    2.2470    4.1292 C   0  0  0  0  0  0  0  0  0  0  0  0
   -1.1692    2.2791    5.3316 C   0  0  0  0  0  0  0  0  0  0  0  0
   -1.9643    1.8277    6.5770 C   0  0  0  0  0  0  0  0  0  0  0  0
   -0.1458    1.2832    5.1101 O   0  0  0  0  0  0  0  0  0  0  0  0
    1.1938    1.7505    4.8644 C   0  0  1  0  0  0  0  0  0  0  0  0
    1.1322    2.9262    3.7833 C   0  0  1  0  0  0  0  0  0  0  0  0
    0.7978    2.4587    2.4905 O   0  0  0  0  0  0  0  0  0  0  0  0
    0.2417    4.1246    4.2455 C   0  0  1  0  0  0  0  0  0  0  0  0
   -0.6629    4.6814    3.3026 O   0  0  0  0  0  0  0  0  0  0  0  0
   -0.4945    3.6776    5.5306 C   0  0  2  0  0  0  0  0  0  0  0  0
    0.5835    3.5552    6.6224 C   0  0  0  0  0  0  0  0  0  0  0  0
    1.6374    2.4879    6.1872 C   0  0  1  0  0  0  0  0  0  0  0  0
    2.1157    1.6145    7.3602 C   0  0  1  0  0  0  0  0  0  0  0  0
    1.0320    1.1032    8.1016 O   0  0  0  0  0  0  0  0  0  0  0  0
    3.0707    0.5084    6.8952 C   0  0  1  0  0  0  0  0  0  0  0  0
    3.6123   -0.1809    8.0163 O   0  0  0  0  0  0  0  0  0  0  0  0
    2.6220   -0.4034    5.7100 C   0  0  1  0  0  0  0  0  0  0  0  0
    2.0446   -1.8919    5.9480 C   0  0  1  0  0  0  0  0  0  0  0  0
    3.1755   -2.8060    6.5278 C   0  0  0  0  0  0  0  0  0  0  0  0
    0.7216   -2.0727    6.8226 C   0  0  1  0  0  0  0  0  0  0  0  0
   -0.2329   -1.0832    6.5212 O   0  0  0  0  0  0  0  0  0  0  0  0
    0.0144   -3.4357    6.5599 C   0  0  0  0  0  0  0  0  0  0  0  0
   -0.6673   -3.8244    7.8632 C   0  0  0  0  0  0  0  0  0  0  0  0
    0.0732   -3.1162    8.8618 O   0  0  0  0  0  0  0  0  0  0  0  0
    0.8620   -2.1427    8.3520 C   0  0  0  0  0  0  0  0  0  0  0  0
    1.5680   -1.3782    9.0430 O   0  0  0  0  0  0  0  0  0  0  0  0
    1.8770   -2.4865    4.5097 C   0  0  0  0  0  0  0  0  0  0  0  0
    0.8784   -1.7215    3.6582 C   0  0  0  0  0  0  0  0  0  0  0  0
    1.4792   -0.3692    3.3099 C   0  0  0  0  0  0  0  0  0  0  0  0
    2.1197    0.4957    4.4688 C   0  0  1  0  0  0  0  0  0  0  0  0
    3.4189    1.0694    3.8213 C   0  0  0  0  0  0  0  0  0  0  0  0
   -2.8963    3.0296    4.2007 H   0  0  0  0  0  0  0  0  0  0  0  0
   -2.6357    1.2862    4.0815 H   0  0  0  0  0  0  0  0  0  0  0  0
   -1.6401    2.3471    3.1707 H   0  0  0  0  0  0  0  0  0  0  0  0
   -2.7129    2.5646    6.8627 H   0  0  0  0  0  0  0  0  0  0  0  0
   -1.3225    1.6594    7.4375 H   0  0  0  0  0  0  0  0  0  0  0  0
   -2.4745    0.8865    6.3895 H   0  0  0  0  0  0  0  0  0  0  0  0
    2.1290    3.3544    3.6859 H   0  0  0  0  0  0  0  0  0  0  0  0
    0.6268    3.2160    1.8893 H   0  0  0  0  0  0  0  0  0  0  0  0
    0.9061    4.9522    4.5185 H   0  0  0  0  0  0  0  0  0  0  0  0
   -0.2732    4.6258    2.3897 H   0  0  0  0  0  0  0  0  0  0  0  0
   -1.2320    4.4269    5.8167 H   0  0  0  0  0  0  0  0  0  0  0  0
    1.0797    4.5142    6.7735 H   0  0  0  0  0  0  0  0  0  0  0  0
    0.1129    3.3381    7.5816 H   0  0  0  0  0  0  0  0  0  0  0  0
    2.5293    3.0524    5.9109 H   0  0  0  0  0  0  0  0  0  0  0  0
    2.6730    2.2741    8.0365 H   0  0  0  0  0  0  0  0  0  0  0  0
    1.3648    0.7587    8.9211 H   0  0  0  0  0  0  0  0  0  0  0  0
    3.9368    1.0508    6.5323 H   0  0  0  0  0  0  0  0  0  0  0  0
    2.9375   -0.6758    8.4624 H   0  0  0  0  0  0  0  0  0  0  0  0
    3.6203   -0.6971    5.3638 H   0  0  0  0  0  0  0  0  0  0  0  0
    2.9069   -3.8544    6.4674 H   0  0  0  0  0  0  0  0  0  0  0  0
    3.3920   -2.6087    7.5723 H   0  0  0  0  0  0  0  0  0  0  0  0
    4.1313   -2.7193    5.9964 H   0  0  0  0  0  0  0  0  0  0  0  0
    0.1928   -0.2453    6.3748 H   0  0  0  0  0  0  0  0  0  0  0  0
   -0.6805   -3.4144    5.7153 H   0  0  0  0  0  0  0  0  0  0  0  0
    0.7341   -4.2288    6.3516 H   0  0  0  0  0  0  0  0  0  0  0  0
   -1.7125   -3.4944    7.8797 H   0  0  0  0  0  0  0  0  0  0  0  0
   -0.6028   -4.9005    8.0466 H   0  0  0  0  0  0  0  0  0  0  0  0
    2.8315   -2.4718    3.9619 H   0  0  0  0  0  0  0  0  0  0  0  0
    1.6073   -3.5416    4.4984 H   0  0  0  0  0  0  0  0  0  0  0  0
    0.6969   -2.2653    2.7295 H   0  0  0  0  0  0  0  0  0  0  0  0
   -0.0957   -1.6296    4.1248 H   0  0  0  0  0  0  0  0  0  0  0  0
    2.2300   -0.5602    2.5387 H   0  0  0  0  0  0  0  0  0  0  0  0
    0.6846    0.1570    2.7957 H   0  0  0  0  0  0  0  0  0  0  0  0
    4.1287    0.2786    3.5861 H   0  0  0  0  0  0  0  0  0  0  0  0
    3.9217    1.7877    4.4659 H   0  0  0  0  0  0  0  0  0  0  0  0
    3.2178    1.5571    2.8703 H   0  0  0  0  0  0  0  0  0  0  0  0
  1  2  1  0
  1 32  1  0
  1 33  1  0
  1 34  1  0
  2 10  1  0
  2  3  1  0
  2  4  1  0
  3 35  1  0
  3 36  1  0
  3 37  1  0
  5  4  1  1
  5 12  1  0
  5 30  1  0
  5  6  1  0
  6  7  1  0
  6  8  1  0
  6 38  1  6
  7 39  1  0
  8  9  1  0
  8 10  1  0
  8 40  1  1
  9 41  1  0
 10 11  1  0
 10 42  1  1
 11 12  1  0
 11 43  1  0
 11 44  1  0
 12 13  1  0
 12 45  1  6
 13 14  1  0
 13 15  1  0
 13 46  1  1
 14 47  1  0
 15 16  1  0
 15 17  1  0
 15 48  1  6
 16 49  1  0
 17 30  1  0
 17 18  1  0
 17 50  1  6
 18 19  1  1
 18 20  1  0
 18 27  1  0
 19 51  1  0
 19 52  1  0
 19 53  1  0
 20 25  1  0
 20 21  1  1
 20 22  1  0
 21 54  1  0
 22 23  1  0
 22 55  1  0
 22 56  1  0
 23 24  1  0
 23 57  1  0
 23 58  1  0
 24 25  1  0
 25 26  2  0
 27 28  1  0
 27 59  1  0
 27 60  1  0
 28 29  1  0
 28 61  1  0
 28 62  1  0
 29 30  1  0
 29 63  1  0
 29 64  1  0
 30 31  1  6
 31 65  1  0
 31 66  1  0
 31 67  1  0
M  END
>  <i_m_ct_stereo_status>  (228) 
1

>  <s_m_source_file>  (228) 
/var/tmp/pbs.5076255.sched01/tmpkd0wjm76/823hn9mkkz.sdf

>  <i_m_source_file_index>  (228) 
15

>  <i_lp_mmshare_version>  (228) 
48012

>  <i_f3d_flags>  (228) 
0

>  <s_epik_input>  (228) 
W09IXVtDQEhdMVtDQEBIXShbT0hdKVtDQEBIXShDKE8yKShbQ0gzXSlbQ0gzXSlbQ0gyXVtDQEhdKFtDQF0xMjMpW0NAQEhdKFtPSF0pW0NAQEhdKFtPSF0pW0NAQEhdNFtDQEBdMyhbQ0gzXSlbQ0gyXVtDSDJdW0NIMl1bQ0BdNChbQ0gzXSlbQ0BAXTUoW09IXSlbQ0gyXVtDSDJdT0M1PU8=

>  <s_epik_cmdline>  (228) 
J2VwaWtfcHl0aG9uJywgJy1waHQnLCAnMi4wJywgJy1waCcsICc3LjAnLCAnLXRuJywgJzgnLCAnLW1hJywgJzIwMCcsICctaW1hZScsICc8aW5maWxlLm1hZT4nLCAnLW9tYWUnLCAnPG91dGZpbGUubWFlPic=

>  <r_lp_tautomer_probability>  (228) 
1

>  <r_epik_Ionization_Penalty>  (228) 
5.67944e-07

>  <r_epik_Ionization_Penalty_Charging>  (228) 
0

>  <r_epik_Ionization_Penalty_Neutral>  (228) 
5.67944e-07

>  <r_epik_State_Penalty>  (228) 
-0

>  <r_epik_Charging_Adjusted_Penalty>  (228) 
0

>  <i_epik_Tot_Q>  (228) 
0

>  <i_epik_Tot_abs_Q>  (228) 
0

>  <s_epik_Chemistry_Notes>  (228) 
This compound has an ester and may undergo hydrolysis at high or low pH.

>  <s_lp_Force_Field>  (228) 
OPLS3e

>  <r_lp_Energy>  (228) 
95.1191

>  <b_lp_Chiralities_Consistent>  (228) 
1

>  <s_lp_Variant>  (228) 
67:0-1

>  <s_i_glide_gridfile>  (228) 
pfpi4k_grid

>  <i_i_glide_lignum>  (228) 
15

>  <i_i_glide_rotatable_bonds>  (228) 
6

>  <r_i_docking_score>  (228) 
-4.51191

>  <r_i_glide_ligand_efficiency>  (228) 
-0.145545

>  <r_i_glide_ligand_efficiency_sa>  (228) 
-0.457213

>  <r_i_glide_ligand_efficiency_ln>  (228) 
-1.01757

>  <r_i_glide_gscore>  (228) 
-4.51191

>  <r_i_glide_lipo>  (228) 
-0.00344137

>  <r_i_glide_hbond>  (228) 
-0.0310754

>  <r_i_glide_metal>  (228) 
-0

>  <r_i_glide_rewards>  (228) 
-1.9055

>  <r_i_glide_evdw>  (228) 
-19.1044

>  <r_i_glide_ecoul>  (228) 
-11.2898

>  <r_i_glide_erotb>  (228) 
0.102891

>  <r_i_glide_esite>  (228) 
-0.0260987

>  <r_i_glide_emodel>  (228) 
-54.2351

>  <r_i_glide_energy>  (228) 
-30.3941

>  <r_i_glide_einternal>  (228) 
3.59822

>  <r_i_glide_intrahb_reward>  (228) 
-1.5

>  <i_i_glide_confnum>  (228) 
4

>  <i_i_glide_posenum>  (228) 
8

>  <r_i_glide_eff_state_penalty>  (228) 
0

>  <ligand_id>  (228) 
67

>  <original_smiles>  (228) 
CC1(C)OC23C(O)C(O)C1CC2C(O)C(O)C1C(C)(C2(O)CCOC2=O)CCCC13C

>  <smiles>  (228) 
[H]OC1([H])C([H])(O[H])C23OC(C([H])([H])[H])(C([H])([H])[H])C1([H])C([H])([H])C2([H])C([H])(O[H])C([H])(O[H])C1([H])C(C([H])([H])[H])(C2(O[H])C(=O)OC([H])([H])C2([H])[H])C([H])([H])C([H])([H])C([H])([H])C13C([H])([H])[H]

$$$$
67:0:1
     RDKit          3D

 67 71  0  0  1  0  0  0  0  0999 V2000
   -2.1604    2.2556    4.1260 C   0  0  0  0  0  0  0  0  0  0  0  0
   -1.1861    2.2822    5.3268 C   0  0  0  0  0  0  0  0  0  0  0  0
   -1.9938    1.8368    6.5718 C   0  0  0  0  0  0  0  0  0  0  0  0
   -0.1703    1.2742    5.0955 O   0  0  0  0  0  0  0  0  0  0  0  0
    1.1727    1.7405    4.8604 C   0  0  1  0  0  0  0  0  0  0  0  0
    1.1181    2.9110    3.7801 C   0  0  1  0  0  0  0  0  0  0  0  0
    0.7985    2.4910    2.4429 O   0  0  0  0  0  0  0  0  0  0  0  0
    0.2359    4.1222    4.2451 C   0  0  1  0  0  0  0  0  0  0  0  0
   -0.6673    4.6831    3.3062 O   0  0  0  0  0  0  0  0  0  0  0  0
   -0.5000    3.6822    5.5268 C   0  0  2  0  0  0  0  0  0  0  0  0
    0.5669    3.5550    6.6205 C   0  0  0  0  0  0  0  0  0  0  0  0
    1.6105    2.4722    6.1821 C   0  0  1  0  0  0  0  0  0  0  0  0
    2.0695    1.5869    7.3571 C   0  0  1  0  0  0  0  0  0  0  0  0
    0.9961    1.1064    8.1192 O   0  0  0  0  0  0  0  0  0  0  0  0
    3.0335    0.4867    6.8970 C   0  0  1  0  0  0  0  0  0  0  0  0
    3.5601   -0.2267    8.0156 O   0  0  0  0  0  0  0  0  0  0  0  0
    2.5774   -0.4228    5.7219 C   0  0  1  0  0  0  0  0  0  0  0  0
    1.9831   -1.9138    5.9723 C   0  0  1  0  0  0  0  0  0  0  0  0
    3.1186   -2.8267    6.5532 C   0  0  0  0  0  0  0  0  0  0  0  0
    0.6590   -2.1074    6.8395 C   0  0  1  0  0  0  0  0  0  0  0  0
   -0.3291   -1.1584    6.5298 O   0  0  0  0  0  0  0  0  0  0  0  0
   -0.0438   -3.4738    6.5934 C   0  0  0  0  0  0  0  0  0  0  0  0
   -0.7535   -3.8486    7.9000 C   0  0  0  0  0  0  0  0  0  0  0  0
   -0.0275   -3.1198    8.9071 O   0  0  0  0  0  0  0  0  0  0  0  0
    0.7993   -2.1677    8.3739 C   0  0  0  0  0  0  0  0  0  0  0  0
    1.5386   -1.4380    9.0652 O   0  0  0  0  0  0  0  0  0  0  0  0
    1.8224   -2.5061    4.5272 C   0  0  0  0  0  0  0  0  0  0  0  0
    0.8471   -1.7413    3.6508 C   0  0  0  0  0  0  0  0  0  0  0  0
    1.4487   -0.3884    3.3112 C   0  0  0  0  0  0  0  0  0  0  0  0
    2.0887    0.4774    4.4731 C   0  0  1  0  0  0  0  0  0  0  0  0
    3.3961    1.0426    3.8356 C   0  0  0  0  0  0  0  0  0  0  0  0
   -2.9083    3.0424    4.2041 H   0  0  0  0  0  0  0  0  0  0  0  0
   -2.6519    1.2955    4.0826 H   0  0  0  0  0  0  0  0  0  0  0  0
   -1.6533    2.3529    3.1730 H   0  0  0  0  0  0  0  0  0  0  0  0
   -2.7389    2.5796    6.8485 H   0  0  0  0  0  0  0  0  0  0  0  0
   -1.3605    1.6653    7.4370 H   0  0  0  0  0  0  0  0  0  0  0  0
   -2.5088    0.8973    6.3811 H   0  0  0  0  0  0  0  0  0  0  0  0
    2.1166    3.3337    3.6982 H   0  0  0  0  0  0  0  0  0  0  0  0
    0.6480    3.2310    1.8634 H   0  0  0  0  0  0  0  0  0  0  0  0
    0.8998    4.9352    4.5172 H   0  0  0  0  0  0  0  0  0  0  0  0
   -0.3021    4.5995    2.3922 H   0  0  0  0  0  0  0  0  0  0  0  0
   -1.2356    4.4262    5.8139 H   0  0  0  0  0  0  0  0  0  0  0  0
    1.0752    4.5122    6.7674 H   0  0  0  0  0  0  0  0  0  0  0  0
    0.0918    3.3517    7.5861 H   0  0  0  0  0  0  0  0  0  0  0  0
    2.5087    3.0367    5.9199 H   0  0  0  0  0  0  0  0  0  0  0  0
    2.6200    2.2357    8.0541 H   0  0  0  0  0  0  0  0  0  0  0  0
    0.6328    1.8523    8.5854 H   0  0  0  0  0  0  0  0  0  0  0  0
    3.8852    1.0404    6.5325 H   0  0  0  0  0  0  0  0  0  0  0  0
    2.8633   -0.5852    8.5342 H   0  0  0  0  0  0  0  0  0  0  0  0
    3.5791   -0.7238    5.3887 H   0  0  0  0  0  0  0  0  0  0  0  0
    2.8405   -3.8717    6.4943 H   0  0  0  0  0  0  0  0  0  0  0  0
    3.3288   -2.6244    7.5972 H   0  0  0  0  0  0  0  0  0  0  0  0
    4.0784   -2.7480    6.0263 H   0  0  0  0  0  0  0  0  0  0  0  0
   -0.2359   -0.8878    5.6279 H   0  0  0  0  0  0  0  0  0  0  0  0
   -0.7252   -3.4409    5.7328 H   0  0  0  0  0  0  0  0  0  0  0  0
    0.6854   -4.2674    6.3843 H   0  0  0  0  0  0  0  0  0  0  0  0
   -1.8079   -3.5287    7.8751 H   0  0  0  0  0  0  0  0  0  0  0  0
   -0.6829   -4.9309    8.0615 H   0  0  0  0  0  0  0  0  0  0  0  0
    2.7789   -2.4986    3.9881 H   0  0  0  0  0  0  0  0  0  0  0  0
    1.5494   -3.5581    4.5215 H   0  0  0  0  0  0  0  0  0  0  0  0
    0.6984   -2.2800    2.7191 H   0  0  0  0  0  0  0  0  0  0  0  0
   -0.1383   -1.6507    4.0870 H   0  0  0  0  0  0  0  0  0  0  0  0
    2.2055   -0.5637    2.5410 H   0  0  0  0  0  0  0  0  0  0  0  0
    0.6652    0.1581    2.8126 H   0  0  0  0  0  0  0  0  0  0  0  0
    4.1010    0.2431    3.6075 H   0  0  0  0  0  0  0  0  0  0  0  0
    3.9013    1.7571    4.4867 H   0  0  0  0  0  0  0  0  0  0  0  0
    3.1995    1.5290    2.8862 H   0  0  0  0  0  0  0  0  0  0  0  0
  1  2  1  0
  1 32  1  0
  1 33  1  0
  1 34  1  0
  2 10  1  0
  2  3  1  0
  2  4  1  0
  3 35  1  0
  3 36  1  0
  3 37  1  0
  5  4  1  1
  5 12  1  0
  5 30  1  0
  5  6  1  0
  6  7  1  0
  6  8  1  0
  6 38  1  6
  7 39  1  0
  8  9  1  0
  8 10  1  0
  8 40  1  1
  9 41  1  0
 10 11  1  0
 10 42  1  1
 11 12  1  0
 11 43  1  0
 11 44  1  0
 12 13  1  0
 12 45  1  6
 13 14  1  0
 13 15  1  0
 13 46  1  1
 14 47  1  0
 15 16  1  0
 15 17  1  0
 15 48  1  6
 16 49  1  0
 17 30  1  0
 17 18  1  0
 17 50  1  6
 18 19  1  1
 18 20  1  0
 18 27  1  0
 19 51  1  0
 19 52  1  0
 19 53  1  0
 20 25  1  0
 20 21  1  1
 20 22  1  0
 21 54  1  0
 22 23  1  0
 22 55  1  0
 22 56  1  0
 23 24  1  0
 23 57  1  0
 23 58  1  0
 24 25  1  0
 25 26  2  0
 27 28  1  0
 27 59  1  0
 27 60  1  0
 28 29  1  0
 28 61  1  0
 28 62  1  0
 29 30  1  0
 29 63  1  0
 29 64  1  0
 30 31  1  6
 31 65  1  0
 31 66  1  0
 31 67  1  0
M  END
>  <i_m_ct_stereo_status>  (229) 
1

>  <s_m_source_file>  (229) 
/var/tmp/pbs.5076255.sched01/tmpkd0wjm76/823hn9mkkz.sdf

>  <i_m_source_file_index>  (229) 
15

>  <i_lp_mmshare_version>  (229) 
48012

>  <i_f3d_flags>  (229) 
0

>  <s_epik_input>  (229) 
W09IXVtDQEhdMVtDQEBIXShbT0hdKVtDQEBIXShDKE8yKShbQ0gzXSlbQ0gzXSlbQ0gyXVtDQEhdKFtDQF0xMjMpW0NAQEhdKFtPSF0pW0NAQEhdKFtPSF0pW0NAQEhdNFtDQEBdMyhbQ0gzXSlbQ0gyXVtDSDJdW0NIMl1bQ0BdNChbQ0gzXSlbQ0BAXTUoW09IXSlbQ0gyXVtDSDJdT0M1PU8=

>  <s_epik_cmdline>  (229) 
J2VwaWtfcHl0aG9uJywgJy1waHQnLCAnMi4wJywgJy1waCcsICc3LjAnLCAnLXRuJywgJzgnLCAnLW1hJywgJzIwMCcsICctaW1hZScsICc8aW5maWxlLm1hZT4nLCAnLW9tYWUnLCAnPG91dGZpbGUubWFlPic=

>  <r_lp_tautomer_probability>  (229) 
1

>  <r_epik_Ionization_Penalty>  (229) 
5.67944e-07

>  <r_epik_Ionization_Penalty_Charging>  (229) 
0

>  <r_epik_Ionization_Penalty_Neutral>  (229) 
5.67944e-07

>  <r_epik_State_Penalty>  (229) 
-0

>  <r_epik_Charging_Adjusted_Penalty>  (229) 
0

>  <i_epik_Tot_Q>  (229) 
0

>  <i_epik_Tot_abs_Q>  (229) 
0

>  <s_epik_Chemistry_Notes>  (229) 
This compound has an ester and may undergo hydrolysis at high or low pH.

>  <s_lp_Force_Field>  (229) 
OPLS3e

>  <r_lp_Energy>  (229) 
95.1191

>  <b_lp_Chiralities_Consistent>  (229) 
1

>  <s_lp_Variant>  (229) 
67:0-1

>  <s_i_glide_gridfile>  (229) 
pfpi4k_grid

>  <i_i_glide_lignum>  (229) 
15

>  <i_i_glide_rotatable_bonds>  (229) 
6

>  <r_i_docking_score>  (229) 
-4.12899

>  <r_i_glide_ligand_efficiency>  (229) 
-0.133193

>  <r_i_glide_ligand_efficiency_sa>  (229) 
-0.41841

>  <r_i_glide_ligand_efficiency_ln>  (229) 
-0.931213

>  <r_i_glide_gscore>  (229) 
-4.12899

>  <r_i_glide_lipo>  (229) 
-0.0045933

>  <r_i_glide_hbond>  (229) 
-0.0619434

>  <r_i_glide_metal>  (229) 
-0

>  <r_i_glide_rewards>  (229) 
-1.4055

>  <r_i_glide_evdw>  (229) 
-18.3395

>  <r_i_glide_ecoul>  (229) 
-12.0855

>  <r_i_glide_erotb>  (229) 
0.102891

>  <r_i_glide_esite>  (229) 
-0.0300437

>  <r_i_glide_emodel>  (229) 
-47.8789

>  <r_i_glide_energy>  (229) 
-30.425

>  <r_i_glide_einternal>  (229) 
2.06477

>  <r_i_glide_intrahb_reward>  (229) 
-1

>  <i_i_glide_confnum>  (229) 
4

>  <i_i_glide_posenum>  (229) 
12

>  <r_i_glide_eff_state_penalty>  (229) 
0

>  <ligand_id>  (229) 
67

>  <original_smiles>  (229) 
CC1(C)OC23C(O)C(O)C1CC2C(O)C(O)C1C(C)(C2(O)CCOC2=O)CCCC13C

>  <smiles>  (229) 
[H]OC1([H])C([H])(O[H])C23OC(C([H])([H])[H])(C([H])([H])[H])C1([H])C([H])([H])C2([H])C([H])(O[H])C([H])(O[H])C1([H])C(C([H])([H])[H])(C2(O[H])C(=O)OC([H])([H])C2([H])[H])C([H])([H])C([H])([H])C([H])([H])C13C([H])([H])[H]

$$$$
67:0:2
     RDKit          3D

 67 71  0  0  1  0  0  0  0  0999 V2000
   -2.1600    2.2507    4.1253 C   0  0  0  0  0  0  0  0  0  0  0  0
   -1.1867    2.2747    5.3236 C   0  0  0  0  0  0  0  0  0  0  0  0
   -1.9734    1.8224    6.5711 C   0  0  0  0  0  0  0  0  0  0  0  0
   -0.1644    1.2715    5.0869 O   0  0  0  0  0  0  0  0  0  0  0  0
    1.1851    1.7423    4.8673 C   0  0  1  0  0  0  0  0  0  0  0  0
    1.1288    2.9245    3.7908 C   0  0  1  0  0  0  0  0  0  0  0  0
    0.7453    2.4960    2.4910 O   0  0  0  0  0  0  0  0  0  0  0  0
    0.2290    4.1229    4.2429 C   0  0  1  0  0  0  0  0  0  0  0  0
   -0.6801    4.6712    3.2778 O   0  0  0  0  0  0  0  0  0  0  0  0
   -0.5025    3.6708    5.5296 C   0  0  2  0  0  0  0  0  0  0  0  0
    0.5736    3.5450    6.6210 C   0  0  0  0  0  0  0  0  0  0  0  0
    1.6223    2.4745    6.1876 C   0  0  1  0  0  0  0  0  0  0  0  0
    2.1253    1.6027    7.3685 C   0  0  1  0  0  0  0  0  0  0  0  0
    1.0384    1.1246    8.1335 O   0  0  0  0  0  0  0  0  0  0  0  0
    3.0799    0.4874    6.8911 C   0  0  1  0  0  0  0  0  0  0  0  0
    3.6956   -0.1924    7.9599 O   0  0  0  0  0  0  0  0  0  0  0  0
    2.6210   -0.4206    5.7029 C   0  0  1  0  0  0  0  0  0  0  0  0
    2.0127   -1.9014    5.9511 C   0  0  1  0  0  0  0  0  0  0  0  0
    3.1599   -2.8090    6.5174 C   0  0  0  0  0  0  0  0  0  0  0  0
    0.6983   -2.0951    6.8295 C   0  0  1  0  0  0  0  0  0  0  0  0
   -0.3006   -1.1606    6.5051 O   0  0  0  0  0  0  0  0  0  0  0  0
    0.0081   -3.4594    6.5570 C   0  0  0  0  0  0  0  0  0  0  0  0
   -0.6938   -3.8532    7.8548 C   0  0  0  0  0  0  0  0  0  0  0  0
    0.0339   -3.1393    8.8657 O   0  0  0  0  0  0  0  0  0  0  0  0
    0.8309   -2.1414    8.3665 C   0  0  0  0  0  0  0  0  0  0  0  0
    1.5039   -1.3491    9.0637 O   0  0  0  0  0  0  0  0  0  0  0  0
    1.8573   -2.4916    4.5005 C   0  0  0  0  0  0  0  0  0  0  0  0
    0.8659   -1.7290    3.6331 C   0  0  0  0  0  0  0  0  0  0  0  0
    1.4706   -0.3702    3.2966 C   0  0  0  0  0  0  0  0  0  0  0  0
    2.1088    0.4907    4.4580 C   0  0  1  0  0  0  0  0  0  0  0  0
    3.4004    1.0646    3.8109 C   0  0  0  0  0  0  0  0  0  0  0  0
   -2.9135    3.0305    4.2077 H   0  0  0  0  0  0  0  0  0  0  0  0
   -2.6423    1.2859    4.0915 H   0  0  0  0  0  0  0  0  0  0  0  0
   -1.6586    2.3526    3.1702 H   0  0  0  0  0  0  0  0  0  0  0  0
   -2.7191    2.5581    6.8581 H   0  0  0  0  0  0  0  0  0  0  0  0
   -1.3280    1.6506    7.4272 H   0  0  0  0  0  0  0  0  0  0  0  0
   -2.4847    0.8829    6.3834 H   0  0  0  0  0  0  0  0  0  0  0  0
    2.1229    3.3585    3.6943 H   0  0  0  0  0  0  0  0  0  0  0  0
    0.6622    3.2066    1.8785 H   0  0  0  0  0  0  0  0  0  0  0  0
    0.8913    4.9607    4.5144 H   0  0  0  0  0  0  0  0  0  0  0  0
   -0.3046    4.6046    2.3803 H   0  0  0  0  0  0  0  0  0  0  0  0
   -1.2420    4.4217    5.8128 H   0  0  0  0  0  0  0  0  0  0  0  0
    1.0716    4.5014    6.7602 H   0  0  0  0  0  0  0  0  0  0  0  0
    0.1060    3.3424    7.5775 H   0  0  0  0  0  0  0  0  0  0  0  0
    2.5070    3.0410    5.9042 H   0  0  0  0  0  0  0  0  0  0  0  0
    2.6893    2.2805    8.0248 H   0  0  0  0  0  0  0  0  0  0  0  0
    1.3594    0.6431    8.8878 H   0  0  0  0  0  0  0  0  0  0  0  0
    3.8892    1.0902    6.4669 H   0  0  0  0  0  0  0  0  0  0  0  0
    3.8567    0.4238    8.6492 H   0  0  0  0  0  0  0  0  0  0  0  0
    3.6242   -0.7045    5.3450 H   0  0  0  0  0  0  0  0  0  0  0  0
    2.8879   -3.8576    6.4576 H   0  0  0  0  0  0  0  0  0  0  0  0
    3.3647   -2.6011    7.5579 H   0  0  0  0  0  0  0  0  0  0  0  0
    4.1217   -2.7324    5.9871 H   0  0  0  0  0  0  0  0  0  0  0  0
   -0.2078   -0.8866    5.6062 H   0  0  0  0  0  0  0  0  0  0  0  0
   -0.6888   -3.4402    5.7124 H   0  0  0  0  0  0  0  0  0  0  0  0
    0.7206   -4.2634    6.3579 H   0  0  0  0  0  0  0  0  0  0  0  0
   -1.7389   -3.5201    7.8662 H   0  0  0  0  0  0  0  0  0  0  0  0
   -0.6210   -4.9292    8.0372 H   0  0  0  0  0  0  0  0  0  0  0  0
    2.8166   -2.4796    3.9380 H   0  0  0  0  0  0  0  0  0  0  0  0
    1.5866   -3.5484    4.4813 H   0  0  0  0  0  0  0  0  0  0  0  0
    0.7069   -2.2706    2.6971 H   0  0  0  0  0  0  0  0  0  0  0  0
   -0.1284   -1.6526    4.0670 H   0  0  0  0  0  0  0  0  0  0  0  0
    2.2213   -0.5488    2.5146 H   0  0  0  0  0  0  0  0  0  0  0  0
    0.6706    0.1553    2.8010 H   0  0  0  0  0  0  0  0  0  0  0  0
    4.1050    0.2684    3.5749 H   0  0  0  0  0  0  0  0  0  0  0  0
    3.9061    1.7792    4.4534 H   0  0  0  0  0  0  0  0  0  0  0  0
    3.1943    1.5486    2.8622 H   0  0  0  0  0  0  0  0  0  0  0  0
  1  2  1  0
  1 32  1  0
  1 33  1  0
  1 34  1  0
  2 10  1  0
  2  3  1  0
  2  4  1  0
  3 35  1  0
  3 36  1  0
  3 37  1  0
  5  4  1  1
  5 12  1  0
  5 30  1  0
  5  6  1  0
  6  7  1  0
  6  8  1  0
  6 38  1  6
  7 39  1  0
  8  9  1  0
  8 10  1  0
  8 40  1  1
  9 41  1  0
 10 11  1  0
 10 42  1  1
 11 12  1  0
 11 43  1  0
 11 44  1  0
 12 13  1  0
 12 45  1  6
 13 14  1  0
 13 15  1  0
 13 46  1  1
 14 47  1  0
 15 16  1  0
 15 17  1  0
 15 48  1  6
 16 49  1  0
 17 30  1  0
 17 18  1  0
 17 50  1  6
 18 19  1  1
 18 20  1  0
 18 27  1  0
 19 51  1  0
 19 52  1  0
 19 53  1  0
 20 25  1  0
 20 21  1  1
 20 22  1  0
 21 54  1  0
 22 23  1  0
 22 55  1  0
 22 56  1  0
 23 24  1  0
 23 57  1  0
 23 58  1  0
 24 25  1  0
 25 26  2  0
 27 28  1  0
 27 59  1  0
 27 60  1  0
 28 29  1  0
 28 61  1  0
 28 62  1  0
 29 30  1  0
 29 63  1  0
 29 64  1  0
 30 31  1  6
 31 65  1  0
 31 66  1  0
 31 67  1  0
M  END
>  <i_m_ct_stereo_status>  (230) 
1

>  <s_m_source_file>  (230) 
/var/tmp/pbs.5076255.sched01/tmpkd0wjm76/823hn9mkkz.sdf

>  <i_m_source_file_index>  (230) 
15

>  <i_lp_mmshare_version>  (230) 
48012

>  <i_f3d_flags>  (230) 
0

>  <s_epik_input>  (230) 
W09IXVtDQEhdMVtDQEBIXShbT0hdKVtDQEBIXShDKE8yKShbQ0gzXSlbQ0gzXSlbQ0gyXVtDQEhdKFtDQF0xMjMpW0NAQEhdKFtPSF0pW0NAQEhdKFtPSF0pW0NAQEhdNFtDQEBdMyhbQ0gzXSlbQ0gyXVtDSDJdW0NIMl1bQ0BdNChbQ0gzXSlbQ0BAXTUoW09IXSlbQ0gyXVtDSDJdT0M1PU8=

>  <s_epik_cmdline>  (230) 
J2VwaWtfcHl0aG9uJywgJy1waHQnLCAnMi4wJywgJy1waCcsICc3LjAnLCAnLXRuJywgJzgnLCAnLW1hJywgJzIwMCcsICctaW1hZScsICc8aW5maWxlLm1hZT4nLCAnLW9tYWUnLCAnPG91dGZpbGUubWFlPic=

>  <r_lp_tautomer_probability>  (230) 
1

>  <r_epik_Ionization_Penalty>  (230) 
5.67944e-07

>  <r_epik_Ionization_Penalty_Charging>  (230) 
0

>  <r_epik_Ionization_Penalty_Neutral>  (230) 
5.67944e-07

>  <r_epik_State_Penalty>  (230) 
-0

>  <r_epik_Charging_Adjusted_Penalty>  (230) 
0

>  <i_epik_Tot_Q>  (230) 
0

>  <i_epik_Tot_abs_Q>  (230) 
0

>  <s_epik_Chemistry_Notes>  (230) 
This compound has an ester and may undergo hydrolysis at high or low pH.

>  <s_lp_Force_Field>  (230) 
OPLS3e

>  <r_lp_Energy>  (230) 
95.1191

>  <b_lp_Chiralities_Consistent>  (230) 
1

>  <s_lp_Variant>  (230) 
67:0-1

>  <s_i_glide_gridfile>  (230) 
pfpi4k_grid

>  <i_i_glide_lignum>  (230) 
15

>  <i_i_glide_rotatable_bonds>  (230) 
6

>  <r_i_docking_score>  (230) 
-4.06108

>  <r_i_glide_ligand_efficiency>  (230) 
-0.131003

>  <r_i_glide_ligand_efficiency_sa>  (230) 
-0.411529

>  <r_i_glide_ligand_efficiency_ln>  (230) 
-0.915898

>  <r_i_glide_gscore>  (230) 
-4.06108

>  <r_i_glide_lipo>  (230) 
-0.00388677

>  <r_i_glide_hbond>  (230) 
-0.0387144

>  <r_i_glide_metal>  (230) 
-0

>  <r_i_glide_rewards>  (230) 
-1.4055

>  <r_i_glide_evdw>  (230) 
-18.7562

>  <r_i_glide_ecoul>  (230) 
-11.6661

>  <r_i_glide_erotb>  (230) 
0.102891

>  <r_i_glide_esite>  (230) 
-0.028142

>  <r_i_glide_emodel>  (230) 
-47.5823

>  <r_i_glide_energy>  (230) 
-30.4223

>  <r_i_glide_einternal>  (230) 
2.38363

>  <r_i_glide_intrahb_reward>  (230) 
-1

>  <i_i_glide_confnum>  (230) 
4

>  <i_i_glide_posenum>  (230) 
2

>  <r_i_glide_eff_state_penalty>  (230) 
0

>  <ligand_id>  (230) 
67

>  <original_smiles>  (230) 
CC1(C)OC23C(O)C(O)C1CC2C(O)C(O)C1C(C)(C2(O)CCOC2=O)CCCC13C

>  <smiles>  (230) 
[H]OC1([H])C([H])(O[H])C23OC(C([H])([H])[H])(C([H])([H])[H])C1([H])C([H])([H])C2([H])C([H])(O[H])C([H])(O[H])C1([H])C(C([H])([H])[H])(C2(O[H])C(=O)OC([H])([H])C2([H])[H])C([H])([H])C([H])([H])C([H])([H])C13C([H])([H])[H]

$$$$
68:0:0
     RDKit          3D

 21 22  0  0  1  0  0  0  0  0999 V2000
   -4.3638   -8.1849   -5.1166 C   0  0  0  0  0  0  0  0  0  0  0  0
   -5.5986   -8.7460   -5.6581 N   0  0  0  0  0  0  0  0  0  0  0  0
   -5.4091  -10.0126   -6.3638 C   0  0  0  0  0  0  0  0  0  0  0  0
   -6.5295   -7.8352   -6.2133 C   0  0  0  0  0  0  0  0  0  0  0  0
   -7.1208   -8.1901   -7.3889 N   0  0  0  0  0  0  0  0  0  0  0  0
   -7.9635   -7.3685   -8.0042 C   0  0  0  0  0  0  0  0  0  0  0  0
   -8.3473   -6.1553   -7.6245 N   0  0  0  0  0  0  0  0  0  0  0  0
   -7.7890   -5.7947   -6.4247 C   0  0  0  0  0  0  0  0  0  0  0  0
   -8.1713   -4.2585   -5.6682 S   0  0  0  0  0  0  0  0  0  0  0  0
   -7.1148   -4.6293   -4.3497 C   0  0  0  0  0  0  0  0  0  0  0  0
   -6.5363   -5.8621   -4.4006 C   0  0  0  0  0  0  0  0  0  0  0  0
   -6.8786   -6.5714   -5.6414 C   0  0  0  0  0  0  0  0  0  0  0  0
   -3.7629   -8.9911   -4.6913 H   0  0  0  0  0  0  0  0  0  0  0  0
   -4.5040   -7.4572   -4.3295 H   0  0  0  0  0  0  0  0  0  0  0  0
   -3.8005   -7.7209   -5.9252 H   0  0  0  0  0  0  0  0  0  0  0  0
   -4.7376  -10.6873   -5.8326 H   0  0  0  0  0  0  0  0  0  0  0  0
   -4.9657   -9.8091   -7.3409 H   0  0  0  0  0  0  0  0  0  0  0  0
   -6.3495  -10.5459   -6.5235 H   0  0  0  0  0  0  0  0  0  0  0  0
   -8.3571   -7.7245   -8.9448 H   0  0  0  0  0  0  0  0  0  0  0  0
   -6.9997   -3.9019   -3.5575 H   0  0  0  0  0  0  0  0  0  0  0  0
   -5.9139   -6.2366   -3.6026 H   0  0  0  0  0  0  0  0  0  0  0  0
  1  2  1  0
  1 13  1  0
  1 14  1  0
  1 15  1  0
  2  3  1  0
  2  4  1  0
  3 16  1  0
  3 17  1  0
  3 18  1  0
  4 12  2  0
  4  5  1  0
  5  6  2  0
  6  7  1  0
  6 19  1  0
  7  8  2  0
  8 12  1  0
  8  9  1  0
  9 10  1  0
 10 11  2  0
 10 20  1  0
 11 12  1  0
 11 21  1  0
M  END
>  <i_m_ct_stereo_status>  (231) 
1

>  <s_m_source_file>  (231) 
/var/tmp/pbs.5076255.sched01/tmpkd0wjm76/823hn9mkkz.sdf

>  <i_m_source_file_index>  (231) 
16

>  <i_lp_mmshare_version>  (231) 
48012

>  <i_f3d_flags>  (231) 
0

>  <s_epik_input>  (231) 
bjFbY0hdbmMoTihbQ0gzXSlbQ0gzXSljKGMxMilbY0hdW2NIXXMy

>  <s_epik_cmdline>  (231) 
J2VwaWtfcHl0aG9uJywgJy1waHQnLCAnMi4wJywgJy1waCcsICc3LjAnLCAnLXRuJywgJzgnLCAnLW1hJywgJzIwMCcsICctaW1hZScsICc8aW5maWxlLm1hZT4nLCAnLW9tYWUnLCAnPG91dGZpbGUubWFlPic=

>  <r_epik_Ionization_Penalty>  (231) 
0.000620408

>  <r_epik_Ionization_Penalty_Charging>  (231) 
0

>  <r_epik_Ionization_Penalty_Neutral>  (231) 
0.000620408

>  <r_epik_State_Penalty>  (231) 
0.0202151

>  <r_epik_Charging_Adjusted_Penalty>  (231) 
0.0202151

>  <i_epik_Tot_Q>  (231) 
0

>  <i_epik_Tot_abs_Q>  (231) 
0

>  <s_lp_Force_Field>  (231) 
OPLS3e

>  <r_lp_Energy>  (231) 
42.3548

>  <b_lp_Chiralities_Consistent>  (231) 
1

>  <s_lp_Variant>  (231) 
68:0-1

>  <s_i_glide_gridfile>  (231) 
pfpi4k_grid

>  <i_i_glide_lignum>  (231) 
16

>  <i_i_glide_rotatable_bonds>  (231) 
1

>  <r_i_docking_score>  (231) 
-6.58746

>  <r_i_glide_ligand_efficiency>  (231) 
-0.548955

>  <r_i_glide_ligand_efficiency_sa>  (231) 
-1.25679

>  <r_i_glide_ligand_efficiency_ln>  (231) 
-1.89028

>  <r_i_glide_gscore>  (231) 
-6.58746

>  <r_i_glide_lipo>  (231) 
-1.99622

>  <r_i_glide_hbond>  (231) 
0

>  <r_i_glide_metal>  (231) 
-0

>  <r_i_glide_rewards>  (231) 
-3.23883

>  <r_i_glide_evdw>  (231) 
-24.2251

>  <r_i_glide_ecoul>  (231) 
-0.941013

>  <r_i_glide_erotb>  (231) 
0

>  <r_i_glide_esite>  (231) 
0

>  <r_i_glide_emodel>  (231) 
-34.7667

>  <r_i_glide_energy>  (231) 
-25.1661

>  <r_i_glide_einternal>  (231) 
0.688401

>  <r_i_glide_intrahb_reward>  (231) 
-0

>  <i_i_glide_confnum>  (231) 
2

>  <i_i_glide_posenum>  (231) 
5

>  <r_i_glide_eff_state_penalty>  (231) 
0

>  <ligand_id>  (231) 
68

>  <original_smiles>  (231) 
CN(C)c1ncnc2sccc12

>  <smiles>  (231) 
[H]c1nc(N(C([H])([H])[H])C([H])([H])[H])c2c([H])c([H])sc2n1

$$$$
68:0:1
     RDKit          3D

 21 22  0  0  1  0  0  0  0  0999 V2000
   -5.3567   -9.4092   -5.8037 C   0  0  0  0  0  0  0  0  0  0  0  0
   -5.7462   -8.0178   -5.5802 N   0  0  0  0  0  0  0  0  0  0  0  0
   -4.6496   -7.1391   -5.1931 C   0  0  0  0  0  0  0  0  0  0  0  0
   -6.6503   -7.4631   -6.5107 C   0  0  0  0  0  0  0  0  0  0  0  0
   -6.8264   -8.1148   -7.6863 N   0  0  0  0  0  0  0  0  0  0  0  0
   -7.6538   -7.6213   -8.6052 C   0  0  0  0  0  0  0  0  0  0  0  0
   -8.3855   -6.5039   -8.5483 N   0  0  0  0  0  0  0  0  0  0  0  0
   -8.2254   -5.8508   -7.3604 C   0  0  0  0  0  0  0  0  0  0  0  0
   -9.0781   -4.3510   -6.9978 S   0  0  0  0  0  0  0  0  0  0  0  0
   -8.3256   -4.2852   -5.4396 C   0  0  0  0  0  0  0  0  0  0  0  0
   -7.4696   -5.3216   -5.1624 C   0  0  0  0  0  0  0  0  0  0  0  0
   -7.3778   -6.2527   -6.2766 C   0  0  0  0  0  0  0  0  0  0  0  0
   -6.2282  -10.0384   -5.9834 H   0  0  0  0  0  0  0  0  0  0  0  0
   -4.8162   -9.8368   -4.9576 H   0  0  0  0  0  0  0  0  0  0  0  0
   -4.7069   -9.4744   -6.6752 H   0  0  0  0  0  0  0  0  0  0  0  0
   -4.9710   -6.1354   -4.9165 H   0  0  0  0  0  0  0  0  0  0  0  0
   -3.9546   -7.0473   -6.0248 H   0  0  0  0  0  0  0  0  0  0  0  0
   -4.1020   -7.5618   -4.3490 H   0  0  0  0  0  0  0  0  0  0  0  0
   -7.7174   -8.1948   -9.5192 H   0  0  0  0  0  0  0  0  0  0  0  0
   -8.5794   -3.4608   -4.7931 H   0  0  0  0  0  0  0  0  0  0  0  0
   -6.9391   -5.4286   -4.2265 H   0  0  0  0  0  0  0  0  0  0  0  0
  1  2  1  0
  1 13  1  0
  1 14  1  0
  1 15  1  0
  2  3  1  0
  2  4  1  0
  3 16  1  0
  3 17  1  0
  3 18  1  0
  4 12  2  0
  4  5  1  0
  5  6  2  0
  6  7  1  0
  6 19  1  0
  7  8  2  0
  8 12  1  0
  8  9  1  0
  9 10  1  0
 10 11  2  0
 10 20  1  0
 11 12  1  0
 11 21  1  0
M  END
>  <i_m_ct_stereo_status>  (232) 
1

>  <s_m_source_file>  (232) 
/var/tmp/pbs.5076255.sched01/tmpkd0wjm76/823hn9mkkz.sdf

>  <i_m_source_file_index>  (232) 
16

>  <i_lp_mmshare_version>  (232) 
48012

>  <i_f3d_flags>  (232) 
0

>  <s_epik_input>  (232) 
bjFbY0hdbmMoTihbQ0gzXSlbQ0gzXSljKGMxMilbY0hdW2NIXXMy

>  <s_epik_cmdline>  (232) 
J2VwaWtfcHl0aG9uJywgJy1waHQnLCAnMi4wJywgJy1waCcsICc3LjAnLCAnLXRuJywgJzgnLCAnLW1hJywgJzIwMCcsICctaW1hZScsICc8aW5maWxlLm1hZT4nLCAnLW9tYWUnLCAnPG91dGZpbGUubWFlPic=

>  <r_epik_Ionization_Penalty>  (232) 
0.000620408

>  <r_epik_Ionization_Penalty_Charging>  (232) 
0

>  <r_epik_Ionization_Penalty_Neutral>  (232) 
0.000620408

>  <r_epik_State_Penalty>  (232) 
0.0202151

>  <r_epik_Charging_Adjusted_Penalty>  (232) 
0.0202151

>  <i_epik_Tot_Q>  (232) 
0

>  <i_epik_Tot_abs_Q>  (232) 
0

>  <s_lp_Force_Field>  (232) 
OPLS3e

>  <r_lp_Energy>  (232) 
42.3548

>  <b_lp_Chiralities_Consistent>  (232) 
1

>  <s_lp_Variant>  (232) 
68:0-1

>  <s_i_glide_gridfile>  (232) 
pfpi4k_grid

>  <i_i_glide_lignum>  (232) 
16

>  <i_i_glide_rotatable_bonds>  (232) 
1

>  <r_i_docking_score>  (232) 
-6.32787

>  <r_i_glide_ligand_efficiency>  (232) 
-0.527323

>  <r_i_glide_ligand_efficiency_sa>  (232) 
-1.20727

>  <r_i_glide_ligand_efficiency_ln>  (232) 
-1.81579

>  <r_i_glide_gscore>  (232) 
-6.32787

>  <r_i_glide_lipo>  (232) 
-1.96991

>  <r_i_glide_hbond>  (232) 
0

>  <r_i_glide_metal>  (232) 
-0

>  <r_i_glide_rewards>  (232) 
-3.17057

>  <r_i_glide_evdw>  (232) 
-24.012

>  <r_i_glide_ecoul>  (232) 
0.0880146

>  <r_i_glide_erotb>  (232) 
0

>  <r_i_glide_esite>  (232) 
0

>  <r_i_glide_emodel>  (232) 
-33.3357

>  <r_i_glide_energy>  (232) 
-23.924

>  <r_i_glide_einternal>  (232) 
0.629676

>  <r_i_glide_intrahb_reward>  (232) 
-0

>  <i_i_glide_confnum>  (232) 
1

>  <i_i_glide_posenum>  (232) 
39

>  <r_i_glide_eff_state_penalty>  (232) 
0

>  <ligand_id>  (232) 
68

>  <original_smiles>  (232) 
CN(C)c1ncnc2sccc12

>  <smiles>  (232) 
[H]c1nc(N(C([H])([H])[H])C([H])([H])[H])c2c([H])c([H])sc2n1

$$$$
68:0:2
     RDKit          3D

 21 22  0  0  1  0  0  0  0  0999 V2000
    4.2795   -9.1361    3.6488 C   0  0  0  0  0  0  0  0  0  0  0  0
    4.1104   -8.7959    2.2397 N   0  0  0  0  0  0  0  0  0  0  0  0
    5.3472   -8.4217    1.5513 C   0  0  0  0  0  0  0  0  0  0  0  0
    2.9647   -8.0186    1.9522 C   0  0  0  0  0  0  0  0  0  0  0  0
    3.1606   -6.8505    1.2851 N   0  0  0  0  0  0  0  0  0  0  0  0
    2.1233   -6.0719    0.9859 C   0  0  0  0  0  0  0  0  0  0  0  0
    0.8311   -6.2620    1.2643 N   0  0  0  0  0  0  0  0  0  0  0  0
    0.6275   -7.4291    1.9458 C   0  0  0  0  0  0  0  0  0  0  0  0
   -0.9689   -7.9102    2.5031 S   0  0  0  0  0  0  0  0  0  0  0  0
   -0.3059   -9.3562    3.1878 C   0  0  0  0  0  0  0  0  0  0  0  0
    1.0465   -9.5145    3.0251 C   0  0  0  0  0  0  0  0  0  0  0  0
    1.6364   -8.3741    2.3326 C   0  0  0  0  0  0  0  0  0  0  0  0
    5.1487   -9.7828    3.7830 H   0  0  0  0  0  0  0  0  0  0  0  0
    3.4287   -9.6631    4.0759 H   0  0  0  0  0  0  0  0  0  0  0  0
    4.4281   -8.2204    4.2184 H   0  0  0  0  0  0  0  0  0  0  0  0
    6.1699   -9.1053    1.7766 H   0  0  0  0  0  0  0  0  0  0  0  0
    5.6522   -7.4218    1.8643 H   0  0  0  0  0  0  0  0  0  0  0  0
    5.2018   -8.4131    0.4718 H   0  0  0  0  0  0  0  0  0  0  0  0
    2.3807   -5.1556    0.4730 H   0  0  0  0  0  0  0  0  0  0  0  0
   -0.9835  -10.0372    3.6806 H   0  0  0  0  0  0  0  0  0  0  0  0
    1.5865  -10.3835    3.3726 H   0  0  0  0  0  0  0  0  0  0  0  0
  1  2  1  0
  1 13  1  0
  1 14  1  0
  1 15  1  0
  2  3  1  0
  2  4  1  0
  3 16  1  0
  3 17  1  0
  3 18  1  0
  4 12  2  0
  4  5  1  0
  5  6  2  0
  6  7  1  0
  6 19  1  0
  7  8  2  0
  8 12  1  0
  8  9  1  0
  9 10  1  0
 10 11  2  0
 10 20  1  0
 11 12  1  0
 11 21  1  0
M  END
>  <i_m_ct_stereo_status>  (233) 
1

>  <s_m_source_file>  (233) 
/var/tmp/pbs.5076255.sched01/tmpkd0wjm76/823hn9mkkz.sdf

>  <i_m_source_file_index>  (233) 
16

>  <i_lp_mmshare_version>  (233) 
48012

>  <i_f3d_flags>  (233) 
0

>  <s_epik_input>  (233) 
bjFbY0hdbmMoTihbQ0gzXSlbQ0gzXSljKGMxMilbY0hdW2NIXXMy

>  <s_epik_cmdline>  (233) 
J2VwaWtfcHl0aG9uJywgJy1waHQnLCAnMi4wJywgJy1waCcsICc3LjAnLCAnLXRuJywgJzgnLCAnLW1hJywgJzIwMCcsICctaW1hZScsICc8aW5maWxlLm1hZT4nLCAnLW9tYWUnLCAnPG91dGZpbGUubWFlPic=

>  <r_epik_Ionization_Penalty>  (233) 
0.000620408

>  <r_epik_Ionization_Penalty_Charging>  (233) 
0

>  <r_epik_Ionization_Penalty_Neutral>  (233) 
0.000620408

>  <r_epik_State_Penalty>  (233) 
0.0202151

>  <r_epik_Charging_Adjusted_Penalty>  (233) 
0.0202151

>  <i_epik_Tot_Q>  (233) 
0

>  <i_epik_Tot_abs_Q>  (233) 
0

>  <s_lp_Force_Field>  (233) 
OPLS3e

>  <r_lp_Energy>  (233) 
42.3548

>  <b_lp_Chiralities_Consistent>  (233) 
1

>  <s_lp_Variant>  (233) 
68:0-1

>  <s_i_glide_gridfile>  (233) 
pfpi4k_grid

>  <i_i_glide_lignum>  (233) 
16

>  <i_i_glide_rotatable_bonds>  (233) 
1

>  <r_i_docking_score>  (233) 
-3.88829

>  <r_i_glide_ligand_efficiency>  (233) 
-0.324024

>  <r_i_glide_ligand_efficiency_sa>  (233) 
-0.74183

>  <r_i_glide_ligand_efficiency_ln>  (233) 
-1.11575

>  <r_i_glide_gscore>  (233) 
-3.88829

>  <r_i_glide_lipo>  (233) 
-0.0790847

>  <r_i_glide_hbond>  (233) 
-0.16

>  <r_i_glide_metal>  (233) 
-0

>  <r_i_glide_rewards>  (233) 
-2.18698

>  <r_i_glide_evdw>  (233) 
-17.173

>  <r_i_glide_ecoul>  (233) 
-3.66184

>  <r_i_glide_erotb>  (233) 
0

>  <r_i_glide_esite>  (233) 
-0.0542974

>  <r_i_glide_emodel>  (233) 
-26.6551

>  <r_i_glide_energy>  (233) 
-20.8349

>  <r_i_glide_einternal>  (233) 
0.167324

>  <r_i_glide_intrahb_reward>  (233) 
-0

>  <i_i_glide_confnum>  (233) 
4

>  <i_i_glide_posenum>  (233) 
37

>  <r_i_glide_eff_state_penalty>  (233) 
0

>  <ligand_id>  (233) 
68

>  <original_smiles>  (233) 
CN(C)c1ncnc2sccc12

>  <smiles>  (233) 
[H]c1nc(N(C([H])([H])[H])C([H])([H])[H])c2c([H])c([H])sc2n1

$$$$
68:1:0
     RDKit          3D

 22 23  0  0  1  0  0  0  0  0999 V2000
    4.1225    0.2035   -5.3131 C   0  0  0  0  0  0  0  0  0  0  0  0
    3.2903    0.1023   -4.1698 N   0  0  0  0  0  0  0  0  0  0  0  0
    1.9940    0.6346   -4.4864 C   0  0  0  0  0  0  0  0  0  0  0  0
    3.2748   -1.1894   -3.6163 C   0  0  0  0  0  0  0  0  0  0  0  0
    2.4734   -2.0755   -4.2023 N   0  0  0  0  0  0  0  0  0  0  0  0
    2.3867   -3.3354   -3.8482 C   0  0  0  0  0  0  0  0  0  0  0  0
    3.1609   -3.8551   -2.9229 N   0  0  0  0  0  0  0  0  0  0  0  0
    3.9395   -3.0193   -2.2294 C   0  0  0  0  0  0  0  0  0  0  0  0
    4.9627   -3.4553   -0.8729 S   0  0  0  0  0  0  0  0  0  0  0  0
    5.5881   -1.8273   -0.8298 C   0  0  0  0  0  0  0  0  0  0  0  0
    5.0749   -0.9616   -1.7637 C   0  0  0  0  0  0  0  0  0  0  0  0
    4.0909   -1.6362   -2.5534 C   0  0  0  0  0  0  0  0  0  0  0  0
    4.9889   -0.3864   -5.0634 H   0  0  0  0  0  0  0  0  0  0  0  0
    4.3375    1.2607   -5.5261 H   0  0  0  0  0  0  0  0  0  0  0  0
    3.7263   -0.2863   -6.2061 H   0  0  0  0  0  0  0  0  0  0  0  0
    1.5321    0.6049   -3.5113 H   0  0  0  0  0  0  0  0  0  0  0  0
    1.3997    0.1074   -5.2365 H   0  0  0  0  0  0  0  0  0  0  0  0
    2.1201    1.6606   -4.8549 H   0  0  0  0  0  0  0  0  0  0  0  0
    1.8516   -4.0133   -4.4826 H   0  0  0  0  0  0  0  0  0  0  0  0
    6.3152   -1.5945   -0.0688 H   0  0  0  0  0  0  0  0  0  0  0  0
    5.2815    0.0867   -1.9342 H   0  0  0  0  0  0  0  0  0  0  0  0
    3.0649   -4.9531   -2.7557 H   0  0  0  0  0  0  0  0  0  0  0  0
  1  2  1  0
  1 13  1  0
  1 14  1  0
  1 15  1  0
  2  3  1  0
  2  4  1  0
  3 16  1  0
  3 17  1  0
  3 18  1  0
  4 12  2  0
  4  5  1  0
  5  6  2  0
  6  7  1  0
  6 19  1  0
  7  8  2  0
  7 22  1  0
  8 12  1  0
  8  9  1  0
  9 10  1  0
 10 11  2  0
 10 20  1  0
 11 12  1  0
 11 21  1  0
M  CHG  1   7   1
M  END
>  <i_m_ct_stereo_status>  (234) 
1

>  <s_m_source_file>  (234) 
/var/tmp/pbs.5076255.sched01/tmpkd0wjm76/823hn9mkkz.sdf

>  <i_m_source_file_index>  (234) 
17

>  <i_lp_mmshare_version>  (234) 
48012

>  <i_f3d_flags>  (234) 
0

>  <s_epik_input>  (234) 
bjFbY0hdbmMoTihbQ0gzXSlbQ0gzXSljKGMxMilbY0hdW2NIXXMy

>  <s_epik_cmdline>  (234) 
J2VwaWtfcHl0aG9uJywgJy1waHQnLCAnMi4wJywgJy1waCcsICc3LjAnLCAnLXRuJywgJzgnLCAnLW1hJywgJzIwMCcsICctaW1hZScsICc8aW5maWxlLm1hZT4nLCAnLW9tYWUnLCAnPG91dGZpbGUubWFlPic=

>  <r_epik_Ionization_Penalty>  (234) 
0.260779

>  <r_epik_Ionization_Penalty_Charging>  (234) 
0

>  <r_epik_Ionization_Penalty_Neutral>  (234) 
0.260779

>  <r_epik_State_Penalty>  (234) 
2.01143

>  <r_epik_Charging_Adjusted_Penalty>  (234) 
2.01143

>  <i_epik_Tot_Q>  (234) 
1

>  <i_epik_Tot_abs_Q>  (234) 
1

>  <s_lp_Force_Field>  (234) 
OPLS3e

>  <r_lp_Energy>  (234) 
41.91

>  <b_lp_Chiralities_Consistent>  (234) 
1

>  <s_lp_Variant>  (234) 
68:0-2

>  <s_i_glide_gridfile>  (234) 
pfpi4k_grid

>  <i_i_glide_lignum>  (234) 
17

>  <i_i_glide_rotatable_bonds>  (234) 
1

>  <r_i_docking_score>  (234) 
-6.45296

>  <r_i_glide_ligand_efficiency>  (234) 
-0.537746

>  <r_i_glide_ligand_efficiency_sa>  (234) 
-1.23113

>  <r_i_glide_ligand_efficiency_ln>  (234) 
-1.85169

>  <r_i_glide_gscore>  (234) 
-6.45296

>  <r_i_glide_lipo>  (234) 
-0.346541

>  <r_i_glide_hbond>  (234) 
0

>  <r_i_glide_metal>  (234) 
-0

>  <r_i_glide_rewards>  (234) 
-2.49705

>  <r_i_glide_evdw>  (234) 
2.07102

>  <r_i_glide_ecoul>  (234) 
-24.6992

>  <r_i_glide_erotb>  (234) 
0

>  <r_i_glide_esite>  (234) 
-0.00802968

>  <r_i_glide_emodel>  (234) 
-33.4291

>  <r_i_glide_energy>  (234) 
-22.6282

>  <r_i_glide_einternal>  (234) 
0.593242

>  <r_i_glide_intrahb_reward>  (234) 
-0

>  <i_i_glide_confnum>  (234) 
1

>  <i_i_glide_posenum>  (234) 
37

>  <r_i_glide_eff_state_penalty>  (234) 
0

>  <ligand_id>  (234) 
68

>  <original_smiles>  (234) 
CN(C)c1ncnc2sccc12

>  <smiles>  (234) 
[H]c1sc2c(c(N(C([H])([H])[H])C([H])([H])[H])nc([H])[n+]2[H])c1[H]

$$$$
68:1:1
     RDKit          3D

 22 23  0  0  1  0  0  0  0  0999 V2000
    3.5715   -0.0116    1.3014 C   0  0  0  0  0  0  0  0  0  0  0  0
    4.7914   -0.6933    0.9001 N   0  0  0  0  0  0  0  0  0  0  0  0
    5.8242   -0.8372    1.9160 C   0  0  0  0  0  0  0  0  0  0  0  0
    4.5197   -1.8602    0.1706 C   0  0  0  0  0  0  0  0  0  0  0  0
    4.5144   -3.0541    0.8211 N   0  0  0  0  0  0  0  0  0  0  0  0
    4.2778   -4.2066    0.1867 C   0  0  0  0  0  0  0  0  0  0  0  0
    4.0284   -4.2552   -1.1207 N   0  0  0  0  0  0  0  0  0  0  0  0
    4.0245   -3.0874   -1.8056 C   0  0  0  0  0  0  0  0  0  0  0  0
    3.6981   -2.9705   -3.5238 S   0  0  0  0  0  0  0  0  0  0  0  0
    3.9174   -1.2468   -3.4614 C   0  0  0  0  0  0  0  0  0  0  0  0
    4.2257   -0.7623   -2.2123 C   0  0  0  0  0  0  0  0  0  0  0  0
    4.2710   -1.8171   -1.2273 C   0  0  0  0  0  0  0  0  0  0  0  0
    2.8724    0.1157    0.4763 H   0  0  0  0  0  0  0  0  0  0  0  0
    3.8128    0.9731    1.7005 H   0  0  0  0  0  0  0  0  0  0  0  0
    3.0696   -0.5803    2.0848 H   0  0  0  0  0  0  0  0  0  0  0  0
    6.7279   -1.2835    1.4913 H   0  0  0  0  0  0  0  0  0  0  0  0
    5.4702   -1.4526    2.7428 H   0  0  0  0  0  0  0  0  0  0  0  0
    6.0863    0.1401    2.3223 H   0  0  0  0  0  0  0  0  0  0  0  0
    4.2631   -5.1377    0.7346 H   0  0  0  0  0  0  0  0  0  0  0  0
    3.7942   -0.6636   -4.3644 H   0  0  0  0  0  0  0  0  0  0  0  0
    4.3893    0.2699   -1.9580 H   0  0  0  0  0  0  0  0  0  0  0  0
    3.7904   -5.1194   -1.6352 H   0  0  0  0  0  0  0  0  0  0  0  0
  1  2  1  0
  1 13  1  0
  1 14  1  0
  1 15  1  0
  2  3  1  0
  2  4  1  0
  3 16  1  0
  3 17  1  0
  3 18  1  0
  4 12  2  0
  4  5  1  0
  5  6  2  0
  6  7  1  0
  6 19  1  0
  7  8  2  0
  7 22  1  0
  8 12  1  0
  8  9  1  0
  9 10  1  0
 10 11  2  0
 10 20  1  0
 11 12  1  0
 11 21  1  0
M  CHG  1   7   1
M  END
>  <i_m_ct_stereo_status>  (235) 
1

>  <s_m_source_file>  (235) 
/var/tmp/pbs.5076255.sched01/tmpkd0wjm76/823hn9mkkz.sdf

>  <i_m_source_file_index>  (235) 
17

>  <i_lp_mmshare_version>  (235) 
48012

>  <i_f3d_flags>  (235) 
0

>  <s_epik_input>  (235) 
bjFbY0hdbmMoTihbQ0gzXSlbQ0gzXSljKGMxMilbY0hdW2NIXXMy

>  <s_epik_cmdline>  (235) 
J2VwaWtfcHl0aG9uJywgJy1waHQnLCAnMi4wJywgJy1waCcsICc3LjAnLCAnLXRuJywgJzgnLCAnLW1hJywgJzIwMCcsICctaW1hZScsICc8aW5maWxlLm1hZT4nLCAnLW9tYWUnLCAnPG91dGZpbGUubWFlPic=

>  <r_epik_Ionization_Penalty>  (235) 
0.260779

>  <r_epik_Ionization_Penalty_Charging>  (235) 
0

>  <r_epik_Ionization_Penalty_Neutral>  (235) 
0.260779

>  <r_epik_State_Penalty>  (235) 
2.01143

>  <r_epik_Charging_Adjusted_Penalty>  (235) 
2.01143

>  <i_epik_Tot_Q>  (235) 
1

>  <i_epik_Tot_abs_Q>  (235) 
1

>  <s_lp_Force_Field>  (235) 
OPLS3e

>  <r_lp_Energy>  (235) 
41.91

>  <b_lp_Chiralities_Consistent>  (235) 
1

>  <s_lp_Variant>  (235) 
68:0-2

>  <s_i_glide_gridfile>  (235) 
pfpi4k_grid

>  <i_i_glide_lignum>  (235) 
17

>  <i_i_glide_rotatable_bonds>  (235) 
1

>  <r_i_docking_score>  (235) 
-4.81202

>  <r_i_glide_ligand_efficiency>  (235) 
-0.401002

>  <r_i_glide_ligand_efficiency_sa>  (235) 
-0.918065

>  <r_i_glide_ligand_efficiency_ln>  (235) 
-1.38082

>  <r_i_glide_gscore>  (235) 
-4.81202

>  <r_i_glide_lipo>  (235) 
-0.479107

>  <r_i_glide_hbond>  (235) 
0

>  <r_i_glide_metal>  (235) 
-0

>  <r_i_glide_rewards>  (235) 
-2.36598

>  <r_i_glide_evdw>  (235) 
-17.8083

>  <r_i_glide_ecoul>  (235) 
-6.88385

>  <r_i_glide_erotb>  (235) 
0

>  <r_i_glide_esite>  (235) 
-0.0439469

>  <r_i_glide_emodel>  (235) 
-33.1567

>  <r_i_glide_energy>  (235) 
-24.6922

>  <r_i_glide_einternal>  (235) 
0.33281

>  <r_i_glide_intrahb_reward>  (235) 
-0

>  <i_i_glide_confnum>  (235) 
1

>  <i_i_glide_posenum>  (235) 
4

>  <r_i_glide_eff_state_penalty>  (235) 
0

>  <ligand_id>  (235) 
68

>  <original_smiles>  (235) 
CN(C)c1ncnc2sccc12

>  <smiles>  (235) 
[H]c1sc2c(c(N(C([H])([H])[H])C([H])([H])[H])nc([H])[n+]2[H])c1[H]

$$$$
68:1:2
     RDKit          3D

 22 23  0  0  1  0  0  0  0  0999 V2000
    3.5493    2.7050    6.9309 C   0  0  0  0  0  0  0  0  0  0  0  0
    4.2197    3.3745    5.8257 N   0  0  0  0  0  0  0  0  0  0  0  0
    5.0490    4.5258    6.1684 C   0  0  0  0  0  0  0  0  0  0  0  0
    3.4156    3.4960    4.6830 C   0  0  0  0  0  0  0  0  0  0  0  0
    3.1300    4.7466    4.2249 N   0  0  0  0  0  0  0  0  0  0  0  0
    2.3546    4.9585    3.1507 C   0  0  0  0  0  0  0  0  0  0  0  0
    1.8132    3.9480    2.4847 N   0  0  0  0  0  0  0  0  0  0  0  0
    2.0886    2.6866    2.8839 C   0  0  0  0  0  0  0  0  0  0  0  0
    1.4707    1.2453    2.0944 S   0  0  0  0  0  0  0  0  0  0  0  0
    2.3000    0.2284    3.2392 C   0  0  0  0  0  0  0  0  0  0  0  0
    3.0326    0.9180    4.1855 C   0  0  0  0  0  0  0  0  0  0  0  0
    2.9076    2.3576    4.0091 C   0  0  0  0  0  0  0  0  0  0  0  0
    4.2583    2.5151    7.7373 H   0  0  0  0  0  0  0  0  0  0  0  0
    3.1067    1.7466    6.6597 H   0  0  0  0  0  0  0  0  0  0  0  0
    2.7456    3.3469    7.2911 H   0  0  0  0  0  0  0  0  0  0  0  0
    5.7158    4.2839    7.0005 H   0  0  0  0  0  0  0  0  0  0  0  0
    4.4054    5.3557    6.4645 H   0  0  0  0  0  0  0  0  0  0  0  0
    5.6539    4.8424    5.3130 H   0  0  0  0  0  0  0  0  0  0  0  0
    2.1203    5.9656    2.8401 H   0  0  0  0  0  0  0  0  0  0  0  0
    2.2172   -0.8419    3.1469 H   0  0  0  0  0  0  0  0  0  0  0  0
    3.6415    0.4651    4.9596 H   0  0  0  0  0  0  0  0  0  0  0  0
    1.1557    4.1162    1.6653 H   0  0  0  0  0  0  0  0  0  0  0  0
  1  2  1  0
  1 13  1  0
  1 14  1  0
  1 15  1  0
  2  3  1  0
  2  4  1  0
  3 16  1  0
  3 17  1  0
  3 18  1  0
  4 12  2  0
  4  5  1  0
  5  6  2  0
  6  7  1  0
  6 19  1  0
  7  8  2  0
  7 22  1  0
  8 12  1  0
  8  9  1  0
  9 10  1  0
 10 11  2  0
 10 20  1  0
 11 12  1  0
 11 21  1  0
M  CHG  1   7   1
M  END
>  <i_m_ct_stereo_status>  (236) 
1

>  <s_m_source_file>  (236) 
/var/tmp/pbs.5076255.sched01/tmpkd0wjm76/823hn9mkkz.sdf

>  <i_m_source_file_index>  (236) 
17

>  <i_lp_mmshare_version>  (236) 
48012

>  <i_f3d_flags>  (236) 
0

>  <s_epik_input>  (236) 
bjFbY0hdbmMoTihbQ0gzXSlbQ0gzXSljKGMxMilbY0hdW2NIXXMy

>  <s_epik_cmdline>  (236) 
J2VwaWtfcHl0aG9uJywgJy1waHQnLCAnMi4wJywgJy1waCcsICc3LjAnLCAnLXRuJywgJzgnLCAnLW1hJywgJzIwMCcsICctaW1hZScsICc8aW5maWxlLm1hZT4nLCAnLW9tYWUnLCAnPG91dGZpbGUubWFlPic=

>  <r_epik_Ionization_Penalty>  (236) 
0.260779

>  <r_epik_Ionization_Penalty_Charging>  (236) 
0

>  <r_epik_Ionization_Penalty_Neutral>  (236) 
0.260779

>  <r_epik_State_Penalty>  (236) 
2.01143

>  <r_epik_Charging_Adjusted_Penalty>  (236) 
2.01143

>  <i_epik_Tot_Q>  (236) 
1

>  <i_epik_Tot_abs_Q>  (236) 
1

>  <s_lp_Force_Field>  (236) 
OPLS3e

>  <r_lp_Energy>  (236) 
41.91

>  <b_lp_Chiralities_Consistent>  (236) 
1

>  <s_lp_Variant>  (236) 
68:0-2

>  <s_i_glide_gridfile>  (236) 
pfpi4k_grid

>  <i_i_glide_lignum>  (236) 
17

>  <i_i_glide_rotatable_bonds>  (236) 
1

>  <r_i_docking_score>  (236) 
-4.50272

>  <r_i_glide_ligand_efficiency>  (236) 
-0.375226

>  <r_i_glide_ligand_efficiency_sa>  (236) 
-0.859054

>  <r_i_glide_ligand_efficiency_ln>  (236) 
-1.29206

>  <r_i_glide_gscore>  (236) 
-4.50272

>  <r_i_glide_lipo>  (236) 
-0.000671248

>  <r_i_glide_hbond>  (236) 
-0.134983

>  <r_i_glide_metal>  (236) 
-0

>  <r_i_glide_rewards>  (236) 
-2.18067

>  <r_i_glide_evdw>  (236) 
-9.87464

>  <r_i_glide_ecoul>  (236) 
-10.3737

>  <r_i_glide_erotb>  (236) 
0

>  <r_i_glide_esite>  (236) 
-0.136612

>  <r_i_glide_emodel>  (236) 
-28.2762

>  <r_i_glide_energy>  (236) 
-20.2483

>  <r_i_glide_einternal>  (236) 
0.0324788

>  <r_i_glide_intrahb_reward>  (236) 
-0

>  <i_i_glide_confnum>  (236) 
4

>  <i_i_glide_posenum>  (236) 
6

>  <r_i_glide_eff_state_penalty>  (236) 
0

>  <ligand_id>  (236) 
68

>  <original_smiles>  (236) 
CN(C)c1ncnc2sccc12

>  <smiles>  (236) 
[H]c1sc2c(c(N(C([H])([H])[H])C([H])([H])[H])nc([H])[n+]2[H])c1[H]

$$$$
70:0:0
     RDKit          3D

 36 41  0  0  1  0  0  0  0  0999 V2000
    1.4978   -6.1910    2.8419 O   0  0  0  0  0  0  0  0  0  0  0  0
    1.6611   -6.6292    1.4433 S   0  0  0  0  0  0  0  0  0  0  0  0
    1.7387   -8.0987    1.2786 O   0  0  0  0  0  0  0  0  0  0  0  0
    0.8250   -5.8952    0.4908 O   0  0  0  0  0  0  0  0  0  0  0  0
    3.2665   -6.1769    1.0294 O   0  0  0  0  0  0  0  0  0  0  0  0
    3.8435   -4.9887    1.5959 N   0  0  0  0  0  0  0  0  0  0  0  0
    4.2551   -4.1885    0.4486 C   0  0  2  0  0  0  0  0  0  0  0  0
    5.7299   -3.8100    0.4813 C   0  0  2  0  0  0  0  0  0  0  0  0
    6.4259   -3.5306    1.6664 C   0  0  2  0  0  0  0  0  0  0  0  0
    5.1109   -2.5400    1.8036 C   0  0  0  0  0  0  0  0  0  0  0  0
    4.0484   -2.7632    0.5237 C   0  0  2  0  0  0  0  0  0  0  0  0
    2.7331   -2.4003    0.8757 O   0  0  0  0  0  0  0  0  0  0  0  0
    4.4286   -2.4136   -1.0667 C   0  0  0  0  0  0  0  0  0  0  0  0
    3.7536   -1.1769   -1.6490 C   0  0  0  0  0  0  0  0  0  0  0  0
    3.3492   -2.5500   -2.1319 C   0  0  0  0  0  0  0  0  0  0  0  0
    6.0087   -2.6357   -1.5814 C   0  0  1  0  0  0  0  0  0  0  0  0
    7.4355   -3.3296   -1.0717 C   0  0  1  0  0  0  0  0  0  0  0  0
    7.7099   -3.4785    0.6368 C   0  0  1  0  0  0  0  0  0  0  0  0
    7.6572   -2.3332   -0.1052 C   0  0  2  0  0  0  0  0  0  0  0  0
    6.2798   -2.2842   -0.2734 C   0  0  2  0  0  0  0  0  0  0  0  0
    4.6259   -5.3042    2.1579 H   0  0  0  0  0  0  0  0  0  0  0  0
    3.9188   -4.5942   -0.5207 H   0  0  0  0  0  0  0  0  0  0  0  0
    6.0876   -4.7772    0.0634 H   0  0  0  0  0  0  0  0  0  0  0  0
    6.4721   -4.3689    2.3749 H   0  0  0  0  0  0  0  0  0  0  0  0
    4.5794   -2.8571    2.6927 H   0  0  0  0  0  0  0  0  0  0  0  0
    5.3261   -1.4896    2.0156 H   0  0  0  0  0  0  0  0  0  0  0  0
    2.3465   -1.8993    0.1592 H   0  0  0  0  0  0  0  0  0  0  0  0
    3.0587   -0.6588   -0.9939 H   0  0  0  0  0  0  0  0  0  0  0  0
    4.3290   -0.5502   -2.3209 H   0  0  0  0  0  0  0  0  0  0  0  0
    3.7105   -2.8738   -3.0978 H   0  0  0  0  0  0  0  0  0  0  0  0
    2.3949   -2.9910   -1.8187 H   0  0  0  0  0  0  0  0  0  0  0  0
    6.2817   -1.8393   -2.2662 H   0  0  0  0  0  0  0  0  0  0  0  0
    8.1929   -3.5757   -1.8086 H   0  0  0  0  0  0  0  0  0  0  0  0
    8.6922   -3.7881    1.0069 H   0  0  0  0  0  0  0  0  0  0  0  0
    8.3611   -1.5328   -0.2905 H   0  0  0  0  0  0  0  0  0  0  0  0
    5.9793   -1.2435   -0.0206 H   0  0  0  0  0  0  0  0  0  0  0  0
  1  2  2  0
  2  3  2  0
  2  4  1  0
  2  5  1  0
  5  6  1  0
  6  7  1  0
  6 21  1  0
  7 11  1  0
  7  8  1  0
  7 22  1  6
  8 20  1  0
  8  9  1  0
  8 23  1  6
  9 18  1  0
  9 10  1  0
  9 24  1  1
 10 11  1  0
 10 25  1  0
 10 26  1  0
 11 12  1  1
 11 13  1  0
 12 27  1  0
 13 15  1  0
 13 14  1  0
 13 16  1  0
 14 15  1  0
 14 28  1  0
 14 29  1  0
 15 30  1  0
 15 31  1  0
 16 20  1  0
 16 17  1  0
 16 32  1  6
 17 19  1  0
 17 18  1  0
 17 33  1  6
 18 19  1  0
 18 34  1  6
 19 20  1  0
 19 35  1  6
 20 36  1  1
M  CHG  1   4  -1
M  END
>  <i_m_ct_stereo_status>  (237) 
1

>  <s_m_source_file>  (237) 
/var/tmp/pbs.5076255.sched01/tmpkd0wjm76/823hn9mkkz.sdf

>  <i_m_source_file_index>  (237) 
19

>  <i_lp_mmshare_version>  (237) 
48012

>  <i_f3d_flags>  (237) 
0

>  <s_epik_input>  (237) 
Tz1TKD1PKShbT0hdKU9bTkhdW0NAQEhdKFtDQF0xKFtPSF0pQzIzW0NIMl1bQ0gyXTIpW0NAQEhdNFtDQEhdKFtDSDJdMSlbQ0BIXTVbQ0BIXTZbQ0BASF0zW0NAQEhdNFtDQEBIXTU2

>  <s_epik_cmdline>  (237) 
J2VwaWtfcHl0aG9uJywgJy1waHQnLCAnMi4wJywgJy1waCcsICc3LjAnLCAnLXRuJywgJzgnLCAnLW1hJywgJzIwMCcsICctaW1hZScsICc8aW5maWxlLm1hZT4nLCAnLW9tYWUnLCAnPG91dGZpbGUubWFlPic=

>  <r_epik_Ionization_Penalty>  (237) 
0.000335781

>  <r_epik_Ionization_Penalty_Charging>  (237) 
3.85132e-10

>  <r_epik_Ionization_Penalty_Neutral>  (237) 
0.000335781

>  <r_epik_State_Penalty>  (237) 
0.000203041

>  <r_epik_Charging_Adjusted_Penalty>  (237) 
0.000203041

>  <i_epik_Tot_Q>  (237) 
-1

>  <i_epik_Tot_abs_Q>  (237) 
1

>  <s_epik_Chemistry_Notes>  (237) 
This compound has a N-S or N-O group and may undergo hydrolysis at high or low pH.

>  <s_lp_Force_Field>  (237) 
OPLS3e

>  <r_lp_Energy>  (237) 
321.233

>  <b_lp_Chiralities_Consistent>  (237) 
1

>  <s_lp_Variant>  (237) 
70:0-1

>  <s_i_glide_gridfile>  (237) 
pfpi4k_grid

>  <i_i_glide_lignum>  (237) 
19

>  <i_i_glide_rotatable_bonds>  (237) 
4

>  <r_i_docking_score>  (237) 
-3.58259

>  <r_i_glide_ligand_efficiency>  (237) 
-0.17913

>  <r_i_glide_ligand_efficiency_sa>  (237) 
-0.486233

>  <r_i_glide_ligand_efficiency_ln>  (237) 
-0.896605

>  <r_i_glide_gscore>  (237) 
-3.58259

>  <r_i_glide_lipo>  (237) 
-0.465521

>  <r_i_glide_hbond>  (237) 
-0.337169

>  <r_i_glide_metal>  (237) 
-0

>  <r_i_glide_rewards>  (237) 
-1.37498

>  <r_i_glide_evdw>  (237) 
-19.7741

>  <r_i_glide_ecoul>  (237) 
-4.82942

>  <r_i_glide_erotb>  (237) 
0.412327

>  <r_i_glide_esite>  (237) 
-0.104131

>  <r_i_glide_emodel>  (237) 
-30.1227

>  <r_i_glide_energy>  (237) 
-24.6035

>  <r_i_glide_einternal>  (237) 
5.17285

>  <r_i_glide_intrahb_reward>  (237) 
-0

>  <i_i_glide_confnum>  (237) 
3

>  <i_i_glide_posenum>  (237) 
1

>  <r_i_glide_eff_state_penalty>  (237) 
0

>  <ligand_id>  (237) 
70

>  <original_smiles>  (237) 
O=S(=O)(O)ONC1C2C3CC1(O)C1(CC1)C1C4C3C4C21

>  <smiles>  (237) 
[H]OC12C([H])([H])C3([H])C([H])(C1([H])N([H])OS(=O)(=O)[O-])C1([H])C4([H])C3([H])C4([H])C1([H])C21C([H])([H])C1([H])[H]

$$$$
70:0:1
     RDKit          3D

 36 41  0  0  1  0  0  0  0  0999 V2000
    1.7203   -7.8771    1.7679 O   0  0  0  0  0  0  0  0  0  0  0  0
    1.2539   -6.4601    1.7178 S   0  0  0  0  0  0  0  0  0  0  0  0
   -0.1090   -6.2403    1.2391 O   0  0  0  0  0  0  0  0  0  0  0  0
    1.6046   -5.6591    2.8943 O   0  0  0  0  0  0  0  0  0  0  0  0
    2.2288   -5.7983    0.5040 O   0  0  0  0  0  0  0  0  0  0  0  0
    3.6005   -5.5640    0.8530 N   0  0  0  0  0  0  0  0  0  0  0  0
    4.1234   -4.5999   -0.1115 C   0  0  2  0  0  0  0  0  0  0  0  0
    5.5131   -4.0730    0.2541 C   0  0  2  0  0  0  0  0  0  0  0  0
    5.8910   -3.7263    1.5585 C   0  0  2  0  0  0  0  0  0  0  0  0
    4.4324   -2.9235    1.3937 C   0  0  0  0  0  0  0  0  0  0  0  0
    3.7363   -3.2147   -0.1012 C   0  0  2  0  0  0  0  0  0  0  0  0
    2.3362   -3.0628   -0.1011 O   0  0  0  0  0  0  0  0  0  0  0  0
    4.4350   -2.7577   -1.5541 C   0  0  0  0  0  0  0  0  0  0  0  0
    3.7622   -1.5971   -2.2845 C   0  0  0  0  0  0  0  0  0  0  0  0
    3.6640   -3.0009   -2.8373 C   0  0  0  0  0  0  0  0  0  0  0  0
    6.1041   -2.7881   -1.6942 C   0  0  1  0  0  0  0  0  0  0  0  0
    7.4586   -3.3376   -0.8810 C   0  0  1  0  0  0  0  0  0  0  0  0
    7.3534   -3.4856    0.8479 C   0  0  1  0  0  0  0  0  0  0  0  0
    7.3384   -2.3362    0.0959 C   0  0  2  0  0  0  0  0  0  0  0  0
    6.0277   -2.4752   -0.3545 C   0  0  2  0  0  0  0  0  0  0  0  0
    3.5531   -5.1679    1.7846 H   0  0  0  0  0  0  0  0  0  0  0  0
    4.1026   -5.0338   -1.1183 H   0  0  0  0  0  0  0  0  0  0  0  0
    6.0761   -4.9743   -0.0661 H   0  0  0  0  0  0  0  0  0  0  0  0
    5.8871   -4.5721    2.2650 H   0  0  0  0  0  0  0  0  0  0  0  0
    3.7769   -3.3470    2.1347 H   0  0  0  0  0  0  0  0  0  0  0  0
    4.4674   -1.8570    1.6705 H   0  0  0  0  0  0  0  0  0  0  0  0
    2.0958   -2.1563   -0.3221 H   0  0  0  0  0  0  0  0  0  0  0  0
    2.8987   -1.1247   -1.8075 H   0  0  0  0  0  0  0  0  0  0  0  0
    4.4116   -0.9011   -2.8097 H   0  0  0  0  0  0  0  0  0  0  0  0
    4.2810   -3.2602   -3.6940 H   0  0  0  0  0  0  0  0  0  0  0  0
    2.7451   -3.5918   -2.7446 H   0  0  0  0  0  0  0  0  0  0  0  0
    6.4357   -1.9321   -2.2848 H   0  0  0  0  0  0  0  0  0  0  0  0
    8.3770   -3.5104   -1.4180 H   0  0  0  0  0  0  0  0  0  0  0  0
    8.2593   -3.7061    1.4169 H   0  0  0  0  0  0  0  0  0  0  0  0
    7.9268   -1.4354    0.0990 H   0  0  0  0  0  0  0  0  0  0  0  0
    5.5624   -1.4850   -0.1481 H   0  0  0  0  0  0  0  0  0  0  0  0
  1  2  2  0
  2  3  2  0
  2  4  1  0
  2  5  1  0
  5  6  1  0
  6  7  1  0
  6 21  1  0
  7 11  1  0
  7  8  1  0
  7 22  1  6
  8 20  1  0
  8  9  1  0
  8 23  1  6
  9 18  1  0
  9 10  1  0
  9 24  1  1
 10 11  1  0
 10 25  1  0
 10 26  1  0
 11 12  1  1
 11 13  1  0
 12 27  1  0
 13 15  1  0
 13 14  1  0
 13 16  1  0
 14 15  1  0
 14 28  1  0
 14 29  1  0
 15 30  1  0
 15 31  1  0
 16 20  1  0
 16 17  1  0
 16 32  1  6
 17 19  1  0
 17 18  1  0
 17 33  1  6
 18 19  1  0
 18 34  1  1
 19 20  1  0
 19 35  1  1
 20 36  1  6
M  CHG  1   4  -1
M  END
>  <i_m_ct_stereo_status>  (238) 
1

>  <s_m_source_file>  (238) 
/var/tmp/pbs.5076255.sched01/tmpkd0wjm76/823hn9mkkz.sdf

>  <i_m_source_file_index>  (238) 
19

>  <i_lp_mmshare_version>  (238) 
48012

>  <i_f3d_flags>  (238) 
0

>  <s_epik_input>  (238) 
Tz1TKD1PKShbT0hdKU9bTkhdW0NAQEhdKFtDQF0xKFtPSF0pQzIzW0NIMl1bQ0gyXTIpW0NAQEhdNFtDQEhdKFtDSDJdMSlbQ0BIXTVbQ0BIXTZbQ0BASF0zW0NAQEhdNFtDQEBIXTU2

>  <s_epik_cmdline>  (238) 
J2VwaWtfcHl0aG9uJywgJy1waHQnLCAnMi4wJywgJy1waCcsICc3LjAnLCAnLXRuJywgJzgnLCAnLW1hJywgJzIwMCcsICctaW1hZScsICc8aW5maWxlLm1hZT4nLCAnLW9tYWUnLCAnPG91dGZpbGUubWFlPic=

>  <r_epik_Ionization_Penalty>  (238) 
0.000335781

>  <r_epik_Ionization_Penalty_Charging>  (238) 
3.85132e-10

>  <r_epik_Ionization_Penalty_Neutral>  (238) 
0.000335781

>  <r_epik_State_Penalty>  (238) 
0.000203041

>  <r_epik_Charging_Adjusted_Penalty>  (238) 
0.000203041

>  <i_epik_Tot_Q>  (238) 
-1

>  <i_epik_Tot_abs_Q>  (238) 
1

>  <s_epik_Chemistry_Notes>  (238) 
This compound has a N-S or N-O group and may undergo hydrolysis at high or low pH.

>  <s_lp_Force_Field>  (238) 
OPLS3e

>  <r_lp_Energy>  (238) 
321.233

>  <b_lp_Chiralities_Consistent>  (238) 
1

>  <s_lp_Variant>  (238) 
70:0-1

>  <s_i_glide_gridfile>  (238) 
pfpi4k_grid

>  <i_i_glide_lignum>  (238) 
19

>  <i_i_glide_rotatable_bonds>  (238) 
4

>  <r_i_docking_score>  (238) 
-3.47018

>  <r_i_glide_ligand_efficiency>  (238) 
-0.173509

>  <r_i_glide_ligand_efficiency_sa>  (238) 
-0.470976

>  <r_i_glide_ligand_efficiency_ln>  (238) 
-0.868472

>  <r_i_glide_gscore>  (238) 
-3.47018

>  <r_i_glide_lipo>  (238) 
-0.452265

>  <r_i_glide_hbond>  (238) 
0

>  <r_i_glide_metal>  (238) 
-0

>  <r_i_glide_rewards>  (238) 
-1.37498

>  <r_i_glide_evdw>  (238) 
-21.5492

>  <r_i_glide_ecoul>  (238) 
-4.94751

>  <r_i_glide_erotb>  (238) 
0.412327

>  <r_i_glide_esite>  (238) 
-0.235673

>  <r_i_glide_emodel>  (238) 
-33.6418

>  <r_i_glide_energy>  (238) 
-26.4967

>  <r_i_glide_einternal>  (238) 
1.1073

>  <r_i_glide_intrahb_reward>  (238) 
-0

>  <i_i_glide_confnum>  (238) 
5

>  <i_i_glide_posenum>  (238) 
33

>  <r_i_glide_eff_state_penalty>  (238) 
0

>  <ligand_id>  (238) 
70

>  <original_smiles>  (238) 
O=S(=O)(O)ONC1C2C3CC1(O)C1(CC1)C1C4C3C4C21

>  <smiles>  (238) 
[H]OC12C([H])([H])C3([H])C([H])(C1([H])N([H])OS(=O)(=O)[O-])C1([H])C4([H])C3([H])C4([H])C1([H])C21C([H])([H])C1([H])[H]

$$$$
70:0:2
     RDKit          3D

 36 41  0  0  1  0  0  0  0  0999 V2000
    2.0320   -6.1898    3.0652 O   0  0  0  0  0  0  0  0  0  0  0  0
    2.0558   -6.5331    1.6273 S   0  0  0  0  0  0  0  0  0  0  0  0
    2.3157   -7.9397    1.3296 O   0  0  0  0  0  0  0  0  0  0  0  0
    0.9734   -5.8918    0.8431 O   0  0  0  0  0  0  0  0  0  0  0  0
    3.4728   -5.7750    1.0568 O   0  0  0  0  0  0  0  0  0  0  0  0
    3.7356   -4.4427    1.4909 N   0  0  0  0  0  0  0  0  0  0  0  0
    4.3904   -3.7972    0.3522 C   0  0  2  0  0  0  0  0  0  0  0  0
    5.9026   -3.6458    0.4821 C   0  0  2  0  0  0  0  0  0  0  0  0
    6.5270   -3.3673    1.6804 C   0  0  2  0  0  0  0  0  0  0  0  0
    5.3454   -2.1927    1.6805 C   0  0  0  0  0  0  0  0  0  0  0  0
    4.3987   -2.3706    0.3203 C   0  0  2  0  0  0  0  0  0  0  0  0
    3.1130   -1.7905    0.5494 O   0  0  0  0  0  0  0  0  0  0  0  0
    4.9487   -2.1767   -1.2402 C   0  0  0  0  0  0  0  0  0  0  0  0
    4.5047   -0.9102   -1.9517 C   0  0  0  0  0  0  0  0  0  0  0  0
    3.9622   -2.2490   -2.3872 C   0  0  0  0  0  0  0  0  0  0  0  0
    6.5277   -2.6552   -1.5965 C   0  0  1  0  0  0  0  0  0  0  0  0
    7.8089   -3.4648   -0.9095 C   0  0  1  0  0  0  0  0  0  0  0  0
    7.9031   -3.5278    0.8120 C   0  0  1  0  0  0  0  0  0  0  0  0
    8.0686   -2.4485    0.0033 C   0  0  2  0  0  0  0  0  0  0  0  0
    6.7199   -2.2462   -0.2916 C   0  0  2  0  0  0  0  0  0  0  0  0
    4.3318   -4.5006    2.3109 H   0  0  0  0  0  0  0  0  0  0  0  0
    4.0765   -4.2303   -0.6133 H   0  0  0  0  0  0  0  0  0  0  0  0
    6.1750   -4.6713    0.1733 H   0  0  0  0  0  0  0  0  0  0  0  0
    6.3961   -4.1371    2.4562 H   0  0  0  0  0  0  0  0  0  0  0  0
    4.7283   -2.3704    2.5370 H   0  0  0  0  0  0  0  0  0  0  0  0
    5.7035   -1.1716    1.8499 H   0  0  0  0  0  0  0  0  0  0  0  0
    2.5862   -1.8534   -0.2289 H   0  0  0  0  0  0  0  0  0  0  0  0
    3.8570   -0.2740   -1.3705 H   0  0  0  0  0  0  0  0  0  0  0  0
    5.2106   -0.4108   -2.6023 H   0  0  0  0  0  0  0  0  0  0  0  0
    4.3516   -2.6752   -3.2965 H   0  0  0  0  0  0  0  0  0  0  0  0
    2.9216   -2.5321   -2.1381 H   0  0  0  0  0  0  0  0  0  0  0  0
    6.9649   -1.9752   -2.3083 H   0  0  0  0  0  0  0  0  0  0  0  0
    8.5862   -3.8594   -1.5464 H   0  0  0  0  0  0  0  0  0  0  0  0
    8.7898   -3.9602    1.3057 H   0  0  0  0  0  0  0  0  0  0  0  0
    8.8798   -1.7479   -0.1622 H   0  0  0  0  0  0  0  0  0  0  0  0
    6.5492   -1.1563   -0.1175 H   0  0  0  0  0  0  0  0  0  0  0  0
  1  2  2  0
  2  3  2  0
  2  4  1  0
  2  5  1  0
  5  6  1  0
  6  7  1  0
  6 21  1  0
  7 11  1  0
  7  8  1  0
  7 22  1  6
  8 20  1  0
  8  9  1  0
  8 23  1  6
  9 18  1  0
  9 10  1  0
  9 24  1  1
 10 11  1  0
 10 25  1  0
 10 26  1  0
 11 12  1  1
 11 13  1  0
 12 27  1  0
 13 15  1  0
 13 14  1  0
 13 16  1  0
 14 15  1  0
 14 28  1  0
 14 29  1  0
 15 30  1  0
 15 31  1  0
 16 20  1  0
 16 17  1  0
 16 32  1  6
 17 19  1  0
 17 18  1  0
 17 33  1  6
 18 19  1  0
 18 34  1  6
 19 20  1  0
 19 35  1  6
 20 36  1  6
M  CHG  1   4  -1
M  END
>  <i_m_ct_stereo_status>  (239) 
1

>  <s_m_source_file>  (239) 
/var/tmp/pbs.5076255.sched01/tmpkd0wjm76/823hn9mkkz.sdf

>  <i_m_source_file_index>  (239) 
19

>  <i_lp_mmshare_version>  (239) 
48012

>  <i_f3d_flags>  (239) 
0

>  <s_epik_input>  (239) 
Tz1TKD1PKShbT0hdKU9bTkhdW0NAQEhdKFtDQF0xKFtPSF0pQzIzW0NIMl1bQ0gyXTIpW0NAQEhdNFtDQEhdKFtDSDJdMSlbQ0BIXTVbQ0BIXTZbQ0BASF0zW0NAQEhdNFtDQEBIXTU2

>  <s_epik_cmdline>  (239) 
J2VwaWtfcHl0aG9uJywgJy1waHQnLCAnMi4wJywgJy1waCcsICc3LjAnLCAnLXRuJywgJzgnLCAnLW1hJywgJzIwMCcsICctaW1hZScsICc8aW5maWxlLm1hZT4nLCAnLW9tYWUnLCAnPG91dGZpbGUubWFlPic=

>  <r_epik_Ionization_Penalty>  (239) 
0.000335781

>  <r_epik_Ionization_Penalty_Charging>  (239) 
3.85132e-10

>  <r_epik_Ionization_Penalty_Neutral>  (239) 
0.000335781

>  <r_epik_State_Penalty>  (239) 
0.000203041

>  <r_epik_Charging_Adjusted_Penalty>  (239) 
0.000203041

>  <i_epik_Tot_Q>  (239) 
-1

>  <i_epik_Tot_abs_Q>  (239) 
1

>  <s_epik_Chemistry_Notes>  (239) 
This compound has a N-S or N-O group and may undergo hydrolysis at high or low pH.

>  <s_lp_Force_Field>  (239) 
OPLS3e

>  <r_lp_Energy>  (239) 
321.233

>  <b_lp_Chiralities_Consistent>  (239) 
1

>  <s_lp_Variant>  (239) 
70:0-1

>  <s_i_glide_gridfile>  (239) 
pfpi4k_grid

>  <i_i_glide_lignum>  (239) 
19

>  <i_i_glide_rotatable_bonds>  (239) 
4

>  <r_i_docking_score>  (239) 
-3.43695

>  <r_i_glide_ligand_efficiency>  (239) 
-0.171848

>  <r_i_glide_ligand_efficiency_sa>  (239) 
-0.466466

>  <r_i_glide_ligand_efficiency_ln>  (239) 
-0.860156

>  <r_i_glide_gscore>  (239) 
-3.43695

>  <r_i_glide_lipo>  (239) 
-0.556334

>  <r_i_glide_hbond>  (239) 
-0.281333

>  <r_i_glide_metal>  (239) 
-0

>  <r_i_glide_rewards>  (239) 
-1.37498

>  <r_i_glide_evdw>  (239) 
-19.2774

>  <r_i_glide_ecoul>  (239) 
-4.16343

>  <r_i_glide_erotb>  (239) 
0.412327

>  <r_i_glide_esite>  (239) 
-0.0482436

>  <r_i_glide_emodel>  (239) 
-30.1459

>  <r_i_glide_energy>  (239) 
-23.4409

>  <r_i_glide_einternal>  (239) 
1.89735

>  <r_i_glide_intrahb_reward>  (239) 
-0

>  <i_i_glide_confnum>  (239) 
2

>  <i_i_glide_posenum>  (239) 
10

>  <r_i_glide_eff_state_penalty>  (239) 
0

>  <ligand_id>  (239) 
70

>  <original_smiles>  (239) 
O=S(=O)(O)ONC1C2C3CC1(O)C1(CC1)C1C4C3C4C21

>  <smiles>  (239) 
[H]OC12C([H])([H])C3([H])C([H])(C1([H])N([H])OS(=O)(=O)[O-])C1([H])C4([H])C3([H])C4([H])C1([H])C21C([H])([H])C1([H])[H]

$$$$
71:0:0
     RDKit          3D

 72 78  0  0  1  0  0  0  0  0999 V2000
    3.8285   -0.6804   -2.8492 C   0  0  0  0  0  0  0  0  0  0  0  0
    4.1207   -1.6263   -1.7107 C   0  0  0  0  0  0  0  0  0  0  0  0
    3.8146   -1.0652   -0.4796 O   0  0  0  0  0  0  0  0  0  0  0  0
    3.9686   -1.7553    0.7232 C   0  0  0  0  0  0  0  0  0  0  0  0
    3.7212   -1.2575    1.8081 O   0  0  0  0  0  0  0  0  0  0  0  0
    4.4812   -3.1320    0.5664 C   0  0  0  0  0  0  0  0  0  0  0  0
    4.8115   -3.6123   -0.6091 C   0  0  0  0  0  0  0  0  0  0  0  0
    4.6276   -2.8828   -1.8396 C   0  0  0  0  0  0  0  0  0  0  0  0
    4.9734   -3.5000   -3.1697 C   0  0  0  0  0  0  0  0  0  0  0  0
    5.3904   -4.8426   -0.5259 O   0  0  0  0  0  0  0  0  0  0  0  0
    5.5595   -5.1897    0.8621 C   0  0  2  0  0  0  0  0  0  0  0  0
    7.0888   -5.0711    1.0819 C   0  0  0  0  0  0  0  0  0  0  0  0
    5.0879   -6.6530    0.9722 C   0  0  0  0  0  0  0  0  0  0  0  0
    4.9251   -7.1144    2.4115 C   0  0  0  0  0  0  0  0  0  0  0  0
    5.9521   -7.2785    3.0748 O   0  0  0  0  0  0  0  0  0  0  0  0
    3.5135   -7.5858    2.9353 C   0  0  2  0  0  0  0  0  0  0  0  0
    3.8366   -9.1287    2.7147 C   0  0  0  0  0  0  0  0  0  0  0  0
    2.3158   -7.0219    2.1215 C   0  0  2  0  0  0  0  0  0  0  0  0
    2.4986   -5.4795    1.7714 C   0  0  0  0  0  0  0  0  0  0  0  0
    3.4914   -4.4795    2.5370 C   0  0  2  0  0  0  0  0  0  0  0  0
    4.7799   -4.0975    1.6956 C   0  0  2  0  0  0  0  0  0  0  0  0
    3.6569   -4.4115    4.1400 C   0  0  1  0  0  0  0  0  0  0  0  0
    4.0496   -2.9619    4.5570 C   0  0  0  0  0  0  0  0  0  0  0  0
    2.3105   -4.6419    4.7964 C   0  0  0  0  0  0  0  0  0  0  0  0
    1.8403   -6.1081    4.7141 C   0  0  1  0  0  0  0  0  0  0  0  0
    1.3944   -6.3206    6.0399 O   0  0  0  0  0  0  0  0  0  0  0  0
    0.5992   -6.2240    3.8103 C   0  0  0  0  0  0  0  0  0  0  0  0
    0.9312   -7.3508    2.8576 C   0  0  2  0  0  0  0  0  0  0  0  0
    1.0122   -8.6224    3.7871 C   0  0  0  0  0  0  0  0  0  0  0  0
   -0.1787   -8.8602    4.7534 C   0  0  0  0  0  0  0  0  0  0  0  0
    0.9593   -9.8992    2.8997 C   0  0  0  0  0  0  0  0  0  0  0  0
    2.1791   -8.4423    4.6735 O   0  0  0  0  0  0  0  0  0  0  0  0
    2.9752   -7.2336    4.4193 C   0  0  1  0  0  0  0  0  0  0  0  0
    4.1398   -6.7910    5.3327 C   0  0  0  0  0  0  0  0  0  0  0  0
    4.6339   -5.3790    4.8831 C   0  0  0  0  0  0  0  0  0  0  0  0
    5.7942   -5.0399    5.1073 O   0  0  0  0  0  0  0  0  0  0  0  0
    4.0347   -1.0969   -3.8427 H   0  0  0  0  0  0  0  0  0  0  0  0
    4.4233    0.2279   -2.7314 H   0  0  0  0  0  0  0  0  0  0  0  0
    2.7785   -0.3944   -2.8165 H   0  0  0  0  0  0  0  0  0  0  0  0
    5.3937   -4.4971   -3.0482 H   0  0  0  0  0  0  0  0  0  0  0  0
    5.7243   -2.8945   -3.6607 H   0  0  0  0  0  0  0  0  0  0  0  0
    4.0941   -3.5841   -3.8037 H   0  0  0  0  0  0  0  0  0  0  0  0
    7.3812   -5.2652    2.1124 H   0  0  0  0  0  0  0  0  0  0  0  0
    7.4415   -4.0704    0.8293 H   0  0  0  0  0  0  0  0  0  0  0  0
    7.6338   -5.7709    0.4474 H   0  0  0  0  0  0  0  0  0  0  0  0
    4.1999   -6.8442    0.3824 H   0  0  0  0  0  0  0  0  0  0  0  0
    5.8376   -7.2953    0.5181 H   0  0  0  0  0  0  0  0  0  0  0  0
    3.3520   -9.8451    3.3647 H   0  0  0  0  0  0  0  0  0  0  0  0
    4.8681   -9.4207    2.9141 H   0  0  0  0  0  0  0  0  0  0  0  0
    3.6607   -9.4335    1.6801 H   0  0  0  0  0  0  0  0  0  0  0  0
    2.2682   -7.5637    1.1787 H   0  0  0  0  0  0  0  0  0  0  0  0
    2.7626   -5.4255    0.7144 H   0  0  0  0  0  0  0  0  0  0  0  0
    1.5310   -5.0066    1.6909 H   0  0  0  0  0  0  0  0  0  0  0  0
    2.8912   -3.5739    2.4205 H   0  0  0  0  0  0  0  0  0  0  0  0
    5.5055   -3.6034    2.3454 H   0  0  0  0  0  0  0  0  0  0  0  0
    3.2732   -2.2345    4.3021 H   0  0  0  0  0  0  0  0  0  0  0  0
    4.9813   -2.6064    4.1128 H   0  0  0  0  0  0  0  0  0  0  0  0
    4.1953   -2.8844    5.6334 H   0  0  0  0  0  0  0  0  0  0  0  0
    2.3910   -4.3344    5.8459 H   0  0  0  0  0  0  0  0  0  0  0  0
    1.5668   -3.9543    4.4041 H   0  0  0  0  0  0  0  0  0  0  0  0
    1.0969   -7.2197    6.1002 H   0  0  0  0  0  0  0  0  0  0  0  0
   -0.3154   -6.3925    4.3698 H   0  0  0  0  0  0  0  0  0  0  0  0
    0.3627   -5.3090    3.2961 H   0  0  0  0  0  0  0  0  0  0  0  0
    0.1301   -7.4602    2.1389 H   0  0  0  0  0  0  0  0  0  0  0  0
   -1.1390   -8.7926    4.2396 H   0  0  0  0  0  0  0  0  0  0  0  0
   -0.2123   -8.1845    5.6048 H   0  0  0  0  0  0  0  0  0  0  0  0
   -0.1245   -9.8564    5.1925 H   0  0  0  0  0  0  0  0  0  0  0  0
   -0.0665  -10.1300    2.5893 H   0  0  0  0  0  0  0  0  0  0  0  0
    1.3323  -10.7826    3.4233 H   0  0  0  0  0  0  0  0  0  0  0  0
    1.5007   -9.7999    1.9629 H   0  0  0  0  0  0  0  0  0  0  0  0
    3.8194   -6.7180    6.3689 H   0  0  0  0  0  0  0  0  0  0  0  0
    4.9586   -7.5075    5.3216 H   0  0  0  0  0  0  0  0  0  0  0  0
  1  2  1  0
  1 37  1  0
  1 38  1  0
  1 39  1  0
  2  8  2  0
  2  3  1  0
  3  4  1  0
  4  5  2  0
  4  6  1  0
  6 21  1  0
  6  7  2  0
  7  8  1  0
  7 10  1  0
  8  9  1  0
  9 40  1  0
  9 41  1  0
  9 42  1  0
 10 11  1  0
 11 21  1  0
 11 12  1  1
 11 13  1  0
 12 43  1  0
 12 44  1  0
 12 45  1  0
 13 14  1  0
 13 46  1  0
 13 47  1  0
 14 15  2  0
 14 16  1  0
 16 33  1  0
 16 17  1  1
 16 18  1  0
 17 48  1  0
 17 49  1  0
 17 50  1  0
 18 28  1  0
 18 19  1  0
 18 51  1  6
 19 20  1  0
 19 52  1  0
 19 53  1  0
 20 21  1  0
 20 22  1  0
 20 54  1  6
 21 55  1  1
 22 35  1  0
 22 23  1  6
 22 24  1  0
 23 56  1  0
 23 57  1  0
 23 58  1  0
 24 25  1  0
 24 59  1  0
 24 60  1  0
 25 33  1  0
 25 26  1  1
 25 27  1  0
 26 61  1  0
 27 28  1  0
 27 62  1  0
 27 63  1  0
 28 29  1  0
 28 64  1  6
 29 30  1  0
 29 31  1  0
 29 32  1  0
 30 65  1  0
 30 66  1  0
 30 67  1  0
 31 68  1  0
 31 69  1  0
 31 70  1  0
 33 32  1  1
 33 34  1  0
 34 35  1  0
 34 71  1  0
 34 72  1  0
 35 36  2  0
M  END
>  <i_m_ct_stereo_status>  (240) 
1

>  <s_m_source_file>  (240) 
/var/tmp/pbs.5076255.sched01/tmpkd0wjm76/823hn9mkkz.sdf

>  <i_m_source_file_index>  (240) 
20

>  <i_lp_mmshare_version>  (240) 
48012

>  <i_f3d_flags>  (240) 
0

>  <s_epik_input>  (240) 
Tz1jMW9jKFtDSDNdKWMoW0NIM10pYyhPW0NAXTIoW0NIM10pW0NIMl1DMz1PKWMxW0NASF0yW0NIXShbQ0gyXTQpW0NAXShbQ0gzXSkoQyg9TylbQ0gyXTUpW0NIMl1bQ0BAXTYoW09IXSlbQ0gyXVtDQEhdKEMoTzcpKFtDSDNdKVtDSDNdKVtDQEBIXTRbQ0BAXTMoW0NAQF01NjcpW0NIM10=

>  <s_epik_cmdline>  (240) 
J2VwaWtfcHl0aG9uJywgJy1waHQnLCAnMi4wJywgJy1waCcsICc3LjAnLCAnLXRuJywgJzgnLCAnLW1hJywgJzIwMCcsICctaW1hZScsICc8aW5maWxlLm1hZT4nLCAnLW9tYWUnLCAnPG91dGZpbGUubWFlPic=

>  <r_lp_tautomer_probability>  (240) 
1

>  <r_epik_Ionization_Penalty>  (240) 
5.75539e-08

>  <r_epik_Ionization_Penalty_Charging>  (240) 
0

>  <r_epik_Ionization_Penalty_Neutral>  (240) 
5.75539e-08

>  <r_epik_State_Penalty>  (240) 
-0

>  <r_epik_Charging_Adjusted_Penalty>  (240) 
0

>  <i_epik_Tot_Q>  (240) 
0

>  <i_epik_Tot_abs_Q>  (240) 
0

>  <s_lp_Force_Field>  (240) 
OPLS3e

>  <r_lp_Energy>  (240) 
134.949

>  <b_lp_Chiralities_Consistent>  (240) 
1

>  <s_lp_Variant>  (240) 
71:0-1

>  <s_i_glide_gridfile>  (240) 
pfpi4k_grid

>  <i_i_glide_lignum>  (240) 
20

>  <i_i_glide_rotatable_bonds>  (240) 
1

>  <r_i_docking_score>  (240) 
-2.57597

>  <r_i_glide_ligand_efficiency>  (240) 
-0.0715548

>  <r_i_glide_ligand_efficiency_sa>  (240) 
-0.236269

>  <r_i_glide_ligand_efficiency_ln>  (240) 
-0.562008

>  <r_i_glide_gscore>  (240) 
-2.57597

>  <r_i_glide_lipo>  (240) 
-0.713019

>  <r_i_glide_hbond>  (240) 
0

>  <r_i_glide_metal>  (240) 
-0

>  <r_i_glide_rewards>  (240) 
-0.0232368

>  <r_i_glide_evdw>  (240) 
-36.1135

>  <r_i_glide_ecoul>  (240) 
-0.226955

>  <r_i_glide_erotb>  (240) 
0

>  <r_i_glide_esite>  (240) 
0

>  <r_i_glide_emodel>  (240) 
-41.9221

>  <r_i_glide_energy>  (240) 
-36.3405

>  <r_i_glide_einternal>  (240) 
0.0863815

>  <r_i_glide_intrahb_reward>  (240) 
-0

>  <i_i_glide_confnum>  (240) 
2

>  <i_i_glide_posenum>  (240) 
2

>  <r_i_glide_eff_state_penalty>  (240) 
0

>  <ligand_id>  (240) 
71

>  <original_smiles>  (240) 
Cc1oc(=O)c2c(c1C)OC1(C)CC(=O)C3(C)C4CC(C21)C1(C)CC2(O)CC4C(C)(C)OC23CC1=O

>  <smiles>  (240) 
[H]OC12C([H])([H])C3([H])C4([H])C([H])([H])C5([H])C6([H])c7c(c(C([H])([H])[H])c(C([H])([H])[H])oc7=O)OC6(C([H])([H])[H])C([H])([H])C(=O)C4(C([H])([H])[H])C1(OC3(C([H])([H])[H])C([H])([H])[H])C([H])([H])C(=O)C5(C([H])([H])[H])C2([H])[H]

$$$$
71:0:1
     RDKit          3D

 72 78  0  0  1  0  0  0  0  0999 V2000
    0.9472   -7.4642    1.6892 C   0  0  0  0  0  0  0  0  0  0  0  0
    1.4049   -6.1858    2.3600 C   0  0  0  0  0  0  0  0  0  0  0  0
    2.1068   -5.3734    1.4825 O   0  0  0  0  0  0  0  0  0  0  0  0
    2.6232   -4.1419    1.8448 C   0  0  0  0  0  0  0  0  0  0  0  0
    3.2596   -3.4444    1.0597 O   0  0  0  0  0  0  0  0  0  0  0  0
    2.3343   -3.7410    3.2370 C   0  0  0  0  0  0  0  0  0  0  0  0
    1.6942   -4.5566    4.0591 C   0  0  0  0  0  0  0  0  0  0  0  0
    1.1710   -5.8358    3.6487 C   0  0  0  0  0  0  0  0  0  0  0  0
    0.4055   -6.7186    4.6213 C   0  0  0  0  0  0  0  0  0  0  0  0
    1.6287   -4.0635    5.3227 O   0  0  0  0  0  0  0  0  0  0  0  0
    2.3993   -2.8525    5.3985 C   0  0  2  0  0  0  0  0  0  0  0  0
    3.6627   -3.2564    6.1939 C   0  0  0  0  0  0  0  0  0  0  0  0
    1.5235   -1.8720    6.2008 C   0  0  0  0  0  0  0  0  0  0  0  0
    2.0278   -0.4370    6.1391 C   0  0  0  0  0  0  0  0  0  0  0  0
    3.0653   -0.1732    6.7499 O   0  0  0  0  0  0  0  0  0  0  0  0
    1.1196    0.6940    5.5164 C   0  0  2  0  0  0  0  0  0  0  0  0
    0.5829    1.1793    6.9343 C   0  0  0  0  0  0  0  0  0  0  0  0
    0.0388    0.1718    4.5246 C   0  0  2  0  0  0  0  0  0  0  0  0
    0.6232   -0.9418    3.5480 C   0  0  0  0  0  0  0  0  0  0  0  0
    2.1738   -1.1718    3.2319 C   0  0  2  0  0  0  0  0  0  0  0  0
    2.7757   -2.4680    3.9128 C   0  0  2  0  0  0  0  0  0  0  0  0
    3.2187    0.0138    2.9274 C   0  0  1  0  0  0  0  0  0  0  0  0
    4.3408   -0.5159    1.9772 C   0  0  0  0  0  0  0  0  0  0  0  0
    2.5219    1.1048    2.1326 C   0  0  0  0  0  0  0  0  0  0  0  0
    1.5370    1.9540    2.9676 C   0  0  1  0  0  0  0  0  0  0  0  0
    1.8488    3.2757    2.5332 O   0  0  0  0  0  0  0  0  0  0  0  0
    0.0965    1.6928    2.5012 C   0  0  0  0  0  0  0  0  0  0  0  0
   -0.6715    1.3914    3.7677 C   0  0  2  0  0  0  0  0  0  0  0  0
   -0.6187    2.7415    4.5842 C   0  0  0  0  0  0  0  0  0  0  0  0
   -1.0195    4.0412    3.8320 C   0  0  0  0  0  0  0  0  0  0  0  0
   -1.6893    2.6890    5.7118 C   0  0  0  0  0  0  0  0  0  0  0  0
    0.7899    2.9532    4.9858 O   0  0  0  0  0  0  0  0  0  0  0  0
    1.7164    1.8900    4.5911 C   0  0  1  0  0  0  0  0  0  0  0  0
    3.2464    1.9940    4.7701 C   0  0  0  0  0  0  0  0  0  0  0  0
    3.9328    0.7579    4.1063 C   0  0  0  0  0  0  0  0  0  0  0  0
    5.0312    0.3785    4.5160 O   0  0  0  0  0  0  0  0  0  0  0  0
    0.3685   -8.1178    2.3446 H   0  0  0  0  0  0  0  0  0  0  0  0
    1.8178   -8.0243    1.3433 H   0  0  0  0  0  0  0  0  0  0  0  0
    0.3330   -7.2313    0.8169 H   0  0  0  0  0  0  0  0  0  0  0  0
    0.3620   -6.2700    5.6130 H   0  0  0  0  0  0  0  0  0  0  0  0
    0.8933   -7.6875    4.7177 H   0  0  0  0  0  0  0  0  0  0  0  0
   -0.6153   -6.8741    4.2773 H   0  0  0  0  0  0  0  0  0  0  0  0
    4.3721   -2.4340    6.2993 H   0  0  0  0  0  0  0  0  0  0  0  0
    4.1880   -4.0779    5.7039 H   0  0  0  0  0  0  0  0  0  0  0  0
    3.4027   -3.6005    7.1957 H   0  0  0  0  0  0  0  0  0  0  0  0
    0.4786   -1.9411    5.9174 H   0  0  0  0  0  0  0  0  0  0  0  0
    1.5295   -2.1742    7.2466 H   0  0  0  0  0  0  0  0  0  0  0  0
    0.3024    2.2189    7.0439 H   0  0  0  0  0  0  0  0  0  0  0  0
    1.3109    1.1395    7.7477 H   0  0  0  0  0  0  0  0  0  0  0  0
   -0.2522    0.5658    7.2742 H   0  0  0  0  0  0  0  0  0  0  0  0
   -0.7519   -0.2976    5.1091 H   0  0  0  0  0  0  0  0  0  0  0  0
    0.2255   -1.9004    3.8798 H   0  0  0  0  0  0  0  0  0  0  0  0
    0.1158   -0.8896    2.5961 H   0  0  0  0  0  0  0  0  0  0  0  0
    2.0535   -1.5063    2.2009 H   0  0  0  0  0  0  0  0  0  0  0  0
    3.8618   -2.4397    3.8430 H   0  0  0  0  0  0  0  0  0  0  0  0
    3.9441   -0.8104    1.0043 H   0  0  0  0  0  0  0  0  0  0  0  0
    4.8988   -1.3603    2.3753 H   0  0  0  0  0  0  0  0  0  0  0  0
    5.0910    0.2489    1.7747 H   0  0  0  0  0  0  0  0  0  0  0  0
    3.3122    1.7415    1.7311 H   0  0  0  0  0  0  0  0  0  0  0  0
    2.0620    0.6957    1.2317 H   0  0  0  0  0  0  0  0  0  0  0  0
    1.2159    3.5497    1.8676 H   0  0  0  0  0  0  0  0  0  0  0  0
   -0.3400    2.5300    1.9664 H   0  0  0  0  0  0  0  0  0  0  0  0
    0.0047    0.9149    1.7484 H   0  0  0  0  0  0  0  0  0  0  0  0
   -1.6997    1.1403    3.5026 H   0  0  0  0  0  0  0  0  0  0  0  0
   -1.9578    3.9194    3.2900 H   0  0  0  0  0  0  0  0  0  0  0  0
   -0.2739    4.3858    3.1208 H   0  0  0  0  0  0  0  0  0  0  0  0
   -1.1402    4.8702    4.5300 H   0  0  0  0  0  0  0  0  0  0  0  0
   -2.6852    2.9040    5.3204 H   0  0  0  0  0  0  0  0  0  0  0  0
   -1.4918    3.4209    6.4979 H   0  0  0  0  0  0  0  0  0  0  0  0
   -1.7846    1.7048    6.1649 H   0  0  0  0  0  0  0  0  0  0  0  0
    3.6345    2.8937    4.2922 H   0  0  0  0  0  0  0  0  0  0  0  0
    3.5235    2.0650    5.8205 H   0  0  0  0  0  0  0  0  0  0  0  0
  1  2  1  0
  1 37  1  0
  1 38  1  0
  1 39  1  0
  2  8  2  0
  2  3  1  0
  3  4  1  0
  4  5  2  0
  4  6  1  0
  6 21  1  0
  6  7  2  0
  7  8  1  0
  7 10  1  0
  8  9  1  0
  9 40  1  0
  9 41  1  0
  9 42  1  0
 10 11  1  0
 11 21  1  0
 11 12  1  1
 11 13  1  0
 12 43  1  0
 12 44  1  0
 12 45  1  0
 13 14  1  0
 13 46  1  0
 13 47  1  0
 14 15  2  0
 14 16  1  0
 16 33  1  0
 16 17  1  1
 16 18  1  0
 17 48  1  0
 17 49  1  0
 17 50  1  0
 18 28  1  0
 18 19  1  0
 18 51  1  1
 19 20  1  0
 19 52  1  0
 19 53  1  0
 20 21  1  0
 20 22  1  0
 20 54  1  6
 21 55  1  1
 22 35  1  0
 22 23  1  6
 22 24  1  0
 23 56  1  0
 23 57  1  0
 23 58  1  0
 24 25  1  0
 24 59  1  0
 24 60  1  0
 25 33  1  0
 25 26  1  6
 25 27  1  0
 26 61  1  0
 27 28  1  0
 27 62  1  0
 27 63  1  0
 28 29  1  0
 28 64  1  6
 29 30  1  0
 29 31  1  0
 29 32  1  0
 30 65  1  0
 30 66  1  0
 30 67  1  0
 31 68  1  0
 31 69  1  0
 31 70  1  0
 33 32  1  1
 33 34  1  0
 34 35  1  0
 34 71  1  0
 34 72  1  0
 35 36  2  0
M  END
>  <i_m_ct_stereo_status>  (241) 
1

>  <s_m_source_file>  (241) 
/var/tmp/pbs.5076255.sched01/tmpkd0wjm76/823hn9mkkz.sdf

>  <i_m_source_file_index>  (241) 
20

>  <i_lp_mmshare_version>  (241) 
48012

>  <i_f3d_flags>  (241) 
0

>  <s_epik_input>  (241) 
Tz1jMW9jKFtDSDNdKWMoW0NIM10pYyhPW0NAXTIoW0NIM10pW0NIMl1DMz1PKWMxW0NASF0yW0NIXShbQ0gyXTQpW0NAXShbQ0gzXSkoQyg9TylbQ0gyXTUpW0NIMl1bQ0BAXTYoW09IXSlbQ0gyXVtDQEhdKEMoTzcpKFtDSDNdKVtDSDNdKVtDQEBIXTRbQ0BAXTMoW0NAQF01NjcpW0NIM10=

>  <s_epik_cmdline>  (241) 
J2VwaWtfcHl0aG9uJywgJy1waHQnLCAnMi4wJywgJy1waCcsICc3LjAnLCAnLXRuJywgJzgnLCAnLW1hJywgJzIwMCcsICctaW1hZScsICc8aW5maWxlLm1hZT4nLCAnLW9tYWUnLCAnPG91dGZpbGUubWFlPic=

>  <r_lp_tautomer_probability>  (241) 
1

>  <r_epik_Ionization_Penalty>  (241) 
5.75539e-08

>  <r_epik_Ionization_Penalty_Charging>  (241) 
0

>  <r_epik_Ionization_Penalty_Neutral>  (241) 
5.75539e-08

>  <r_epik_State_Penalty>  (241) 
-0

>  <r_epik_Charging_Adjusted_Penalty>  (241) 
0

>  <i_epik_Tot_Q>  (241) 
0

>  <i_epik_Tot_abs_Q>  (241) 
0

>  <s_lp_Force_Field>  (241) 
OPLS3e

>  <r_lp_Energy>  (241) 
134.949

>  <b_lp_Chiralities_Consistent>  (241) 
1

>  <s_lp_Variant>  (241) 
71:0-1

>  <s_i_glide_gridfile>  (241) 
pfpi4k_grid

>  <i_i_glide_lignum>  (241) 
20

>  <i_i_glide_rotatable_bonds>  (241) 
1

>  <r_i_docking_score>  (241) 
-2.3723

>  <r_i_glide_ligand_efficiency>  (241) 
-0.0658974

>  <r_i_glide_ligand_efficiency_sa>  (241) 
-0.217588

>  <r_i_glide_ligand_efficiency_ln>  (241) 
-0.517573

>  <r_i_glide_gscore>  (241) 
-2.3723

>  <r_i_glide_lipo>  (241) 
-0.145228

>  <r_i_glide_hbond>  (241) 
-0.00511751

>  <r_i_glide_metal>  (241) 
-0

>  <r_i_glide_rewards>  (241) 
-0.0232368

>  <r_i_glide_evdw>  (241) 
-30.0997

>  <r_i_glide_ecoul>  (241) 
-4.60979

>  <r_i_glide_erotb>  (241) 
0

>  <r_i_glide_esite>  (241) 
-0.00226763

>  <r_i_glide_emodel>  (241) 
-39.2149

>  <r_i_glide_energy>  (241) 
-34.7095

>  <r_i_glide_einternal>  (241) 
0.972567

>  <r_i_glide_intrahb_reward>  (241) 
-0

>  <i_i_glide_confnum>  (241) 
1

>  <i_i_glide_posenum>  (241) 
1

>  <r_i_glide_eff_state_penalty>  (241) 
0

>  <ligand_id>  (241) 
71

>  <original_smiles>  (241) 
Cc1oc(=O)c2c(c1C)OC1(C)CC(=O)C3(C)C4CC(C21)C1(C)CC2(O)CC4C(C)(C)OC23CC1=O

>  <smiles>  (241) 
[H]OC12C([H])([H])C3([H])C4([H])C([H])([H])C5([H])C6([H])c7c(c(C([H])([H])[H])c(C([H])([H])[H])oc7=O)OC6(C([H])([H])[H])C([H])([H])C(=O)C4(C([H])([H])[H])C1(OC3(C([H])([H])[H])C([H])([H])[H])C([H])([H])C(=O)C5(C([H])([H])[H])C2([H])[H]

$$$$
71:0:2
     RDKit          3D

 72 78  0  0  1  0  0  0  0  0999 V2000
    0.1938    1.4537    2.0685 C   0  0  0  0  0  0  0  0  0  0  0  0
    0.7578    0.2434    2.7797 C   0  0  0  0  0  0  0  0  0  0  0  0
   -0.1251   -0.2410    3.7333 O   0  0  0  0  0  0  0  0  0  0  0  0
    0.1439   -1.3449    4.5173 C   0  0  0  0  0  0  0  0  0  0  0  0
   -0.6477   -1.7434    5.3713 O   0  0  0  0  0  0  0  0  0  0  0  0
    1.4442   -1.9929    4.2374 C   0  0  0  0  0  0  0  0  0  0  0  0
    2.2778   -1.4832    3.3456 C   0  0  0  0  0  0  0  0  0  0  0  0
    1.9642   -0.3279    2.5447 C   0  0  0  0  0  0  0  0  0  0  0  0
    2.9427    0.1926    1.5056 C   0  0  0  0  0  0  0  0  0  0  0  0
    3.4646   -2.1423    3.3142 O   0  0  0  0  0  0  0  0  0  0  0  0
    3.4872   -3.1259    4.3592 C   0  0  2  0  0  0  0  0  0  0  0  0
    4.4615   -2.5371    5.4061 C   0  0  0  0  0  0  0  0  0  0  0  0
    4.0677   -4.3932    3.7046 C   0  0  0  0  0  0  0  0  0  0  0  0
    3.9000   -5.6359    4.5663 C   0  0  0  0  0  0  0  0  0  0  0  0
    4.5836   -5.7140    5.5889 O   0  0  0  0  0  0  0  0  0  0  0  0
    3.0533   -6.8576    4.0377 C   0  0  2  0  0  0  0  0  0  0  0  0
    4.3341   -7.6561    3.5375 C   0  0  0  0  0  0  0  0  0  0  0  0
    2.0068   -6.4904    2.9417 C   0  0  2  0  0  0  0  0  0  0  0  0
    1.2369   -5.1410    3.2875 C   0  0  0  0  0  0  0  0  0  0  0  0
    1.1283   -4.4926    4.7488 C   0  0  2  0  0  0  0  0  0  0  0  0
    2.0168   -3.1958    4.9374 C   0  0  2  0  0  0  0  0  0  0  0  0
    0.8154   -5.3244    6.0924 C   0  0  1  0  0  0  0  0  0  0  0  0
    0.0602   -4.4133    7.1132 C   0  0  0  0  0  0  0  0  0  0  0  0
   -0.1670   -6.4306    5.7753 C   0  0  0  0  0  0  0  0  0  0  0  0
    0.4523   -7.5982    4.9800 C   0  0  1  0  0  0  0  0  0  0  0  0
   -0.0873   -8.7031    5.6886 O   0  0  0  0  0  0  0  0  0  0  0  0
   -0.1578   -7.6538    3.5699 C   0  0  0  0  0  0  0  0  0  0  0  0
    1.0349   -7.7306    2.6413 C   0  0  2  0  0  0  0  0  0  0  0  0
    1.6941   -9.1232    2.9767 C   0  0  0  0  0  0  0  0  0  0  0  0
    0.7536  -10.3624    2.9888 C   0  0  0  0  0  0  0  0  0  0  0  0
    2.6982   -9.4808    1.8440 C   0  0  0  0  0  0  0  0  0  0  0  0
    2.2204   -9.0335    4.3586 O   0  0  0  0  0  0  0  0  0  0  0  0
    2.0760   -7.7249    5.0006 C   0  0  1  0  0  0  0  0  0  0  0  0
    2.4121   -7.4737    6.4869 C   0  0  0  0  0  0  0  0  0  0  0  0
    1.9744   -6.0262    6.8809 C   0  0  0  0  0  0  0  0  0  0  0  0
    2.5455   -5.4448    7.8045 O   0  0  0  0  0  0  0  0  0  0  0  0
    0.8465    1.8393    1.2830 H   0  0  0  0  0  0  0  0  0  0  0  0
    0.0165    2.2595    2.7832 H   0  0  0  0  0  0  0  0  0  0  0  0
   -0.7610    1.1976    1.6044 H   0  0  0  0  0  0  0  0  0  0  0  0
    3.8645   -0.3863    1.4964 H   0  0  0  0  0  0  0  0  0  0  0  0
    3.1994    1.2314    1.7065 H   0  0  0  0  0  0  0  0  0  0  0  0
    2.4981    0.1290    0.5141 H   0  0  0  0  0  0  0  0  0  0  0  0
    4.5522   -3.1650    6.2938 H   0  0  0  0  0  0  0  0  0  0  0  0
    4.1325   -1.5505    5.7364 H   0  0  0  0  0  0  0  0  0  0  0  0
    5.4599   -2.4128    4.9843 H   0  0  0  0  0  0  0  0  0  0  0  0
    3.6787   -4.5474    2.7037 H   0  0  0  0  0  0  0  0  0  0  0  0
    5.1352   -4.2498    3.5480 H   0  0  0  0  0  0  0  0  0  0  0  0
    4.2860   -8.7373    3.5323 H   0  0  0  0  0  0  0  0  0  0  0  0
    5.2240   -7.5523    4.1620 H   0  0  0  0  0  0  0  0  0  0  0  0
    4.6447   -7.3238    2.5454 H   0  0  0  0  0  0  0  0  0  0  0  0
    2.5502   -6.3181    2.0129 H   0  0  0  0  0  0  0  0  0  0  0  0
    1.6413   -4.3649    2.6382 H   0  0  0  0  0  0  0  0  0  0  0  0
    0.2425   -5.1777    2.8603 H   0  0  0  0  0  0  0  0  0  0  0  0
    0.1366   -4.0550    4.6302 H   0  0  0  0  0  0  0  0  0  0  0  0
    2.0680   -2.9421    5.9952 H   0  0  0  0  0  0  0  0  0  0  0  0
   -0.9092   -4.0895    6.7325 H   0  0  0  0  0  0  0  0  0  0  0  0
    0.6142   -3.5214    7.3977 H   0  0  0  0  0  0  0  0  0  0  0  0
   -0.1395   -4.9423    8.0479 H   0  0  0  0  0  0  0  0  0  0  0  0
   -0.5409   -6.7915    6.7353 H   0  0  0  0  0  0  0  0  0  0  0  0
   -1.0643   -6.0359    5.2970 H   0  0  0  0  0  0  0  0  0  0  0  0
    0.0111   -9.4816    5.1545 H   0  0  0  0  0  0  0  0  0  0  0  0
   -0.8451   -8.4857    3.4304 H   0  0  0  0  0  0  0  0  0  0  0  0
   -0.8115   -6.8215    3.3380 H   0  0  0  0  0  0  0  0  0  0  0  0
    0.6900   -7.7100    1.6061 H   0  0  0  0  0  0  0  0  0  0  0  0
    0.1370  -10.4066    2.0898 H   0  0  0  0  0  0  0  0  0  0  0  0
    0.0874  -10.4146    3.8470 H   0  0  0  0  0  0  0  0  0  0  0  0
    1.3342  -11.2862    3.0275 H   0  0  0  0  0  0  0  0  0  0  0  0
    2.1803   -9.8653    0.9656 H   0  0  0  0  0  0  0  0  0  0  0  0
    3.4054  -10.2546    2.1532 H   0  0  0  0  0  0  0  0  0  0  0  0
    3.2525   -8.6267    1.4619 H   0  0  0  0  0  0  0  0  0  0  0  0
    1.8827   -8.1765    7.1309 H   0  0  0  0  0  0  0  0  0  0  0  0
    3.4714   -7.6207    6.6888 H   0  0  0  0  0  0  0  0  0  0  0  0
  1  2  1  0
  1 37  1  0
  1 38  1  0
  1 39  1  0
  2  8  2  0
  2  3  1  0
  3  4  1  0
  4  5  2  0
  4  6  1  0
  6 21  1  0
  6  7  2  0
  7  8  1  0
  7 10  1  0
  8  9  1  0
  9 40  1  0
  9 41  1  0
  9 42  1  0
 10 11  1  0
 11 21  1  0
 11 12  1  1
 11 13  1  0
 12 43  1  0
 12 44  1  0
 12 45  1  0
 13 14  1  0
 13 46  1  0
 13 47  1  0
 14 15  2  0
 14 16  1  0
 16 33  1  0
 16 17  1  6
 16 18  1  0
 17 48  1  0
 17 49  1  0
 17 50  1  0
 18 28  1  0
 18 19  1  0
 18 51  1  6
 19 20  1  0
 19 52  1  0
 19 53  1  0
 20 21  1  0
 20 22  1  0
 20 54  1  6
 21 55  1  1
 22 35  1  0
 22 23  1  1
 22 24  1  0
 23 56  1  0
 23 57  1  0
 23 58  1  0
 24 25  1  0
 24 59  1  0
 24 60  1  0
 25 33  1  0
 25 26  1  1
 25 27  1  0
 26 61  1  0
 27 28  1  0
 27 62  1  0
 27 63  1  0
 28 29  1  0
 28 64  1  6
 29 30  1  0
 29 31  1  0
 29 32  1  0
 30 65  1  0
 30 66  1  0
 30 67  1  0
 31 68  1  0
 31 69  1  0
 31 70  1  0
 33 32  1  6
 33 34  1  0
 34 35  1  0
 34 71  1  0
 34 72  1  0
 35 36  2  0
M  END
>  <i_m_ct_stereo_status>  (242) 
1

>  <s_m_source_file>  (242) 
/var/tmp/pbs.5076255.sched01/tmpkd0wjm76/823hn9mkkz.sdf

>  <i_m_source_file_index>  (242) 
20

>  <i_lp_mmshare_version>  (242) 
48012

>  <i_f3d_flags>  (242) 
0

>  <s_epik_input>  (242) 
Tz1jMW9jKFtDSDNdKWMoW0NIM10pYyhPW0NAXTIoW0NIM10pW0NIMl1DMz1PKWMxW0NASF0yW0NIXShbQ0gyXTQpW0NAXShbQ0gzXSkoQyg9TylbQ0gyXTUpW0NIMl1bQ0BAXTYoW09IXSlbQ0gyXVtDQEhdKEMoTzcpKFtDSDNdKVtDSDNdKVtDQEBIXTRbQ0BAXTMoW0NAQF01NjcpW0NIM10=

>  <s_epik_cmdline>  (242) 
J2VwaWtfcHl0aG9uJywgJy1waHQnLCAnMi4wJywgJy1waCcsICc3LjAnLCAnLXRuJywgJzgnLCAnLW1hJywgJzIwMCcsICctaW1hZScsICc8aW5maWxlLm1hZT4nLCAnLW9tYWUnLCAnPG91dGZpbGUubWFlPic=

>  <r_lp_tautomer_probability>  (242) 
1

>  <r_epik_Ionization_Penalty>  (242) 
5.75539e-08

>  <r_epik_Ionization_Penalty_Charging>  (242) 
0

>  <r_epik_Ionization_Penalty_Neutral>  (242) 
5.75539e-08

>  <r_epik_State_Penalty>  (242) 
-0

>  <r_epik_Charging_Adjusted_Penalty>  (242) 
0

>  <i_epik_Tot_Q>  (242) 
0

>  <i_epik_Tot_abs_Q>  (242) 
0

>  <s_lp_Force_Field>  (242) 
OPLS3e

>  <r_lp_Energy>  (242) 
134.949

>  <b_lp_Chiralities_Consistent>  (242) 
1

>  <s_lp_Variant>  (242) 
71:0-1

>  <s_i_glide_gridfile>  (242) 
pfpi4k_grid

>  <i_i_glide_lignum>  (242) 
20

>  <i_i_glide_rotatable_bonds>  (242) 
1

>  <r_i_docking_score>  (242) 
-2.08225

>  <r_i_glide_ligand_efficiency>  (242) 
-0.0578402

>  <r_i_glide_ligand_efficiency_sa>  (242) 
-0.190984

>  <r_i_glide_ligand_efficiency_ln>  (242) 
-0.45429

>  <r_i_glide_gscore>  (242) 
-2.08225

>  <r_i_glide_lipo>  (242) 
-0.139405

>  <r_i_glide_hbond>  (242) 
0

>  <r_i_glide_metal>  (242) 
-0

>  <r_i_glide_rewards>  (242) 
-0.0232368

>  <r_i_glide_evdw>  (242) 
-31.4299

>  <r_i_glide_ecoul>  (242) 
-2.32072

>  <r_i_glide_erotb>  (242) 
0

>  <r_i_glide_esite>  (242) 
0

>  <r_i_glide_emodel>  (242) 
-38.2875

>  <r_i_glide_energy>  (242) 
-33.7506

>  <r_i_glide_einternal>  (242) 
0.0995206

>  <r_i_glide_intrahb_reward>  (242) 
-0

>  <i_i_glide_confnum>  (242) 
1

>  <i_i_glide_posenum>  (242) 
29

>  <r_i_glide_eff_state_penalty>  (242) 
0

>  <ligand_id>  (242) 
71

>  <original_smiles>  (242) 
Cc1oc(=O)c2c(c1C)OC1(C)CC(=O)C3(C)C4CC(C21)C1(C)CC2(O)CC4C(C)(C)OC23CC1=O

>  <smiles>  (242) 
[H]OC12C([H])([H])C3([H])C4([H])C([H])([H])C5([H])C6([H])c7c(c(C([H])([H])[H])c(C([H])([H])[H])oc7=O)OC6(C([H])([H])[H])C([H])([H])C(=O)C4(C([H])([H])[H])C1(OC3(C([H])([H])[H])C([H])([H])[H])C([H])([H])C(=O)C5(C([H])([H])[H])C2([H])[H]

$$$$
74:0:0
     RDKit          3D

 51 54  0  0  1  0  0  0  0  0999 V2000
    0.8809   -2.5177    4.1778 C   0  0  0  0  0  0  0  0  0  0  0  0
    1.6870   -3.8183    4.3845 C   0  0  2  0  0  0  0  0  0  0  0  0
    2.6216   -4.0193    3.1817 C   0  0  0  0  0  0  0  0  0  0  0  0
    3.6630   -5.1080    3.4422 C   0  0  0  0  0  0  0  0  0  0  0  0
    3.2958   -6.5402    2.9832 C   0  0  2  0  0  0  0  0  0  0  0  0
    3.7323   -6.8887    1.5242 C   0  0  1  0  0  0  0  0  0  0  0  0
    5.0875   -6.3200    1.0595 C   0  0  0  0  0  0  0  0  0  0  0  0
    3.7131   -8.4188    1.3354 C   0  0  1  0  0  0  0  0  0  0  0  0
    4.7341   -9.0801    2.0553 O   0  0  0  0  0  0  0  0  0  0  0  0
    2.3363   -9.0011    1.6801 C   0  0  0  0  0  0  0  0  0  0  0  0
    1.7901   -8.5663    3.0628 C   0  0  2  0  0  0  0  0  0  0  0  0
    2.5405   -9.2042    4.0797 O   0  0  0  0  0  0  0  0  0  0  0  0
    0.4904   -9.0681    3.0530 O   0  0  0  0  0  0  0  0  0  0  0  0
   -0.5874   -8.1541    3.0199 C   0  0  1  0  0  0  0  0  0  0  0  0
   -1.7396   -8.9295    2.3800 C   0  0  0  0  0  0  0  0  0  0  0  0
   -0.9629   -7.7235    4.4407 C   0  0  0  0  0  0  0  0  0  0  0  0
    0.2574   -7.4516    5.3157 C   0  0  0  0  0  0  0  0  0  0  0  0
    1.2981   -6.4952    4.6789 C   0  0  2  0  0  0  0  0  0  0  0  0
    0.7458   -5.0164    4.7072 C   0  0  1  0  0  0  0  0  0  0  0  0
    0.2504   -4.7209    6.0028 O   0  0  0  0  0  0  0  0  0  0  0  0
    1.8091   -6.9904    3.2603 C   0  0  1  0  0  0  0  0  0  0  0  0
    0.9952   -6.4129    2.2450 O   0  0  0  0  0  0  0  0  0  0  0  0
   -0.4010   -7.0227    2.1669 O   0  0  0  0  0  0  0  0  0  0  0  0
    0.2247   -2.6003    3.3111 H   0  0  0  0  0  0  0  0  0  0  0  0
    1.5379   -1.6628    4.0127 H   0  0  0  0  0  0  0  0  0  0  0  0
    0.2614   -2.2827    5.0427 H   0  0  0  0  0  0  0  0  0  0  0  0
    2.3335   -3.6449    5.2479 H   0  0  0  0  0  0  0  0  0  0  0  0
    2.0775   -4.1732    2.2493 H   0  0  0  0  0  0  0  0  0  0  0  0
    3.1728   -3.0876    3.0393 H   0  0  0  0  0  0  0  0  0  0  0  0
    4.6082   -4.7916    3.0127 H   0  0  0  0  0  0  0  0  0  0  0  0
    3.8838   -5.1297    4.5101 H   0  0  0  0  0  0  0  0  0  0  0  0
    3.9329   -7.1495    3.6253 H   0  0  0  0  0  0  0  0  0  0  0  0
    2.9944   -6.4707    0.8376 H   0  0  0  0  0  0  0  0  0  0  0  0
    5.8883   -6.5493    1.7660 H   0  0  0  0  0  0  0  0  0  0  0  0
    5.0403   -5.2382    0.9235 H   0  0  0  0  0  0  0  0  0  0  0  0
    5.3701   -6.7337    0.0900 H   0  0  0  0  0  0  0  0  0  0  0  0
    3.9121   -8.6477    0.2889 H   0  0  0  0  0  0  0  0  0  0  0  0
    4.7022  -10.0010    1.8268 H   0  0  0  0  0  0  0  0  0  0  0  0
    1.6263   -8.6546    0.9271 H   0  0  0  0  0  0  0  0  0  0  0  0
    2.3504  -10.0903    1.6259 H   0  0  0  0  0  0  0  0  0  0  0  0
    2.5638  -10.1295    3.8851 H   0  0  0  0  0  0  0  0  0  0  0  0
   -1.4692   -9.2374    1.3702 H   0  0  0  0  0  0  0  0  0  0  0  0
   -2.6215   -8.2981    2.3062 H   0  0  0  0  0  0  0  0  0  0  0  0
   -1.9961   -9.8309    2.9422 H   0  0  0  0  0  0  0  0  0  0  0  0
   -1.6299   -6.8621    4.4092 H   0  0  0  0  0  0  0  0  0  0  0  0
   -1.5292   -8.5288    4.9120 H   0  0  0  0  0  0  0  0  0  0  0  0
   -0.0769   -7.0995    6.2881 H   0  0  0  0  0  0  0  0  0  0  0  0
    0.7282   -8.4010    5.5623 H   0  0  0  0  0  0  0  0  0  0  0  0
    2.1570   -6.5374    5.3517 H   0  0  0  0  0  0  0  0  0  0  0  0
   -0.1132   -4.9629    4.0413 H   0  0  0  0  0  0  0  0  0  0  0  0
    0.9748   -4.7661    6.6109 H   0  0  0  0  0  0  0  0  0  0  0  0
  1  2  1  0
  1 24  1  0
  1 25  1  0
  1 26  1  0
  2 19  1  0
  2  3  1  0
  2 27  1  1
  3  4  1  0
  3 28  1  0
  3 29  1  0
  4  5  1  0
  4 30  1  0
  4 31  1  0
  5 21  1  0
  5  6  1  0
  5 32  1  1
  6  7  1  0
  6  8  1  0
  6 33  1  6
  7 34  1  0
  7 35  1  0
  7 36  1  0
  8  9  1  0
  8 10  1  0
  8 37  1  6
  9 38  1  0
 10 11  1  0
 10 39  1  0
 10 40  1  0
 11 21  1  0
 11 12  1  1
 11 13  1  0
 12 41  1  0
 13 14  1  0
 14 23  1  0
 14 15  1  6
 14 16  1  0
 15 42  1  0
 15 43  1  0
 15 44  1  0
 16 17  1  0
 16 45  1  0
 16 46  1  0
 17 18  1  0
 17 47  1  0
 17 48  1  0
 18 19  1  0
 18 21  1  0
 18 49  1  1
 19 20  1  0
 19 50  1  6
 20 51  1  0
 21 22  1  6
 22 23  1  0
M  END
>  <i_m_ct_stereo_status>  (243) 
1

>  <s_m_source_file>  (243) 
/var/tmp/pbs.5076255.sched01/tmpkd0wjm76/823hn9mkkz.sdf

>  <i_m_source_file_index>  (243) 
23

>  <i_lp_mmshare_version>  (243) 
48012

>  <i_f3d_flags>  (243) 
0

>  <s_epik_input>  (243) 
W0NAXTEyM1tDQEBIXTRbQ0gyXVtDSDJdW0NAQEhdKFtDSDNdKVtDQEhdKFtPSF0pW0NASF0yW0NIMl1bQ0gyXVtDQEBdKFtDSDNdKShPTzMpT1tDQEBdMShbT0hdKVtDSDJdW0NASF0oW09IXSlbQ0BASF00W0NIM10=

>  <s_epik_cmdline>  (243) 
J2VwaWtfcHl0aG9uJywgJy1waHQnLCAnMi4wJywgJy1waCcsICc3LjAnLCAnLXRuJywgJzgnLCAnLW1hJywgJzIwMCcsICctaW1hZScsICc8aW5maWxlLm1hZT4nLCAnLW9tYWUnLCAnPG91dGZpbGUubWFlPic=

>  <r_lp_tautomer_probability>  (243) 
1

>  <r_epik_Ionization_Penalty>  (243) 
1.25187e-05

>  <r_epik_Ionization_Penalty_Charging>  (243) 
0

>  <r_epik_Ionization_Penalty_Neutral>  (243) 
1.25187e-05

>  <r_epik_State_Penalty>  (243) 
-0

>  <r_epik_Charging_Adjusted_Penalty>  (243) 
0

>  <i_epik_Tot_Q>  (243) 
0

>  <i_epik_Tot_abs_Q>  (243) 
0

>  <s_lp_Force_Field>  (243) 
OPLS3e

>  <r_lp_Energy>  (243) 
46.6962

>  <b_lp_Chiralities_Consistent>  (243) 
1

>  <s_lp_Variant>  (243) 
74:0-1

>  <s_i_glide_gridfile>  (243) 
pfpi4k_grid

>  <i_i_glide_lignum>  (243) 
23

>  <i_i_glide_rotatable_bonds>  (243) 
3

>  <r_i_docking_score>  (243) 
-3.53814

>  <r_i_glide_ligand_efficiency>  (243) 
-0.153832

>  <r_i_glide_ligand_efficiency_sa>  (243) 
-0.437478

>  <r_i_glide_ligand_efficiency_ln>  (243) 
-0.855554

>  <r_i_glide_gscore>  (243) 
-3.53814

>  <r_i_glide_lipo>  (243) 
-0.492816

>  <r_i_glide_hbond>  (243) 
-0.118917

>  <r_i_glide_metal>  (243) 
-0

>  <r_i_glide_rewards>  (243) 
-1.17

>  <r_i_glide_evdw>  (243) 
-25.2729

>  <r_i_glide_ecoul>  (243) 
-2.87014

>  <r_i_glide_erotb>  (243) 
0

>  <r_i_glide_esite>  (243) 
-0.0622445

>  <r_i_glide_emodel>  (243) 
-34.7325

>  <r_i_glide_energy>  (243) 
-28.1431

>  <r_i_glide_einternal>  (243) 
0.465659

>  <r_i_glide_intrahb_reward>  (243) 
-0

>  <i_i_glide_confnum>  (243) 
1

>  <i_i_glide_posenum>  (243) 
8

>  <r_i_glide_eff_state_penalty>  (243) 
0

>  <ligand_id>  (243) 
74

>  <original_smiles>  (243) 
CC1CCC2C(C)C(O)CC3(O)OC4(C)CCC(C1O)C23OO4

>  <smiles>  (243) 
[H]OC1([H])C([H])([H])C2(O[H])OC3(C([H])([H])[H])OOC24C([H])(C([H])([H])C3([H])[H])C([H])(O[H])C([H])(C([H])([H])[H])C([H])([H])C([H])([H])C4([H])C1([H])C([H])([H])[H]

$$$$
74:0:1
     RDKit          3D

 51 54  0  0  1  0  0  0  0  0999 V2000
    0.8792   -2.5034    4.1762 C   0  0  0  0  0  0  0  0  0  0  0  0
    1.6900   -3.8012    4.3800 C   0  0  2  0  0  0  0  0  0  0  0  0
    2.6289   -3.9960    3.1805 C   0  0  0  0  0  0  0  0  0  0  0  0
    3.6747   -5.0806    3.4413 C   0  0  0  0  0  0  0  0  0  0  0  0
    3.3140   -6.5147    2.9827 C   0  0  2  0  0  0  0  0  0  0  0  0
    3.7529   -6.8618    1.5232 C   0  0  1  0  0  0  0  0  0  0  0  0
    5.1054   -6.2855    1.0581 C   0  0  0  0  0  0  0  0  0  0  0  0
    3.7407   -8.3917    1.3340 C   0  0  1  0  0  0  0  0  0  0  0  0
    4.7650   -9.0499    2.0547 O   0  0  0  0  0  0  0  0  0  0  0  0
    2.3666   -8.9823    1.6795 C   0  0  0  0  0  0  0  0  0  0  0  0
    1.8197   -8.5471    3.0622 C   0  0  2  0  0  0  0  0  0  0  0  0
    2.5715   -9.1840    4.0781 O   0  0  0  0  0  0  0  0  0  0  0  0
    0.5217   -9.0561    3.0537 O   0  0  0  0  0  0  0  0  0  0  0  0
   -0.5630   -8.1475    3.0212 C   0  0  1  0  0  0  0  0  0  0  0  0
   -1.7096   -8.9283    2.3797 C   0  0  0  0  0  0  0  0  0  0  0  0
   -0.9386   -7.7191    4.4434 C   0  0  0  0  0  0  0  0  0  0  0  0
    0.2816   -7.4423    5.3176 C   0  0  0  0  0  0  0  0  0  0  0  0
    1.3163   -6.4787    4.6789 C   0  0  2  0  0  0  0  0  0  0  0  0
    0.7569   -5.0032    4.7023 C   0  0  1  0  0  0  0  0  0  0  0  0
    0.2832   -4.7043    6.0041 O   0  0  0  0  0  0  0  0  0  0  0  0
    1.8311   -6.9730    3.2605 C   0  0  1  0  0  0  0  0  0  0  0  0
    1.0111   -6.3981    2.2451 O   0  0  0  0  0  0  0  0  0  0  0  0
   -0.3799   -7.0150    2.1681 O   0  0  0  0  0  0  0  0  0  0  0  0
    0.2224   -2.5864    3.3099 H   0  0  0  0  0  0  0  0  0  0  0  0
    1.5330   -1.6462    4.0128 H   0  0  0  0  0  0  0  0  0  0  0  0
    0.2603   -2.2711    5.0427 H   0  0  0  0  0  0  0  0  0  0  0  0
    2.3306   -3.6288    5.2485 H   0  0  0  0  0  0  0  0  0  0  0  0
    2.0862   -4.1523    2.2474 H   0  0  0  0  0  0  0  0  0  0  0  0
    3.1747   -3.0614    3.0413 H   0  0  0  0  0  0  0  0  0  0  0  0
    4.6188   -4.7589    3.0121 H   0  0  0  0  0  0  0  0  0  0  0  0
    3.8960   -5.1000    4.5098 H   0  0  0  0  0  0  0  0  0  0  0  0
    3.9552   -7.1200    3.6247 H   0  0  0  0  0  0  0  0  0  0  0  0
    3.0126   -6.4472    0.8369 H   0  0  0  0  0  0  0  0  0  0  0  0
    5.9074   -6.5103    1.7645 H   0  0  0  0  0  0  0  0  0  0  0  0
    5.0527   -5.2043    0.9223 H   0  0  0  0  0  0  0  0  0  0  0  0
    5.3913   -6.6967    0.0886 H   0  0  0  0  0  0  0  0  0  0  0  0
    3.9415   -8.6188    0.2876 H   0  0  0  0  0  0  0  0  0  0  0  0
    4.7358   -9.9711    1.8306 H   0  0  0  0  0  0  0  0  0  0  0  0
    1.6537   -8.6436    0.9246 H   0  0  0  0  0  0  0  0  0  0  0  0
    2.3869  -10.0704    1.6259 H   0  0  0  0  0  0  0  0  0  0  0  0
    2.6008  -10.1078    3.8828 H   0  0  0  0  0  0  0  0  0  0  0  0
   -1.4395   -9.2351    1.3700 H   0  0  0  0  0  0  0  0  0  0  0  0
   -2.5960   -8.3038    2.3073 H   0  0  0  0  0  0  0  0  0  0  0  0
   -1.9626   -9.8334    2.9414 H   0  0  0  0  0  0  0  0  0  0  0  0
   -1.6112   -6.8620    4.4082 H   0  0  0  0  0  0  0  0  0  0  0  0
   -1.5010   -8.5270    4.9134 H   0  0  0  0  0  0  0  0  0  0  0  0
   -0.0486   -7.1045    6.2960 H   0  0  0  0  0  0  0  0  0  0  0  0
    0.7591   -8.3903    5.5564 H   0  0  0  0  0  0  0  0  0  0  0  0
    2.1747   -6.5106    5.3528 H   0  0  0  0  0  0  0  0  0  0  0  0
   -0.1069   -4.9580    4.0412 H   0  0  0  0  0  0  0  0  0  0  0  0
   -0.2449   -5.4301    6.2998 H   0  0  0  0  0  0  0  0  0  0  0  0
  1  2  1  0
  1 24  1  0
  1 25  1  0
  1 26  1  0
  2 19  1  0
  2  3  1  0
  2 27  1  1
  3  4  1  0
  3 28  1  0
  3 29  1  0
  4  5  1  0
  4 30  1  0
  4 31  1  0
  5 21  1  0
  5  6  1  0
  5 32  1  1
  6  7  1  0
  6  8  1  0
  6 33  1  6
  7 34  1  0
  7 35  1  0
  7 36  1  0
  8  9  1  0
  8 10  1  0
  8 37  1  6
  9 38  1  0
 10 11  1  0
 10 39  1  0
 10 40  1  0
 11 21  1  0
 11 12  1  1
 11 13  1  0
 12 41  1  0
 13 14  1  0
 14 23  1  0
 14 15  1  6
 14 16  1  0
 15 42  1  0
 15 43  1  0
 15 44  1  0
 16 17  1  0
 16 45  1  0
 16 46  1  0
 17 18  1  0
 17 47  1  0
 17 48  1  0
 18 19  1  0
 18 21  1  0
 18 49  1  1
 19 20  1  0
 19 50  1  6
 20 51  1  0
 21 22  1  6
 22 23  1  0
M  END
>  <i_m_ct_stereo_status>  (244) 
1

>  <s_m_source_file>  (244) 
/var/tmp/pbs.5076255.sched01/tmpkd0wjm76/823hn9mkkz.sdf

>  <i_m_source_file_index>  (244) 
23

>  <i_lp_mmshare_version>  (244) 
48012

>  <i_f3d_flags>  (244) 
0

>  <s_epik_input>  (244) 
W0NAXTEyM1tDQEBIXTRbQ0gyXVtDSDJdW0NAQEhdKFtDSDNdKVtDQEhdKFtPSF0pW0NASF0yW0NIMl1bQ0gyXVtDQEBdKFtDSDNdKShPTzMpT1tDQEBdMShbT0hdKVtDSDJdW0NASF0oW09IXSlbQ0BASF00W0NIM10=

>  <s_epik_cmdline>  (244) 
J2VwaWtfcHl0aG9uJywgJy1waHQnLCAnMi4wJywgJy1waCcsICc3LjAnLCAnLXRuJywgJzgnLCAnLW1hJywgJzIwMCcsICctaW1hZScsICc8aW5maWxlLm1hZT4nLCAnLW9tYWUnLCAnPG91dGZpbGUubWFlPic=

>  <r_lp_tautomer_probability>  (244) 
1

>  <r_epik_Ionization_Penalty>  (244) 
1.25187e-05

>  <r_epik_Ionization_Penalty_Charging>  (244) 
0

>  <r_epik_Ionization_Penalty_Neutral>  (244) 
1.25187e-05

>  <r_epik_State_Penalty>  (244) 
-0

>  <r_epik_Charging_Adjusted_Penalty>  (244) 
0

>  <i_epik_Tot_Q>  (244) 
0

>  <i_epik_Tot_abs_Q>  (244) 
0

>  <s_lp_Force_Field>  (244) 
OPLS3e

>  <r_lp_Energy>  (244) 
46.6962

>  <b_lp_Chiralities_Consistent>  (244) 
1

>  <s_lp_Variant>  (244) 
74:0-1

>  <s_i_glide_gridfile>  (244) 
pfpi4k_grid

>  <i_i_glide_lignum>  (244) 
23

>  <i_i_glide_rotatable_bonds>  (244) 
3

>  <r_i_docking_score>  (244) 
-3.47048

>  <r_i_glide_ligand_efficiency>  (244) 
-0.150891

>  <r_i_glide_ligand_efficiency_sa>  (244) 
-0.429113

>  <r_i_glide_ligand_efficiency_ln>  (244) 
-0.839194

>  <r_i_glide_gscore>  (244) 
-3.47048

>  <r_i_glide_lipo>  (244) 
-0.477361

>  <r_i_glide_hbond>  (244) 
-0.117369

>  <r_i_glide_metal>  (244) 
-0

>  <r_i_glide_rewards>  (244) 
-1.17

>  <r_i_glide_evdw>  (244) 
-25.2902

>  <r_i_glide_ecoul>  (244) 
-2.5295

>  <r_i_glide_erotb>  (244) 
0

>  <r_i_glide_esite>  (244) 
-0.0618205

>  <r_i_glide_emodel>  (244) 
-34.0508

>  <r_i_glide_energy>  (244) 
-27.8197

>  <r_i_glide_einternal>  (244) 
0.896123

>  <r_i_glide_intrahb_reward>  (244) 
-0

>  <i_i_glide_confnum>  (244) 
1

>  <i_i_glide_posenum>  (244) 
32

>  <r_i_glide_eff_state_penalty>  (244) 
0

>  <ligand_id>  (244) 
74

>  <original_smiles>  (244) 
CC1CCC2C(C)C(O)CC3(O)OC4(C)CCC(C1O)C23OO4

>  <smiles>  (244) 
[H]OC1([H])C([H])([H])C2(O[H])OC3(C([H])([H])[H])OOC24C([H])(C([H])([H])C3([H])[H])C([H])(O[H])C([H])(C([H])([H])[H])C([H])([H])C([H])([H])C4([H])C1([H])C([H])([H])[H]

$$$$
74:0:2
     RDKit          3D

 51 54  0  0  1  0  0  0  0  0999 V2000
    4.4300   -5.8506    0.4563 C   0  0  0  0  0  0  0  0  0  0  0  0
    4.3454   -6.5133    1.8471 C   0  0  2  0  0  0  0  0  0  0  0  0
    4.8078   -7.9726    1.7325 C   0  0  0  0  0  0  0  0  0  0  0  0
    5.0474   -8.6012    3.1068 C   0  0  0  0  0  0  0  0  0  0  0  0
    3.8608   -9.3693    3.7376 C   0  0  2  0  0  0  0  0  0  0  0  0
    3.8021  -10.8867    3.3723 C   0  0  1  0  0  0  0  0  0  0  0  0
    5.1542  -11.6232    3.2922 C   0  0  0  0  0  0  0  0  0  0  0  0
    2.8720  -11.6119    4.3624 C   0  0  1  0  0  0  0  0  0  0  0  0
    3.4149  -11.6580    5.6739 O   0  0  0  0  0  0  0  0  0  0  0  0
    1.4708  -10.9848    4.3699 C   0  0  0  0  0  0  0  0  0  0  0  0
    1.4870   -9.4460    4.6055 C   0  0  2  0  0  0  0  0  0  0  0  0
    1.8699   -9.1914    5.9452 O   0  0  0  0  0  0  0  0  0  0  0  0
    0.1553   -9.0813    4.4195 O   0  0  0  0  0  0  0  0  0  0  0  0
   -0.1902   -8.3239    3.2710 C   0  0  1  0  0  0  0  0  0  0  0  0
   -1.6550   -8.6672    2.9650 C   0  0  0  0  0  0  0  0  0  0  0  0
   -0.0416   -6.8338    3.5691 C   0  0  0  0  0  0  0  0  0  0  0  0
    1.2169   -6.5200    4.3696 C   0  0  0  0  0  0  0  0  0  0  0  0
    2.5181   -7.1196    3.7732 C   0  0  2  0  0  0  0  0  0  0  0  0
    2.9341   -6.3179    2.4761 C   0  0  1  0  0  0  0  0  0  0  0  0
    2.8815   -4.9286    2.7597 O   0  0  0  0  0  0  0  0  0  0  0  0
    2.4468   -8.6922    3.5898 C   0  0  1  0  0  0  0  0  0  0  0  0
    1.9883   -8.9747    2.2781 O   0  0  0  0  0  0  0  0  0  0  0  0
    0.5084   -8.6638    2.0806 O   0  0  0  0  0  0  0  0  0  0  0  0
    3.7393   -6.3204   -0.2436 H   0  0  0  0  0  0  0  0  0  0  0  0
    5.4300   -5.9356    0.0304 H   0  0  0  0  0  0  0  0  0  0  0  0
    4.1872   -4.7887    0.4937 H   0  0  0  0  0  0  0  0  0  0  0  0
    5.0813   -6.0035    2.4737 H   0  0  0  0  0  0  0  0  0  0  0  0
    4.1534   -8.5756    1.1024 H   0  0  0  0  0  0  0  0  0  0  0  0
    5.7726   -7.9671    1.2220 H   0  0  0  0  0  0  0  0  0  0  0  0
    5.9297   -9.2315    3.0463 H   0  0  0  0  0  0  0  0  0  0  0  0
    5.3632   -7.8174    3.7969 H   0  0  0  0  0  0  0  0  0  0  0  0
    4.1132   -9.3372    4.7969 H   0  0  0  0  0  0  0  0  0  0  0  0
    3.3597  -10.9878    2.3788 H   0  0  0  0  0  0  0  0  0  0  0  0
    5.7646  -11.4573    4.1818 H   0  0  0  0  0  0  0  0  0  0  0  0
    5.7207  -11.3138    2.4127 H   0  0  0  0  0  0  0  0  0  0  0  0
    5.0012  -12.6992    3.1885 H   0  0  0  0  0  0  0  0  0  0  0  0
    2.7657  -12.6480    4.0396 H   0  0  0  0  0  0  0  0  0  0  0  0
    2.8254  -12.1595    6.2391 H   0  0  0  0  0  0  0  0  0  0  0  0
    0.9839  -11.1781    3.4149 H   0  0  0  0  0  0  0  0  0  0  0  0
    0.8455  -11.4495    5.1332 H   0  0  0  0  0  0  0  0  0  0  0  0
    1.5662   -9.9196    6.4747 H   0  0  0  0  0  0  0  0  0  0  0  0
   -1.7503   -9.7312    2.7493 H   0  0  0  0  0  0  0  0  0  0  0  0
   -2.0209   -8.1217    2.0969 H   0  0  0  0  0  0  0  0  0  0  0  0
   -2.3099   -8.4530    3.8134 H   0  0  0  0  0  0  0  0  0  0  0  0
   -0.0626   -6.2795    2.6350 H   0  0  0  0  0  0  0  0  0  0  0  0
   -0.8977   -6.4986    4.1560 H   0  0  0  0  0  0  0  0  0  0  0  0
    1.2891   -5.4436    4.4983 H   0  0  0  0  0  0  0  0  0  0  0  0
    1.0844   -6.8767    5.3886 H   0  0  0  0  0  0  0  0  0  0  0  0
    3.2782   -6.9324    4.5334 H   0  0  0  0  0  0  0  0  0  0  0  0
    2.1914   -6.5066    1.7004 H   0  0  0  0  0  0  0  0  0  0  0  0
    3.5720   -4.7275    3.3733 H   0  0  0  0  0  0  0  0  0  0  0  0
  1  2  1  0
  1 24  1  0
  1 25  1  0
  1 26  1  0
  2 19  1  0
  2  3  1  0
  2 27  1  1
  3  4  1  0
  3 28  1  0
  3 29  1  0
  4  5  1  0
  4 30  1  0
  4 31  1  0
  5 21  1  0
  5  6  1  0
  5 32  1  1
  6  7  1  0
  6  8  1  0
  6 33  1  6
  7 34  1  0
  7 35  1  0
  7 36  1  0
  8  9  1  0
  8 10  1  0
  8 37  1  6
  9 38  1  0
 10 11  1  0
 10 39  1  0
 10 40  1  0
 11 21  1  0
 11 12  1  1
 11 13  1  0
 12 41  1  0
 13 14  1  0
 14 23  1  0
 14 15  1  6
 14 16  1  0
 15 42  1  0
 15 43  1  0
 15 44  1  0
 16 17  1  0
 16 45  1  0
 16 46  1  0
 17 18  1  0
 17 47  1  0
 17 48  1  0
 18 19  1  0
 18 21  1  0
 18 49  1  1
 19 20  1  0
 19 50  1  6
 20 51  1  0
 21 22  1  6
 22 23  1  0
M  END
>  <i_m_ct_stereo_status>  (245) 
1

>  <s_m_source_file>  (245) 
/var/tmp/pbs.5076255.sched01/tmpkd0wjm76/823hn9mkkz.sdf

>  <i_m_source_file_index>  (245) 
23

>  <i_lp_mmshare_version>  (245) 
48012

>  <i_f3d_flags>  (245) 
0

>  <s_epik_input>  (245) 
W0NAXTEyM1tDQEBIXTRbQ0gyXVtDSDJdW0NAQEhdKFtDSDNdKVtDQEhdKFtPSF0pW0NASF0yW0NIMl1bQ0gyXVtDQEBdKFtDSDNdKShPTzMpT1tDQEBdMShbT0hdKVtDSDJdW0NASF0oW09IXSlbQ0BASF00W0NIM10=

>  <s_epik_cmdline>  (245) 
J2VwaWtfcHl0aG9uJywgJy1waHQnLCAnMi4wJywgJy1waCcsICc3LjAnLCAnLXRuJywgJzgnLCAnLW1hJywgJzIwMCcsICctaW1hZScsICc8aW5maWxlLm1hZT4nLCAnLW9tYWUnLCAnPG91dGZpbGUubWFlPic=

>  <r_lp_tautomer_probability>  (245) 
1

>  <r_epik_Ionization_Penalty>  (245) 
1.25187e-05

>  <r_epik_Ionization_Penalty_Charging>  (245) 
0

>  <r_epik_Ionization_Penalty_Neutral>  (245) 
1.25187e-05

>  <r_epik_State_Penalty>  (245) 
-0

>  <r_epik_Charging_Adjusted_Penalty>  (245) 
0

>  <i_epik_Tot_Q>  (245) 
0

>  <i_epik_Tot_abs_Q>  (245) 
0

>  <s_lp_Force_Field>  (245) 
OPLS3e

>  <r_lp_Energy>  (245) 
46.6962

>  <b_lp_Chiralities_Consistent>  (245) 
1

>  <s_lp_Variant>  (245) 
74:0-1

>  <s_i_glide_gridfile>  (245) 
pfpi4k_grid

>  <i_i_glide_lignum>  (245) 
23

>  <i_i_glide_rotatable_bonds>  (245) 
3

>  <r_i_docking_score>  (245) 
-2.96283

>  <r_i_glide_ligand_efficiency>  (245) 
-0.128819

>  <r_i_glide_ligand_efficiency_sa>  (245) 
-0.366344

>  <r_i_glide_ligand_efficiency_ln>  (245) 
-0.71644

>  <r_i_glide_gscore>  (245) 
-2.96283

>  <r_i_glide_lipo>  (245) 
-0.185167

>  <r_i_glide_hbond>  (245) 
0

>  <r_i_glide_metal>  (245) 
-0

>  <r_i_glide_rewards>  (245) 
-1.17

>  <r_i_glide_evdw>  (245) 
-24.766

>  <r_i_glide_ecoul>  (245) 
-2.03926

>  <r_i_glide_erotb>  (245) 
0

>  <r_i_glide_esite>  (245) 
-0.0634797

>  <r_i_glide_emodel>  (245) 
-31.9804

>  <r_i_glide_energy>  (245) 
-26.8053

>  <r_i_glide_einternal>  (245) 
0.753474

>  <r_i_glide_intrahb_reward>  (245) 
-0

>  <i_i_glide_confnum>  (245) 
1

>  <i_i_glide_posenum>  (245) 
40

>  <r_i_glide_eff_state_penalty>  (245) 
0

>  <ligand_id>  (245) 
74

>  <original_smiles>  (245) 
CC1CCC2C(C)C(O)CC3(O)OC4(C)CCC(C1O)C23OO4

>  <smiles>  (245) 
[H]OC1([H])C([H])([H])C2(O[H])OC3(C([H])([H])[H])OOC24C([H])(C([H])([H])C3([H])[H])C([H])(O[H])C([H])(C([H])([H])[H])C([H])([H])C([H])([H])C4([H])C1([H])C([H])([H])[H]

$$$$
75:0:0
     RDKit          3D

 48 51  0  0  1  0  0  0  0  0999 V2000
    5.2339   -2.7059   -2.7664 C   0  0  0  0  0  0  0  0  0  0  0  0
    4.2618   -3.1305   -1.6585 C   0  0  0  0  0  0  0  0  0  0  0  0
    3.7984   -1.9463   -0.8074 C   0  0  0  0  0  0  0  0  0  0  0  0
    3.1034   -2.3797    0.4955 C   0  0  0  0  0  0  0  0  0  0  0  0
    2.6546   -1.2174    1.2877 N   0  0  2  0  0  0  0  0  0  0  0  0
    3.7350   -0.2707    1.6326 C   0  0  0  0  0  0  0  0  0  0  0  0
    3.1452    0.6079    2.7269 C   0  0  1  0  0  0  0  0  0  0  0  0
    2.6063    1.7615    2.1110 O   0  0  0  0  0  0  0  0  0  0  0  0
    2.0669   -0.2696    3.3941 C   0  0  1  0  0  0  0  0  0  0  0  0
    0.7986    0.3559    3.3890 O   0  0  0  0  0  0  0  0  0  0  0  0
    0.6535    1.4040    4.3094 C   0  0  2  0  0  0  0  0  0  0  0  0
    0.8930    0.9861    5.6169 O   0  0  0  0  0  0  0  0  0  0  0  0
   -0.2559    0.3269    6.0909 C   0  0  2  0  0  0  0  0  0  0  0  0
   -0.1625   -1.0439    5.8495 O   0  0  0  0  0  0  0  0  0  0  0  0
   -1.3444   -1.4068    5.2332 C   0  0  0  0  0  0  0  0  0  0  0  0
   -1.8246   -0.3395    4.4982 O   0  0  0  0  0  0  0  0  0  0  0  0
   -1.4820    0.8239    5.2312 C   0  0  2  0  0  0  0  0  0  0  0  0
   -0.8245    1.8260    4.2935 C   0  0  2  0  0  0  0  0  0  0  0  0
   -1.4702    2.1903    2.9504 C   0  0  0  0  0  0  0  0  0  0  0  0
   -1.0432    3.6156    3.2996 C   0  0  0  0  0  0  0  0  0  0  0  0
   -0.9416    3.2237    4.7108 O   0  0  0  0  0  0  0  0  0  0  0  0
    2.0343   -1.5666    2.5803 C   0  0  0  0  0  0  0  0  0  0  0  0
    5.5459   -3.5678   -3.3567 H   0  0  0  0  0  0  0  0  0  0  0  0
    6.1342   -2.2544   -2.3461 H   0  0  0  0  0  0  0  0  0  0  0  0
    4.7763   -1.9809   -3.4413 H   0  0  0  0  0  0  0  0  0  0  0  0
    3.3932   -3.6275   -2.0949 H   0  0  0  0  0  0  0  0  0  0  0  0
    4.7590   -3.8660   -1.0235 H   0  0  0  0  0  0  0  0  0  0  0  0
    4.6752   -1.3408   -0.5791 H   0  0  0  0  0  0  0  0  0  0  0  0
    3.1259   -1.3138   -1.3901 H   0  0  0  0  0  0  0  0  0  0  0  0
    2.2329   -3.0028    0.2667 H   0  0  0  0  0  0  0  0  0  0  0  0
    3.7837   -3.0017    1.0887 H   0  0  0  0  0  0  0  0  0  0  0  0
    4.5856   -0.8301    2.0302 H   0  0  0  0  0  0  0  0  0  0  0  0
    4.0819    0.3080    0.7784 H   0  0  0  0  0  0  0  0  0  0  0  0
    3.9028    0.9113    3.4481 H   0  0  0  0  0  0  0  0  0  0  0  0
    3.3110    2.4041    2.0365 H   0  0  0  0  0  0  0  0  0  0  0  0
    2.3312   -0.5110    4.4211 H   0  0  0  0  0  0  0  0  0  0  0  0
    1.3108    2.2476    4.0616 H   0  0  0  0  0  0  0  0  0  0  0  0
   -0.3856    0.5419    7.1630 H   0  0  0  0  0  0  0  0  0  0  0  0
   -1.1473   -2.2083    4.5262 H   0  0  0  0  0  0  0  0  0  0  0  0
   -2.1004   -1.7211    5.9583 H   0  0  0  0  0  0  0  0  0  0  0  0
   -2.2651    1.2704    5.8932 H   0  0  0  0  0  0  0  0  0  0  0  0
   -0.9996    1.7686    2.0562 H   0  0  0  0  0  0  0  0  0  0  0  0
   -2.5579    2.0759    2.9440 H   0  0  0  0  0  0  0  0  0  0  0  0
   -0.0699    3.9046    2.8786 H   0  0  0  0  0  0  0  0  0  0  0  0
   -1.8042    4.3815    3.1100 H   0  0  0  0  0  0  0  0  0  0  0  0
    1.0390   -2.0120    2.4813 H   0  0  0  0  0  0  0  0  0  0  0  0
    2.6807   -2.2863    3.0918 H   0  0  0  0  0  0  0  0  0  0  0  0
    1.9565   -0.7228    0.7244 H   0  0  0  0  0  0  0  0  0  0  0  0
  1  2  1  0
  1 23  1  0
  1 24  1  0
  1 25  1  0
  2  3  1  0
  2 26  1  0
  2 27  1  0
  3  4  1  0
  3 28  1  0
  3 29  1  0
  4  5  1  0
  4 30  1  0
  4 31  1  0
  5 22  1  0
  5  6  1  0
  5 48  1  6
  6  7  1  0
  6 32  1  0
  6 33  1  0
  7  8  1  0
  7  9  1  0
  7 34  1  1
  8 35  1  0
  9 10  1  0
  9 22  1  0
  9 36  1  1
 10 11  1  0
 11 18  1  0
 11 12  1  0
 11 37  1  6
 12 13  1  0
 13 17  1  0
 13 14  1  0
 13 38  1  1
 14 15  1  0
 15 16  1  0
 15 39  1  0
 15 40  1  0
 16 17  1  0
 17 18  1  0
 17 41  1  1
 18 21  1  1
 18 19  1  0
 19 20  1  0
 19 42  1  0
 19 43  1  0
 20 21  1  0
 20 44  1  0
 20 45  1  0
 22 46  1  0
 22 47  1  0
M  CHG  1   5   1
M  END
>  <i_m_ct_stereo_status>  (246) 
1

>  <s_m_source_file>  (246) 
/var/tmp/pbs.5076255.sched01/tmpkd0wjm76/823hn9mkkz.sdf

>  <i_m_source_file_index>  (246) 
24

>  <i_lp_mmshare_version>  (246) 
48012

>  <i_f3d_flags>  (246) 
0

>  <s_epik_input>  (246) 
W0NIM11bQ0gyXVtDSDJdW0NIMl1OMVtDSDJdW0NAQEhdKFtPSF0pW0NASF0oW0NIMl0xKU9bQ0BASF0yT1tDQEhdKE9bQ0gyXU8zKVtDQEhdM1tDQF0yNFtDSDJdW0NIMl1PNA==

>  <s_epik_cmdline>  (246) 
J2VwaWtfcHl0aG9uJywgJy1waHQnLCAnMi4wJywgJy1waCcsICc3LjAnLCAnLXRuJywgJzgnLCAnLW1hJywgJzIwMCcsICctaW1hZScsICc8aW5maWxlLm1hZT4nLCAnLW9tYWUnLCAnPG91dGZpbGUubWFlPic=

>  <r_epik_Ionization_Penalty>  (246) 
0.0155045

>  <r_epik_Ionization_Penalty_Charging>  (246) 
0.0155039

>  <r_epik_Ionization_Penalty_Neutral>  (246) 
5.78344e-07

>  <r_epik_State_Penalty>  (246) 
0.0121873

>  <r_epik_Charging_Adjusted_Penalty>  (246) 
0.0276912

>  <i_epik_Tot_Q>  (246) 
1

>  <i_epik_Tot_abs_Q>  (246) 
1

>  <s_epik_Chemistry_Notes>  (246) 
This compound contains an acetal/aminal-like group ( X-CH(R)-Y where X, Y are N, S, or O) that may be acid/base labile, releasing an aldehyde.

>  <s_lp_Force_Field>  (246) 
OPLS3e

>  <r_lp_Energy>  (246) 
10.5918

>  <b_lp_Chiralities_Consistent>  (246) 
1

>  <s_lp_Variant>  (246) 
75:0-1

>  <s_i_glide_gridfile>  (246) 
pfpi4k_grid

>  <i_i_glide_lignum>  (246) 
24

>  <i_i_glide_rotatable_bonds>  (246) 
6

>  <r_i_docking_score>  (246) 
-2.80697

>  <r_i_glide_ligand_efficiency>  (246) 
-0.12759

>  <r_i_glide_ligand_efficiency_sa>  (246) 
-0.357511

>  <r_i_glide_ligand_efficiency_ln>  (246) 
-0.686126

>  <r_i_glide_gscore>  (246) 
-2.80697

>  <r_i_glide_lipo>  (246) 
-0.236085

>  <r_i_glide_hbond>  (246) 
-0.169311

>  <r_i_glide_metal>  (246) 
-0

>  <r_i_glide_rewards>  (246) 
-1.25202

>  <r_i_glide_evdw>  (246) 
-19.8928

>  <r_i_glide_ecoul>  (246) 
-5.04197

>  <r_i_glide_erotb>  (246) 
0.743963

>  <r_i_glide_esite>  (246) 
-0.142578

>  <r_i_glide_emodel>  (246) 
-28.6465

>  <r_i_glide_energy>  (246) 
-24.9348

>  <r_i_glide_einternal>  (246) 
3.66043

>  <r_i_glide_intrahb_reward>  (246) 
-0

>  <i_i_glide_confnum>  (246) 
5

>  <i_i_glide_posenum>  (246) 
37

>  <r_i_glide_eff_state_penalty>  (246) 
0

>  <ligand_id>  (246) 
75

>  <original_smiles>  (246) 
CCCCN1CC(O)C(OC2OC3OCOC3C23CCO3)C1

>  <smiles>  (246) 
[H]OC1([H])C([H])(OC2([H])OC3([H])OC([H])([H])OC3([H])C23OC([H])([H])C3([H])[H])C([H])([H])[N+]([H])(C([H])([H])C([H])([H])C([H])([H])C([H])([H])[H])C1([H])[H]

$$$$
75:0:1
     RDKit          3D

 48 51  0  0  1  0  0  0  0  0999 V2000
    4.4381   -8.2539    1.0722 C   0  0  0  0  0  0  0  0  0  0  0  0
    3.7344   -9.2123    2.0398 C   0  0  0  0  0  0  0  0  0  0  0  0
    2.2755   -9.4810    1.6359 C   0  0  0  0  0  0  0  0  0  0  0  0
    1.5739  -10.4828    2.5779 C   0  0  0  0  0  0  0  0  0  0  0  0
    1.2343   -9.8630    3.8675 N   0  0  2  0  0  0  0  0  0  0  0  0
    0.8680  -10.8231    4.9302 C   0  0  0  0  0  0  0  0  0  0  0  0
    0.2151   -9.9557    6.0027 C   0  0  1  0  0  0  0  0  0  0  0  0
    1.1952   -9.6525    6.9789 O   0  0  0  0  0  0  0  0  0  0  0  0
   -0.3190   -8.7099    5.2571 C   0  0  1  0  0  0  0  0  0  0  0  0
    0.2265   -7.5235    5.8206 O   0  0  0  0  0  0  0  0  0  0  0  0
   -0.3701   -6.3211    5.4245 C   0  0  2  0  0  0  0  0  0  0  0  0
    0.0197   -5.8882    4.1680 O   0  0  0  0  0  0  0  0  0  0  0  0
    1.2895   -5.2586    4.2918 C   0  0  2  0  0  0  0  0  0  0  0  0
    2.3088   -6.2077    4.0719 O   0  0  0  0  0  0  0  0  0  0  0  0
    3.1891   -6.0442    5.1217 C   0  0  0  0  0  0  0  0  0  0  0  0
    2.4935   -5.6373    6.2544 O   0  0  0  0  0  0  0  0  0  0  0  0
    1.4499   -4.8184    5.7652 C   0  0  2  0  0  0  0  0  0  0  0  0
    0.1235   -5.2314    6.4081 C   0  0  2  0  0  0  0  0  0  0  0  0
    0.0266   -5.4797    7.8988 C   0  0  0  0  0  0  0  0  0  0  0  0
   -1.3189   -4.7616    7.7663 C   0  0  0  0  0  0  0  0  0  0  0  0
   -0.8645   -4.1795    6.5043 O   0  0  0  0  0  0  0  0  0  0  0  0
    0.1244   -8.9059    3.8097 C   0  0  0  0  0  0  0  0  0  0  0  0
    5.4724   -8.0855    1.3753 H   0  0  0  0  0  0  0  0  0  0  0  0
    3.9375   -7.2855    1.0410 H   0  0  0  0  0  0  0  0  0  0  0  0
    4.4509   -8.6586    0.0602 H   0  0  0  0  0  0  0  0  0  0  0  0
    4.2859  -10.1543    2.0711 H   0  0  0  0  0  0  0  0  0  0  0  0
    3.7774   -8.7937    3.0461 H   0  0  0  0  0  0  0  0  0  0  0  0
    1.7277   -8.5395    1.5920 H   0  0  0  0  0  0  0  0  0  0  0  0
    2.2613   -9.8685    0.6177 H   0  0  0  0  0  0  0  0  0  0  0  0
    0.6559  -10.8589    2.1068 H   0  0  0  0  0  0  0  0  0  0  0  0
    2.2174  -11.3530    2.7301 H   0  0  0  0  0  0  0  0  0  0  0  0
    0.1359  -11.5170    4.5168 H   0  0  0  0  0  0  0  0  0  0  0  0
    1.7167  -11.4066    5.2796 H   0  0  0  0  0  0  0  0  0  0  0  0
   -0.5872  -10.4863    6.5045 H   0  0  0  0  0  0  0  0  0  0  0  0
    1.4378  -10.4789    7.3841 H   0  0  0  0  0  0  0  0  0  0  0  0
   -1.4045   -8.6605    5.3116 H   0  0  0  0  0  0  0  0  0  0  0  0
   -1.4764   -6.3954    5.4670 H   0  0  0  0  0  0  0  0  0  0  0  0
    1.3691   -4.4185    3.5773 H   0  0  0  0  0  0  0  0  0  0  0  0
    3.6452   -6.9992    5.3634 H   0  0  0  0  0  0  0  0  0  0  0  0
    3.9671   -5.3126    4.8888 H   0  0  0  0  0  0  0  0  0  0  0  0
    1.6411   -3.7049    5.8275 H   0  0  0  0  0  0  0  0  0  0  0  0
   -0.0256   -6.5256    8.2209 H   0  0  0  0  0  0  0  0  0  0  0  0
    0.7506   -4.9046    8.4909 H   0  0  0  0  0  0  0  0  0  0  0  0
   -2.1753   -5.4434    7.6223 H   0  0  0  0  0  0  0  0  0  0  0  0
   -1.5312   -4.0204    8.5469 H   0  0  0  0  0  0  0  0  0  0  0  0
    0.3993   -7.9859    3.2847 H   0  0  0  0  0  0  0  0  0  0  0  0
   -0.7089   -9.3686    3.2632 H   0  0  0  0  0  0  0  0  0  0  0  0
    2.0595   -9.3653    4.2150 H   0  0  0  0  0  0  0  0  0  0  0  0
  1  2  1  0
  1 23  1  0
  1 24  1  0
  1 25  1  0
  2  3  1  0
  2 26  1  0
  2 27  1  0
  3  4  1  0
  3 28  1  0
  3 29  1  0
  4  5  1  0
  4 30  1  0
  4 31  1  0
  5 22  1  0
  5  6  1  0
  5 48  1  1
  6  7  1  0
  6 32  1  0
  6 33  1  0
  7  8  1  0
  7  9  1  0
  7 34  1  1
  8 35  1  0
  9 10  1  0
  9 22  1  0
  9 36  1  6
 10 11  1  0
 11 18  1  0
 11 12  1  0
 11 37  1  6
 12 13  1  0
 13 17  1  0
 13 14  1  0
 13 38  1  6
 14 15  1  0
 15 16  1  0
 15 39  1  0
 15 40  1  0
 16 17  1  0
 17 18  1  0
 17 41  1  6
 18 21  1  1
 18 19  1  0
 19 20  1  0
 19 42  1  0
 19 43  1  0
 20 21  1  0
 20 44  1  0
 20 45  1  0
 22 46  1  0
 22 47  1  0
M  CHG  1   5   1
M  END
>  <i_m_ct_stereo_status>  (247) 
1

>  <s_m_source_file>  (247) 
/var/tmp/pbs.5076255.sched01/tmpkd0wjm76/823hn9mkkz.sdf

>  <i_m_source_file_index>  (247) 
24

>  <i_lp_mmshare_version>  (247) 
48012

>  <i_f3d_flags>  (247) 
0

>  <s_epik_input>  (247) 
W0NIM11bQ0gyXVtDSDJdW0NIMl1OMVtDSDJdW0NAQEhdKFtPSF0pW0NASF0oW0NIMl0xKU9bQ0BASF0yT1tDQEhdKE9bQ0gyXU8zKVtDQEhdM1tDQF0yNFtDSDJdW0NIMl1PNA==

>  <s_epik_cmdline>  (247) 
J2VwaWtfcHl0aG9uJywgJy1waHQnLCAnMi4wJywgJy1waCcsICc3LjAnLCAnLXRuJywgJzgnLCAnLW1hJywgJzIwMCcsICctaW1hZScsICc8aW5maWxlLm1hZT4nLCAnLW9tYWUnLCAnPG91dGZpbGUubWFlPic=

>  <r_epik_Ionization_Penalty>  (247) 
0.0155045

>  <r_epik_Ionization_Penalty_Charging>  (247) 
0.0155039

>  <r_epik_Ionization_Penalty_Neutral>  (247) 
5.78344e-07

>  <r_epik_State_Penalty>  (247) 
0.0121873

>  <r_epik_Charging_Adjusted_Penalty>  (247) 
0.0276912

>  <i_epik_Tot_Q>  (247) 
1

>  <i_epik_Tot_abs_Q>  (247) 
1

>  <s_epik_Chemistry_Notes>  (247) 
This compound contains an acetal/aminal-like group ( X-CH(R)-Y where X, Y are N, S, or O) that may be acid/base labile, releasing an aldehyde.

>  <s_lp_Force_Field>  (247) 
OPLS3e

>  <r_lp_Energy>  (247) 
10.5918

>  <b_lp_Chiralities_Consistent>  (247) 
1

>  <s_lp_Variant>  (247) 
75:0-1

>  <s_i_glide_gridfile>  (247) 
pfpi4k_grid

>  <i_i_glide_lignum>  (247) 
24

>  <i_i_glide_rotatable_bonds>  (247) 
6

>  <r_i_docking_score>  (247) 
-2.79521

>  <r_i_glide_ligand_efficiency>  (247) 
-0.127055

>  <r_i_glide_ligand_efficiency_sa>  (247) 
-0.356013

>  <r_i_glide_ligand_efficiency_ln>  (247) 
-0.683252

>  <r_i_glide_gscore>  (247) 
-2.79521

>  <r_i_glide_lipo>  (247) 
-0.202013

>  <r_i_glide_hbond>  (247) 
-0.00608702

>  <r_i_glide_metal>  (247) 
-0

>  <r_i_glide_rewards>  (247) 
-1.25202

>  <r_i_glide_evdw>  (247) 
-17.1958

>  <r_i_glide_ecoul>  (247) 
-7.95639

>  <r_i_glide_erotb>  (247) 
0.743963

>  <r_i_glide_esite>  (247) 
-0.025805

>  <r_i_glide_emodel>  (247) 
-29.8503

>  <r_i_glide_energy>  (247) 
-25.1522

>  <r_i_glide_einternal>  (247) 
2.88367

>  <r_i_glide_intrahb_reward>  (247) 
-0

>  <i_i_glide_confnum>  (247) 
3

>  <i_i_glide_posenum>  (247) 
18

>  <r_i_glide_eff_state_penalty>  (247) 
0

>  <ligand_id>  (247) 
75

>  <original_smiles>  (247) 
CCCCN1CC(O)C(OC2OC3OCOC3C23CCO3)C1

>  <smiles>  (247) 
[H]OC1([H])C([H])(OC2([H])OC3([H])OC([H])([H])OC3([H])C23OC([H])([H])C3([H])[H])C([H])([H])[N+]([H])(C([H])([H])C([H])([H])C([H])([H])C([H])([H])[H])C1([H])[H]

$$$$
75:0:2
     RDKit          3D

 48 51  0  0  1  0  0  0  0  0999 V2000
    4.0229   -2.8132   -3.8014 C   0  0  0  0  0  0  0  0  0  0  0  0
    3.6094   -3.3197   -2.4159 C   0  0  0  0  0  0  0  0  0  0  0  0
    3.4415   -2.1831   -1.4074 C   0  0  0  0  0  0  0  0  0  0  0  0
    3.0650   -2.6933   -0.0020 C   0  0  0  0  0  0  0  0  0  0  0  0
    2.6728   -1.5628    0.8829 N   0  0  2  0  0  0  0  0  0  0  0  0
    3.7274   -0.5606    1.0825 C   0  0  0  0  0  0  0  0  0  0  0  0
    3.2767    0.2466    2.2933 C   0  0  1  0  0  0  0  0  0  0  0  0
    2.5668    1.3419    1.7507 O   0  0  0  0  0  0  0  0  0  0  0  0
    2.3569   -0.6961    3.0945 C   0  0  1  0  0  0  0  0  0  0  0  0
    1.0682   -0.1464    3.2764 O   0  0  0  0  0  0  0  0  0  0  0  0
    0.9919    0.8683    4.2450 C   0  0  2  0  0  0  0  0  0  0  0  0
    1.2344    0.4029    5.5348 O   0  0  0  0  0  0  0  0  0  0  0  0
    0.0457   -0.1890    6.0210 C   0  0  2  0  0  0  0  0  0  0  0  0
    0.0603   -1.5664    5.7587 O   0  0  0  0  0  0  0  0  0  0  0  0
   -1.1560   -1.8349    5.1718 C   0  0  0  0  0  0  0  0  0  0  0  0
   -1.6190   -0.7373    4.4589 O   0  0  0  0  0  0  0  0  0  0  0  0
   -1.1610    0.3901    5.1909 C   0  0  2  0  0  0  0  0  0  0  0  0
   -0.4706    1.3601    4.2474 C   0  0  2  0  0  0  0  0  0  0  0  0
   -1.1406    1.7832    2.9296 C   0  0  0  0  0  0  0  0  0  0  0  0
   -0.6225    3.1788    3.3051 C   0  0  0  0  0  0  0  0  0  0  0  0
   -0.4851    2.7425    4.6982 O   0  0  0  0  0  0  0  0  0  0  0  0
    2.2651   -1.9673    2.2499 C   0  0  0  0  0  0  0  0  0  0  0  0
    4.1254   -3.6511   -4.4913 H   0  0  0  0  0  0  0  0  0  0  0  0
    4.9784   -2.2899   -3.7585 H   0  0  0  0  0  0  0  0  0  0  0  0
    3.2783   -2.1273   -4.2101 H   0  0  0  0  0  0  0  0  0  0  0  0
    2.6638   -3.8557   -2.5012 H   0  0  0  0  0  0  0  0  0  0  0  0
    4.3530   -4.0303   -2.0510 H   0  0  0  0  0  0  0  0  0  0  0  0
    4.3720   -1.6205   -1.3614 H   0  0  0  0  0  0  0  0  0  0  0  0
    2.6790   -1.5018   -1.7823 H   0  0  0  0  0  0  0  0  0  0  0  0
    2.2356   -3.3980   -0.0842 H   0  0  0  0  0  0  0  0  0  0  0  0
    3.9006   -3.2664    0.4116 H   0  0  0  0  0  0  0  0  0  0  0  0
    4.6682   -1.0545    1.3251 H   0  0  0  0  0  0  0  0  0  0  0  0
    3.8861    0.0624    0.1983 H   0  0  0  0  0  0  0  0  0  0  0  0
    4.1178    0.6006    2.8900 H   0  0  0  0  0  0  0  0  0  0  0  0
    2.2686    1.9256    2.4384 H   0  0  0  0  0  0  0  0  0  0  0  0
    2.7645   -0.9362    4.0759 H   0  0  0  0  0  0  0  0  0  0  0  0
    1.6801    1.7001    4.0457 H   0  0  0  0  0  0  0  0  0  0  0  0
   -0.0690    0.0274    7.1116 H   0  0  0  0  0  0  0  0  0  0  0  0
   -1.0111   -2.5926    4.4225 H   0  0  0  0  0  0  0  0  0  0  0  0
   -1.8958   -2.1301    5.9190 H   0  0  0  0  0  0  0  0  0  0  0  0
   -1.8635    0.8499    5.9401 H   0  0  0  0  0  0  0  0  0  0  0  0
   -0.7243    1.3765    1.9952 H   0  0  0  0  0  0  0  0  0  0  0  0
   -2.2359    1.7468    2.9502 H   0  0  0  0  0  0  0  0  0  0  0  0
    0.3434    3.4375    2.8227 H   0  0  0  0  0  0  0  0  0  0  0  0
   -1.3556    3.9951    3.1905 H   0  0  0  0  0  0  0  0  0  0  0  0
    1.2970   -2.4656    2.2989 H   0  0  0  0  0  0  0  0  0  0  0  0
    3.0288   -2.6410    2.6364 H   0  0  0  0  0  0  0  0  0  0  0  0
    1.8832   -1.1013    0.4198 H   0  0  0  0  0  0  0  0  0  0  0  0
  1  2  1  0
  1 23  1  0
  1 24  1  0
  1 25  1  0
  2  3  1  0
  2 26  1  0
  2 27  1  0
  3  4  1  0
  3 28  1  0
  3 29  1  0
  4  5  1  0
  4 30  1  0
  4 31  1  0
  5 22  1  0
  5  6  1  0
  5 48  1  6
  6  7  1  0
  6 32  1  0
  6 33  1  0
  7  8  1  0
  7  9  1  0
  7 34  1  1
  8 35  1  0
  9 10  1  0
  9 22  1  0
  9 36  1  1
 10 11  1  0
 11 18  1  0
 11 12  1  0
 11 37  1  6
 12 13  1  0
 13 17  1  0
 13 14  1  0
 13 38  1  1
 14 15  1  0
 15 16  1  0
 15 39  1  0
 15 40  1  0
 16 17  1  0
 17 18  1  0
 17 41  1  1
 18 21  1  1
 18 19  1  0
 19 20  1  0
 19 42  1  0
 19 43  1  0
 20 21  1  0
 20 44  1  0
 20 45  1  0
 22 46  1  0
 22 47  1  0
M  CHG  1   5   1
M  END
>  <i_m_ct_stereo_status>  (248) 
1

>  <s_m_source_file>  (248) 
/var/tmp/pbs.5076255.sched01/tmpkd0wjm76/823hn9mkkz.sdf

>  <i_m_source_file_index>  (248) 
24

>  <i_lp_mmshare_version>  (248) 
48012

>  <i_f3d_flags>  (248) 
0

>  <s_epik_input>  (248) 
W0NIM11bQ0gyXVtDSDJdW0NIMl1OMVtDSDJdW0NAQEhdKFtPSF0pW0NASF0oW0NIMl0xKU9bQ0BASF0yT1tDQEhdKE9bQ0gyXU8zKVtDQEhdM1tDQF0yNFtDSDJdW0NIMl1PNA==

>  <s_epik_cmdline>  (248) 
J2VwaWtfcHl0aG9uJywgJy1waHQnLCAnMi4wJywgJy1waCcsICc3LjAnLCAnLXRuJywgJzgnLCAnLW1hJywgJzIwMCcsICctaW1hZScsICc8aW5maWxlLm1hZT4nLCAnLW9tYWUnLCAnPG91dGZpbGUubWFlPic=

>  <r_epik_Ionization_Penalty>  (248) 
0.0155045

>  <r_epik_Ionization_Penalty_Charging>  (248) 
0.0155039

>  <r_epik_Ionization_Penalty_Neutral>  (248) 
5.78344e-07

>  <r_epik_State_Penalty>  (248) 
0.0121873

>  <r_epik_Charging_Adjusted_Penalty>  (248) 
0.0276912

>  <i_epik_Tot_Q>  (248) 
1

>  <i_epik_Tot_abs_Q>  (248) 
1

>  <s_epik_Chemistry_Notes>  (248) 
This compound contains an acetal/aminal-like group ( X-CH(R)-Y where X, Y are N, S, or O) that may be acid/base labile, releasing an aldehyde.

>  <s_lp_Force_Field>  (248) 
OPLS3e

>  <r_lp_Energy>  (248) 
10.5918

>  <b_lp_Chiralities_Consistent>  (248) 
1

>  <s_lp_Variant>  (248) 
75:0-1

>  <s_i_glide_gridfile>  (248) 
pfpi4k_grid

>  <i_i_glide_lignum>  (248) 
24

>  <i_i_glide_rotatable_bonds>  (248) 
6

>  <r_i_docking_score>  (248) 
-2.71529

>  <r_i_glide_ligand_efficiency>  (248) 
-0.123422

>  <r_i_glide_ligand_efficiency_sa>  (248) 
-0.345834

>  <r_i_glide_ligand_efficiency_ln>  (248) 
-0.663717

>  <r_i_glide_gscore>  (248) 
-2.71529

>  <r_i_glide_lipo>  (248) 
-0.162336

>  <r_i_glide_hbond>  (248) 
-0.2

>  <r_i_glide_metal>  (248) 
-0

>  <r_i_glide_rewards>  (248) 
-1.25202

>  <r_i_glide_evdw>  (248) 
-18.8948

>  <r_i_glide_ecoul>  (248) 
-5.21831

>  <r_i_glide_erotb>  (248) 
0.743963

>  <r_i_glide_esite>  (248) 
-0.11741

>  <r_i_glide_emodel>  (248) 
-28.4317

>  <r_i_glide_energy>  (248) 
-24.1131

>  <r_i_glide_einternal>  (248) 
2.31232

>  <r_i_glide_intrahb_reward>  (248) 
-0

>  <i_i_glide_confnum>  (248) 
5

>  <i_i_glide_posenum>  (248) 
34

>  <r_i_glide_eff_state_penalty>  (248) 
0

>  <ligand_id>  (248) 
75

>  <original_smiles>  (248) 
CCCCN1CC(O)C(OC2OC3OCOC3C23CCO3)C1

>  <smiles>  (248) 
[H]OC1([H])C([H])(OC2([H])OC3([H])OC([H])([H])OC3([H])C23OC([H])([H])C3([H])[H])C([H])([H])[N+]([H])(C([H])([H])C([H])([H])C([H])([H])C([H])([H])[H])C1([H])[H]

$$$$
75:1:0
     RDKit          3D

 47 50  0  0  1  0  0  0  0  0999 V2000
    2.6048    0.5663   -5.4211 C   0  0  0  0  0  0  0  0  0  0  0  0
    3.4949    0.3836   -4.1881 C   0  0  0  0  0  0  0  0  0  0  0  0
    4.2438   -0.9443   -4.1721 C   0  0  0  0  0  0  0  0  0  0  0  0
    3.3437   -2.1603   -3.9272 C   0  0  0  0  0  0  0  0  0  0  0  0
    3.0581   -2.3861   -2.5211 N   0  0  0  0  0  0  0  0  0  0  0  0
    1.9988   -3.3493   -2.3342 C   0  0  0  0  0  0  0  0  0  0  0  0
    2.0792   -3.7326   -0.8653 C   0  0  1  0  0  0  0  0  0  0  0  0
    1.6358   -5.0579   -0.7092 O   0  0  0  0  0  0  0  0  0  0  0  0
    3.5575   -3.4870   -0.4960 C   0  0  1  0  0  0  0  0  0  0  0  0
    4.2030   -4.6798   -0.1070 O   0  0  0  0  0  0  0  0  0  0  0  0
    3.9889   -5.0575    1.2267 C   0  0  2  0  0  0  0  0  0  0  0  0
    4.5107   -4.1384    2.1352 O   0  0  0  0  0  0  0  0  0  0  0  0
    5.9044   -4.3458    2.2207 C   0  0  2  0  0  0  0  0  0  0  0  0
    6.5671   -3.5284    1.3006 O   0  0  0  0  0  0  0  0  0  0  0  0
    7.4405   -4.3610    0.6268 C   0  0  0  0  0  0  0  0  0  0  0  0
    6.9027   -5.6334    0.5469 O   0  0  0  0  0  0  0  0  0  0  0  0
    6.1912   -5.8180    1.7540 C   0  0  2  0  0  0  0  0  0  0  0  0
    4.7962   -6.3435    1.4626 C   0  0  2  0  0  0  0  0  0  0  0  0
    4.5935   -7.5118    0.5073 C   0  0  0  0  0  0  0  0  0  0  0  0
    3.5471   -7.9703    1.5108 C   0  0  0  0  0  0  0  0  0  0  0  0
    4.1770   -7.1272    2.5327 O   0  0  0  0  0  0  0  0  0  0  0  0
    4.1696   -2.9599   -1.7921 C   0  0  0  0  0  0  0  0  0  0  0  0
    2.0767    1.5191   -5.3771 H   0  0  0  0  0  0  0  0  0  0  0  0
    1.8471   -0.2157   -5.4887 H   0  0  0  0  0  0  0  0  0  0  0  0
    3.1984    0.5424   -6.3355 H   0  0  0  0  0  0  0  0  0  0  0  0
    4.2041    1.2135   -4.1370 H   0  0  0  0  0  0  0  0  0  0  0  0
    2.8898    0.4363   -3.2844 H   0  0  0  0  0  0  0  0  0  0  0  0
    4.7824   -1.0364   -5.1137 H   0  0  0  0  0  0  0  0  0  0  0  0
    5.0088   -0.8985   -3.3915 H   0  0  0  0  0  0  0  0  0  0  0  0
    2.4045   -2.0182   -4.4649 H   0  0  0  0  0  0  0  0  0  0  0  0
    3.7969   -3.0525   -4.3723 H   0  0  0  0  0  0  0  0  0  0  0  0
    1.0215   -2.9440   -2.5933 H   0  0  0  0  0  0  0  0  0  0  0  0
    2.1715   -4.2198   -2.9687 H   0  0  0  0  0  0  0  0  0  0  0  0
    1.4690   -3.0590   -0.2779 H   0  0  0  0  0  0  0  0  0  0  0  0
    2.2198   -5.5860   -1.2644 H   0  0  0  0  0  0  0  0  0  0  0  0
    3.6415   -2.7333    0.2863 H   0  0  0  0  0  0  0  0  0  0  0  0
    2.9223   -5.2080    1.4273 H   0  0  0  0  0  0  0  0  0  0  0  0
    6.2007   -4.1487    3.2582 H   0  0  0  0  0  0  0  0  0  0  0  0
    7.5595   -3.9812   -0.3906 H   0  0  0  0  0  0  0  0  0  0  0  0
    8.4137   -4.3959    1.1193 H   0  0  0  0  0  0  0  0  0  0  0  0
    6.7255   -6.3924    2.5592 H   0  0  0  0  0  0  0  0  0  0  0  0
    4.2260   -7.2432   -0.4905 H   0  0  0  0  0  0  0  0  0  0  0  0
    5.4555   -8.1937    0.4899 H   0  0  0  0  0  0  0  0  0  0  0  0
    2.5222   -7.6415    1.2797 H   0  0  0  0  0  0  0  0  0  0  0  0
    3.5765   -9.0460    1.7444 H   0  0  0  0  0  0  0  0  0  0  0  0
    4.6075   -3.7908   -2.3514 H   0  0  0  0  0  0  0  0  0  0  0  0
    4.9554   -2.2334   -1.6002 H   0  0  0  0  0  0  0  0  0  0  0  0
  1  2  1  0
  1 23  1  0
  1 24  1  0
  1 25  1  0
  2  3  1  0
  2 26  1  0
  2 27  1  0
  3  4  1  0
  3 28  1  0
  3 29  1  0
  4  5  1  0
  4 30  1  0
  4 31  1  0
  5 22  1  0
  5  6  1  0
  6  7  1  0
  6 32  1  0
  6 33  1  0
  7  8  1  0
  7  9  1  0
  7 34  1  1
  8 35  1  0
  9 10  1  0
  9 22  1  0
  9 36  1  1
 10 11  1  0
 11 18  1  0
 11 12  1  0
 11 37  1  1
 12 13  1  0
 13 17  1  0
 13 14  1  0
 13 38  1  1
 14 15  1  0
 15 16  1  0
 15 39  1  0
 15 40  1  0
 16 17  1  0
 17 18  1  0
 17 41  1  1
 18 21  1  1
 18 19  1  0
 19 20  1  0
 19 42  1  0
 19 43  1  0
 20 21  1  0
 20 44  1  0
 20 45  1  0
 22 46  1  0
 22 47  1  0
M  END
>  <i_m_ct_stereo_status>  (249) 
1

>  <s_m_source_file>  (249) 
/var/tmp/pbs.5076255.sched01/tmpkd0wjm76/823hn9mkkz.sdf

>  <i_m_source_file_index>  (249) 
25

>  <i_lp_mmshare_version>  (249) 
48012

>  <i_f3d_flags>  (249) 
0

>  <s_epik_input>  (249) 
W0NIM11bQ0gyXVtDSDJdW0NIMl1OMVtDSDJdW0NAQEhdKFtPSF0pW0NASF0oW0NIMl0xKU9bQ0BASF0yT1tDQEhdKE9bQ0gyXU8zKVtDQEhdM1tDQF0yNFtDSDJdW0NIMl1PNA==

>  <s_epik_cmdline>  (249) 
J2VwaWtfcHl0aG9uJywgJy1waHQnLCAnMi4wJywgJy1waCcsICc3LjAnLCAnLXRuJywgJzgnLCAnLW1hJywgJzIwMCcsICctaW1hZScsICc8aW5maWxlLm1hZT4nLCAnLW9tYWUnLCAnPG91dGZpbGUubWFlPic=

>  <r_epik_Ionization_Penalty>  (249) 
2.1663

>  <r_epik_Ionization_Penalty_Charging>  (249) 
0

>  <r_epik_Ionization_Penalty_Neutral>  (249) 
2.1663

>  <r_epik_State_Penalty>  (249) 
2.30726

>  <r_epik_Charging_Adjusted_Penalty>  (249) 
2.30726

>  <i_epik_Tot_Q>  (249) 
0

>  <i_epik_Tot_abs_Q>  (249) 
0

>  <s_epik_Chemistry_Notes>  (249) 
This compound contains an acetal/aminal-like group ( X-CH(R)-Y where X, Y are N, S, or O) that may be acid/base labile, releasing an aldehyde.

>  <s_lp_Force_Field>  (249) 
OPLS3e

>  <r_lp_Energy>  (249) 
6.5816

>  <b_lp_Chiralities_Consistent>  (249) 
1

>  <s_lp_Variant>  (249) 
75:0-2

>  <s_i_glide_gridfile>  (249) 
pfpi4k_grid

>  <i_i_glide_lignum>  (249) 
25

>  <i_i_glide_rotatable_bonds>  (249) 
6

>  <r_i_docking_score>  (249) 
-3.36721

>  <r_i_glide_ligand_efficiency>  (249) 
-0.153055

>  <r_i_glide_ligand_efficiency_sa>  (249) 
-0.428867

>  <r_i_glide_ligand_efficiency_ln>  (249) 
-0.82307

>  <r_i_glide_gscore>  (249) 
-3.36721

>  <r_i_glide_lipo>  (249) 
-0.754494

>  <r_i_glide_hbond>  (249) 
0

>  <r_i_glide_metal>  (249) 
-0

>  <r_i_glide_rewards>  (249) 
-1.53213

>  <r_i_glide_evdw>  (249) 
-18.0661

>  <r_i_glide_ecoul>  (249) 
-6.1696

>  <r_i_glide_erotb>  (249) 
0.748152

>  <r_i_glide_esite>  (249) 
0

>  <r_i_glide_emodel>  (249) 
-26.2877

>  <r_i_glide_energy>  (249) 
-24.2357

>  <r_i_glide_einternal>  (249) 
5.40597

>  <r_i_glide_intrahb_reward>  (249) 
-0

>  <i_i_glide_confnum>  (249) 
2

>  <i_i_glide_posenum>  (249) 
2

>  <r_i_glide_eff_state_penalty>  (249) 
0

>  <ligand_id>  (249) 
75

>  <original_smiles>  (249) 
CCCCN1CC(O)C(OC2OC3OCOC3C23CCO3)C1

>  <smiles>  (249) 
[H]OC1([H])C([H])([H])N(C([H])([H])C([H])([H])C([H])([H])C([H])([H])[H])C([H])([H])C1([H])OC1([H])OC2([H])OC([H])([H])OC2([H])C12OC([H])([H])C2([H])[H]

$$$$
75:1:1
     RDKit          3D

 47 50  0  0  1  0  0  0  0  0999 V2000
    2.2229    0.9108   -5.1761 C   0  0  0  0  0  0  0  0  0  0  0  0
    3.3036    0.3390   -4.2545 C   0  0  0  0  0  0  0  0  0  0  0  0
    3.8267   -1.0261   -4.7183 C   0  0  0  0  0  0  0  0  0  0  0  0
    2.9986   -2.2069   -4.1863 C   0  0  0  0  0  0  0  0  0  0  0  0
    2.9463   -2.2763   -2.7371 N   0  0  0  0  0  0  0  0  0  0  0  0
    2.0722   -3.3203   -2.2444 C   0  0  0  0  0  0  0  0  0  0  0  0
    2.4270   -3.4600   -0.7622 C   0  0  1  0  0  0  0  0  0  0  0  0
    2.2209   -4.7930   -0.3340 O   0  0  0  0  0  0  0  0  0  0  0  0
    3.8726   -2.9514   -0.6874 C   0  0  1  0  0  0  0  0  0  0  0  0
    4.8052   -3.9185   -0.2597 O   0  0  0  0  0  0  0  0  0  0  0  0
    5.0021   -3.9668    1.1191 C   0  0  2  0  0  0  0  0  0  0  0  0
    5.3289   -2.7289    1.6344 O   0  0  0  0  0  0  0  0  0  0  0  0
    6.6602   -2.4421    1.3066 C   0  0  2  0  0  0  0  0  0  0  0  0
    6.7790   -1.7830    0.0794 O   0  0  0  0  0  0  0  0  0  0  0  0
    7.7180   -2.4864   -0.6602 C   0  0  0  0  0  0  0  0  0  0  0  0
    7.7099   -3.8228   -0.3007 O   0  0  0  0  0  0  0  0  0  0  0  0
    7.3438   -3.8115    1.0603 C   0  0  2  0  0  0  0  0  0  0  0  0
    6.2515   -4.8311    1.3236 C   0  0  2  0  0  0  0  0  0  0  0  0
    6.3014   -6.2339    0.7250 C   0  0  0  0  0  0  0  0  0  0  0  0
    5.7712   -6.6600    2.0922 C   0  0  0  0  0  0  0  0  0  0  0  0
    6.2323   -5.4030    2.6580 O   0  0  0  0  0  0  0  0  0  0  0  0
    4.2163   -2.5606   -2.1166 C   0  0  0  0  0  0  0  0  0  0  0  0
    1.8562    1.8644   -4.8011 H   0  0  0  0  0  0  0  0  0  0  0  0
    1.3665    0.2376   -5.2413 H   0  0  0  0  0  0  0  0  0  0  0  0
    2.6149    1.0843   -6.1769 H   0  0  0  0  0  0  0  0  0  0  0  0
    4.1274    1.0514   -4.1914 H   0  0  0  0  0  0  0  0  0  0  0  0
    2.9065    0.2509   -3.2436 H   0  0  0  0  0  0  0  0  0  0  0  0
    3.8328   -1.0362   -5.8076 H   0  0  0  0  0  0  0  0  0  0  0  0
    4.8631   -1.1376   -4.4036 H   0  0  0  0  0  0  0  0  0  0  0  0
    1.9794   -2.1103   -4.5569 H   0  0  0  0  0  0  0  0  0  0  0  0
    3.3905   -3.1389   -4.6055 H   0  0  0  0  0  0  0  0  0  0  0  0
    1.0226   -3.0725   -2.4050 H   0  0  0  0  0  0  0  0  0  0  0  0
    2.2652   -4.2448   -2.7927 H   0  0  0  0  0  0  0  0  0  0  0  0
    1.8375   -2.7913   -0.1410 H   0  0  0  0  0  0  0  0  0  0  0  0
    2.6924   -5.3475   -0.9460 H   0  0  0  0  0  0  0  0  0  0  0  0
    3.9017   -2.0435   -0.0812 H   0  0  0  0  0  0  0  0  0  0  0  0
    4.1271   -4.3565    1.6474 H   0  0  0  0  0  0  0  0  0  0  0  0
    7.0106   -1.8192    2.1147 H   0  0  0  0  0  0  0  0  0  0  0  0
    7.4621   -2.4312   -1.7152 H   0  0  0  0  0  0  0  0  0  0  0  0
    8.7142   -2.0670   -0.4942 H   0  0  0  0  0  0  0  0  0  0  0  0
    8.2356   -3.8959    1.7101 H   0  0  0  0  0  0  0  0  0  0  0  0
    5.6100   -6.3783   -0.1124 H   0  0  0  0  0  0  0  0  0  0  0  0
    7.3204   -6.5868    0.5248 H   0  0  0  0  0  0  0  0  0  0  0  0
    4.6763   -6.7419    2.1432 H   0  0  0  0  0  0  0  0  0  0  0  0
    6.2653   -7.5407    2.5186 H   0  0  0  0  0  0  0  0  0  0  0  0
    4.7204   -3.3915   -2.6162 H   0  0  0  0  0  0  0  0  0  0  0  0
    4.8742   -1.6951   -2.1415 H   0  0  0  0  0  0  0  0  0  0  0  0
  1  2  1  0
  1 23  1  0
  1 24  1  0
  1 25  1  0
  2  3  1  0
  2 26  1  0
  2 27  1  0
  3  4  1  0
  3 28  1  0
  3 29  1  0
  4  5  1  0
  4 30  1  0
  4 31  1  0
  5 22  1  0
  5  6  1  0
  6  7  1  0
  6 32  1  0
  6 33  1  0
  7  8  1  0
  7  9  1  0
  7 34  1  1
  8 35  1  0
  9 10  1  0
  9 22  1  0
  9 36  1  1
 10 11  1  0
 11 18  1  0
 11 12  1  0
 11 37  1  1
 12 13  1  0
 13 17  1  0
 13 14  1  0
 13 38  1  1
 14 15  1  0
 15 16  1  0
 15 39  1  0
 15 40  1  0
 16 17  1  0
 17 18  1  0
 17 41  1  1
 18 21  1  1
 18 19  1  0
 19 20  1  0
 19 42  1  0
 19 43  1  0
 20 21  1  0
 20 44  1  0
 20 45  1  0
 22 46  1  0
 22 47  1  0
M  END
>  <i_m_ct_stereo_status>  (250) 
1

>  <s_m_source_file>  (250) 
/var/tmp/pbs.5076255.sched01/tmpkd0wjm76/823hn9mkkz.sdf

>  <i_m_source_file_index>  (250) 
25

>  <i_lp_mmshare_version>  (250) 
48012

>  <i_f3d_flags>  (250) 
0

>  <s_epik_input>  (250) 
W0NIM11bQ0gyXVtDSDJdW0NIMl1OMVtDSDJdW0NAQEhdKFtPSF0pW0NASF0oW0NIMl0xKU9bQ0BASF0yT1tDQEhdKE9bQ0gyXU8zKVtDQEhdM1tDQF0yNFtDSDJdW0NIMl1PNA==

>  <s_epik_cmdline>  (250) 
J2VwaWtfcHl0aG9uJywgJy1waHQnLCAnMi4wJywgJy1waCcsICc3LjAnLCAnLXRuJywgJzgnLCAnLW1hJywgJzIwMCcsICctaW1hZScsICc8aW5maWxlLm1hZT4nLCAnLW9tYWUnLCAnPG91dGZpbGUubWFlPic=

>  <r_epik_Ionization_Penalty>  (250) 
2.1663

>  <r_epik_Ionization_Penalty_Charging>  (250) 
0

>  <r_epik_Ionization_Penalty_Neutral>  (250) 
2.1663

>  <r_epik_State_Penalty>  (250) 
2.30726

>  <r_epik_Charging_Adjusted_Penalty>  (250) 
2.30726

>  <i_epik_Tot_Q>  (250) 
0

>  <i_epik_Tot_abs_Q>  (250) 
0

>  <s_epik_Chemistry_Notes>  (250) 
This compound contains an acetal/aminal-like group ( X-CH(R)-Y where X, Y are N, S, or O) that may be acid/base labile, releasing an aldehyde.

>  <s_lp_Force_Field>  (250) 
OPLS3e

>  <r_lp_Energy>  (250) 
6.5816

>  <b_lp_Chiralities_Consistent>  (250) 
1

>  <s_lp_Variant>  (250) 
75:0-2

>  <s_i_glide_gridfile>  (250) 
pfpi4k_grid

>  <i_i_glide_lignum>  (250) 
25

>  <i_i_glide_rotatable_bonds>  (250) 
6

>  <r_i_docking_score>  (250) 
-2.78544

>  <r_i_glide_ligand_efficiency>  (250) 
-0.126611

>  <r_i_glide_ligand_efficiency_sa>  (250) 
-0.354769

>  <r_i_glide_ligand_efficiency_ln>  (250) 
-0.680863

>  <r_i_glide_gscore>  (250) 
-2.78544

>  <r_i_glide_lipo>  (250) 
-0.488322

>  <r_i_glide_hbond>  (250) 
-0.0328379

>  <r_i_glide_metal>  (250) 
-0

>  <r_i_glide_rewards>  (250) 
-1.38733

>  <r_i_glide_evdw>  (250) 
-20.0815

>  <r_i_glide_ecoul>  (250) 
-3.83712

>  <r_i_glide_erotb>  (250) 
0.748152

>  <r_i_glide_esite>  (250) 
-0.0454562

>  <r_i_glide_emodel>  (250) 
-23.5329

>  <r_i_glide_energy>  (250) 
-23.9186

>  <r_i_glide_einternal>  (250) 
7.6917

>  <r_i_glide_intrahb_reward>  (250) 
-0

>  <i_i_glide_confnum>  (250) 
2

>  <i_i_glide_posenum>  (250) 
20

>  <r_i_glide_eff_state_penalty>  (250) 
0

>  <ligand_id>  (250) 
75

>  <original_smiles>  (250) 
CCCCN1CC(O)C(OC2OC3OCOC3C23CCO3)C1

>  <smiles>  (250) 
[H]OC1([H])C([H])([H])N(C([H])([H])C([H])([H])C([H])([H])C([H])([H])[H])C([H])([H])C1([H])OC1([H])OC2([H])OC([H])([H])OC2([H])C12OC([H])([H])C2([H])[H]

$$$$
75:1:2
     RDKit          3D

 47 50  0  0  1  0  0  0  0  0999 V2000
    3.5525    1.2880   -5.1216 C   0  0  0  0  0  0  0  0  0  0  0  0
    2.9235    0.0964   -4.4151 C   0  0  0  0  0  0  0  0  0  0  0  0
    3.8564   -0.5390   -3.3779 C   0  0  0  0  0  0  0  0  0  0  0  0
    3.2175   -1.7341   -2.6419 C   0  0  0  0  0  0  0  0  0  0  0  0
    3.9707   -2.1557   -1.4677 N   0  0  0  0  0  0  0  0  0  0  0  0
    3.8689   -1.2022   -0.3781 C   0  0  0  0  0  0  0  0  0  0  0  0
    4.3426   -1.9372    0.8669 C   0  0  1  0  0  0  0  0  0  0  0  0
    3.6886   -1.4403    2.0256 O   0  0  0  0  0  0  0  0  0  0  0  0
    4.0509   -3.4201    0.5371 C   0  0  1  0  0  0  0  0  0  0  0  0
    3.1130   -3.9768    1.4340 O   0  0  0  0  0  0  0  0  0  0  0  0
    3.6601   -4.4134    2.6512 C   0  0  2  0  0  0  0  0  0  0  0  0
    4.2291   -5.6721    2.5503 O   0  0  0  0  0  0  0  0  0  0  0  0
    3.1810   -6.6258    2.5907 C   0  0  2  0  0  0  0  0  0  0  0  0
    2.7551   -6.9255    1.2805 O   0  0  0  0  0  0  0  0  0  0  0  0
    1.3860   -6.8164    1.3157 C   0  0  0  0  0  0  0  0  0  0  0  0
    1.0172   -5.8515    2.2463 O   0  0  0  0  0  0  0  0  0  0  0  0
    1.9736   -5.9437    3.2732 C   0  0  2  0  0  0  0  0  0  0  0  0
    2.4837   -4.5699    3.6376 C   0  0  2  0  0  0  0  0  0  0  0  0
    1.5299   -3.4041    3.8456 C   0  0  0  0  0  0  0  0  0  0  0  0
    2.4633   -3.0545    4.9998 C   0  0  0  0  0  0  0  0  0  0  0  0
    2.9679   -4.4212    4.9953 O   0  0  0  0  0  0  0  0  0  0  0  0
    3.4594   -3.3795   -0.8759 C   0  0  0  0  0  0  0  0  0  0  0  0
    2.8569    1.7132   -5.8466 H   0  0  0  0  0  0  0  0  0  0  0  0
    4.4540    0.9744   -5.6443 H   0  0  0  0  0  0  0  0  0  0  0  0
    3.8011    2.0669   -4.4039 H   0  0  0  0  0  0  0  0  0  0  0  0
    2.0193    0.4584   -3.9288 H   0  0  0  0  0  0  0  0  0  0  0  0
    2.6205   -0.6416   -5.1553 H   0  0  0  0  0  0  0  0  0  0  0  0
    4.7807   -0.8673   -3.8528 H   0  0  0  0  0  0  0  0  0  0  0  0
    4.1344    0.2421   -2.6732 H   0  0  0  0  0  0  0  0  0  0  0  0
    2.1828   -1.4816   -2.3630 H   0  0  0  0  0  0  0  0  0  0  0  0
    3.1284   -2.5634   -3.3498 H   0  0  0  0  0  0  0  0  0  0  0  0
    4.4496   -0.2966   -0.5661 H   0  0  0  0  0  0  0  0  0  0  0  0
    2.8270   -0.9066   -0.2472 H   0  0  0  0  0  0  0  0  0  0  0  0
    5.4177   -1.8016    0.9799 H   0  0  0  0  0  0  0  0  0  0  0  0
    3.7301   -0.4960    2.0199 H   0  0  0  0  0  0  0  0  0  0  0  0
    4.9688   -4.0102    0.5416 H   0  0  0  0  0  0  0  0  0  0  0  0
    4.4024   -3.7036    3.0391 H   0  0  0  0  0  0  0  0  0  0  0  0
    3.5394   -7.5377    3.1129 H   0  0  0  0  0  0  0  0  0  0  0  0
    1.0421   -6.4834    0.3393 H   0  0  0  0  0  0  0  0  0  0  0  0
    0.9200   -7.7737    1.5636 H   0  0  0  0  0  0  0  0  0  0  0  0
    1.6483   -6.5464    4.1654 H   0  0  0  0  0  0  0  0  0  0  0  0
    1.4803   -2.6704    3.0371 H   0  0  0  0  0  0  0  0  0  0  0  0
    0.5342   -3.7106    4.1868 H   0  0  0  0  0  0  0  0  0  0  0  0
    3.2511   -2.3235    4.7377 H   0  0  0  0  0  0  0  0  0  0  0  0
    1.9599   -2.7613    5.9367 H   0  0  0  0  0  0  0  0  0  0  0  0
    2.3706   -3.3299   -0.8111 H   0  0  0  0  0  0  0  0  0  0  0  0
    3.7181   -4.2687   -1.4560 H   0  0  0  0  0  0  0  0  0  0  0  0
  1  2  1  0
  1 23  1  0
  1 24  1  0
  1 25  1  0
  2  3  1  0
  2 26  1  0
  2 27  1  0
  3  4  1  0
  3 28  1  0
  3 29  1  0
  4  5  1  0
  4 30  1  0
  4 31  1  0
  5 22  1  0
  5  6  1  0
  6  7  1  0
  6 32  1  0
  6 33  1  0
  7  8  1  0
  7  9  1  0
  7 34  1  1
  8 35  1  0
  9 10  1  0
  9 22  1  0
  9 36  1  6
 10 11  1  0
 11 18  1  0
 11 12  1  0
 11 37  1  1
 12 13  1  0
 13 17  1  0
 13 14  1  0
 13 38  1  1
 14 15  1  0
 15 16  1  0
 15 39  1  0
 15 40  1  0
 16 17  1  0
 17 18  1  0
 17 41  1  1
 18 21  1  1
 18 19  1  0
 19 20  1  0
 19 42  1  0
 19 43  1  0
 20 21  1  0
 20 44  1  0
 20 45  1  0
 22 46  1  0
 22 47  1  0
M  END
>  <i_m_ct_stereo_status>  (251) 
1

>  <s_m_source_file>  (251) 
/var/tmp/pbs.5076255.sched01/tmpkd0wjm76/823hn9mkkz.sdf

>  <i_m_source_file_index>  (251) 
25

>  <i_lp_mmshare_version>  (251) 
48012

>  <i_f3d_flags>  (251) 
0

>  <s_epik_input>  (251) 
W0NIM11bQ0gyXVtDSDJdW0NIMl1OMVtDSDJdW0NAQEhdKFtPSF0pW0NASF0oW0NIMl0xKU9bQ0BASF0yT1tDQEhdKE9bQ0gyXU8zKVtDQEhdM1tDQF0yNFtDSDJdW0NIMl1PNA==

>  <s_epik_cmdline>  (251) 
J2VwaWtfcHl0aG9uJywgJy1waHQnLCAnMi4wJywgJy1waCcsICc3LjAnLCAnLXRuJywgJzgnLCAnLW1hJywgJzIwMCcsICctaW1hZScsICc8aW5maWxlLm1hZT4nLCAnLW9tYWUnLCAnPG91dGZpbGUubWFlPic=

>  <r_epik_Ionization_Penalty>  (251) 
2.1663

>  <r_epik_Ionization_Penalty_Charging>  (251) 
0

>  <r_epik_Ionization_Penalty_Neutral>  (251) 
2.1663

>  <r_epik_State_Penalty>  (251) 
2.30726

>  <r_epik_Charging_Adjusted_Penalty>  (251) 
2.30726

>  <i_epik_Tot_Q>  (251) 
0

>  <i_epik_Tot_abs_Q>  (251) 
0

>  <s_epik_Chemistry_Notes>  (251) 
This compound contains an acetal/aminal-like group ( X-CH(R)-Y where X, Y are N, S, or O) that may be acid/base labile, releasing an aldehyde.

>  <s_lp_Force_Field>  (251) 
OPLS3e

>  <r_lp_Energy>  (251) 
6.5816

>  <b_lp_Chiralities_Consistent>  (251) 
1

>  <s_lp_Variant>  (251) 
75:0-2

>  <s_i_glide_gridfile>  (251) 
pfpi4k_grid

>  <i_i_glide_lignum>  (251) 
25

>  <i_i_glide_rotatable_bonds>  (251) 
6

>  <r_i_docking_score>  (251) 
-2.19772

>  <r_i_glide_ligand_efficiency>  (251) 
-0.0998966

>  <r_i_glide_ligand_efficiency_sa>  (251) 
-0.279914

>  <r_i_glide_ligand_efficiency_ln>  (251) 
-0.537204

>  <r_i_glide_gscore>  (251) 
-2.19772

>  <r_i_glide_lipo>  (251) 
-0.371834

>  <r_i_glide_hbond>  (251) 
-0.0548782

>  <r_i_glide_metal>  (251) 
-0

>  <r_i_glide_rewards>  (251) 
-1.25889

>  <r_i_glide_evdw>  (251) 
-18.9418

>  <r_i_glide_ecoul>  (251) 
-1.71855

>  <r_i_glide_erotb>  (251) 
0.748152

>  <r_i_glide_esite>  (251) 
-0.0553969

>  <r_i_glide_emodel>  (251) 
-22.4974

>  <r_i_glide_energy>  (251) 
-20.6604

>  <r_i_glide_einternal>  (251) 
2.04644

>  <r_i_glide_intrahb_reward>  (251) 
-0

>  <i_i_glide_confnum>  (251) 
1

>  <i_i_glide_posenum>  (251) 
3

>  <r_i_glide_eff_state_penalty>  (251) 
0

>  <ligand_id>  (251) 
75

>  <original_smiles>  (251) 
CCCCN1CC(O)C(OC2OC3OCOC3C23CCO3)C1

>  <smiles>  (251) 
[H]OC1([H])C([H])([H])N(C([H])([H])C([H])([H])C([H])([H])C([H])([H])[H])C([H])([H])C1([H])OC1([H])OC2([H])OC([H])([H])OC2([H])C12OC([H])([H])C2([H])[H]

$$$$
77:0:0
     RDKit          3D

 15 16  0  0  1  0  0  0  0  0999 V2000
   -6.2657   -9.4774   -6.3758 C   0  0  0  0  0  0  0  0  0  0  0  0
   -4.9867   -9.4345   -5.7609 C   0  0  0  0  0  0  0  0  0  0  0  0
   -4.5249   -8.2698   -5.1948 C   0  0  0  0  0  0  0  0  0  0  0  0
   -5.3102   -7.1630   -5.2310 N   0  0  0  0  0  0  0  0  0  0  0  0
   -4.9878   -5.9350   -4.7229 N   0  0  0  0  0  0  0  0  0  0  0  0
   -6.0386   -5.1924   -4.9768 C   0  0  0  0  0  0  0  0  0  0  0  0
   -7.0716   -5.8818   -5.6641 C   0  0  0  0  0  0  0  0  0  0  0  0
   -6.5879   -7.1506   -5.8262 C   0  0  0  0  0  0  0  0  0  0  0  0
   -7.0587   -8.3523   -6.4144 C   0  0  0  0  0  0  0  0  0  0  0  0
   -6.6248  -10.4051   -6.8162 H   0  0  0  0  0  0  0  0  0  0  0  0
   -4.3568  -10.3199   -5.7264 H   0  0  0  0  0  0  0  0  0  0  0  0
   -3.5500   -8.1842   -4.7274 H   0  0  0  0  0  0  0  0  0  0  0  0
   -6.0216   -4.1564   -4.6586 H   0  0  0  0  0  0  0  0  0  0  0  0
   -8.0211   -5.4833   -5.9834 H   0  0  0  0  0  0  0  0  0  0  0  0
   -8.0417   -8.3794   -6.8735 H   0  0  0  0  0  0  0  0  0  0  0  0
  1  9  2  0
  1  2  1  0
  1 10  1  0
  2  3  2  0
  2 11  1  0
  3  4  1  0
  3 12  1  0
  4  8  1  0
  4  5  1  0
  5  6  2  0
  6  7  1  0
  6 13  1  0
  7  8  2  0
  7 14  1  0
  8  9  1  0
  9 15  1  0
M  END
>  <i_m_ct_stereo_status>  (252) 
1

>  <s_m_source_file>  (252) 
/var/tmp/pbs.5076255.sched01/tmpkd0wjm76/823hn9mkkz.sdf

>  <i_m_source_file_index>  (252) 
27

>  <i_lp_mmshare_version>  (252) 
48012

>  <i_f3d_flags>  (252) 
0

>  <s_epik_input>  (252) 
W2NIXTFbY0hdW2NIXVtjSF1jKG4xMilbY0hdW2NIXW4y

>  <s_epik_cmdline>  (252) 
J2VwaWtfcHl0aG9uJywgJy1waHQnLCAnMi4wJywgJy1waCcsICc3LjAnLCAnLXRuJywgJzgnLCAnLW1hJywgJzIwMCcsICctaW1hZScsICc8aW5maWxlLm1hZT4nLCAnLW9tYWUnLCAnPG91dGZpbGUubWFlPic=

>  <r_lp_tautomer_probability>  (252) 
1

>  <r_epik_Ionization_Penalty>  (252) 
1.33992e-06

>  <r_epik_Ionization_Penalty_Charging>  (252) 
0

>  <r_epik_Ionization_Penalty_Neutral>  (252) 
1.33992e-06

>  <r_epik_State_Penalty>  (252) 
-0

>  <r_epik_Charging_Adjusted_Penalty>  (252) 
0

>  <i_epik_Tot_Q>  (252) 
0

>  <i_epik_Tot_abs_Q>  (252) 
0

>  <s_lp_Force_Field>  (252) 
OPLS3e

>  <r_lp_Energy>  (252) 
11.7972

>  <b_lp_Chiralities_Consistent>  (252) 
1

>  <s_lp_Variant>  (252) 
77:0-1

>  <s_i_glide_gridfile>  (252) 
pfpi4k_grid

>  <i_i_glide_lignum>  (252) 
27

>  <i_i_glide_rotatable_bonds>  (252) 
0

>  <r_i_docking_score>  (252) 
-7.09794

>  <r_i_glide_ligand_efficiency>  (252) 
-0.78866

>  <r_i_glide_ligand_efficiency_sa>  (252) 
-1.64048

>  <r_i_glide_ligand_efficiency_ln>  (252) 
-2.22003

>  <r_i_glide_gscore>  (252) 
-7.09794

>  <r_i_glide_lipo>  (252) 
-1.6583

>  <r_i_glide_hbond>  (252) 
-0.32

>  <r_i_glide_metal>  (252) 
-0

>  <r_i_glide_rewards>  (252) 
-3.60044

>  <r_i_glide_evdw>  (252) 
-17.5698

>  <r_i_glide_ecoul>  (252) 
-4.27139

>  <r_i_glide_erotb>  (252) 
0

>  <r_i_glide_esite>  (252) 
0

>  <r_i_glide_emodel>  (252) 
-31.1326

>  <r_i_glide_energy>  (252) 
-21.8412

>  <r_i_glide_einternal>  (252) 
0

>  <r_i_glide_intrahb_reward>  (252) 
-0

>  <i_i_glide_confnum>  (252) 
1

>  <i_i_glide_posenum>  (252) 
9

>  <r_i_glide_eff_state_penalty>  (252) 
0

>  <ligand_id>  (252) 
77

>  <original_smiles>  (252) 
c1ccn2nccc2c1

>  <smiles>  (252) 
[H]c1nn2c([H])c([H])c([H])c([H])c2c1[H]

$$$$
77:0:1
     RDKit          3D

 15 16  0  0  1  0  0  0  0  0999 V2000
   -5.3816   -7.6650   -5.3874 C   0  0  0  0  0  0  0  0  0  0  0  0
   -6.0008   -8.0764   -6.5952 C   0  0  0  0  0  0  0  0  0  0  0  0
   -7.0570   -7.3645   -7.1196 C   0  0  0  0  0  0  0  0  0  0  0  0
   -7.4911   -6.2553   -6.4628 N   0  0  0  0  0  0  0  0  0  0  0  0
   -8.5185   -5.4412   -6.8655 N   0  0  0  0  0  0  0  0  0  0  0  0
   -8.5807   -4.5221   -5.9274 C   0  0  0  0  0  0  0  0  0  0  0  0
   -7.6125   -4.6805   -4.9035 C   0  0  0  0  0  0  0  0  0  0  0  0
   -6.9148   -5.8024   -5.2588 C   0  0  0  0  0  0  0  0  0  0  0  0
   -5.8323   -6.5477   -4.7205 C   0  0  0  0  0  0  0  0  0  0  0  0
   -4.5563   -8.2416   -4.9768 H   0  0  0  0  0  0  0  0  0  0  0  0
   -5.6480   -8.9611   -7.1155 H   0  0  0  0  0  0  0  0  0  0  0  0
   -7.5679   -7.6276   -8.0404 H   0  0  0  0  0  0  0  0  0  0  0  0
   -9.3296   -3.7445   -6.0005 H   0  0  0  0  0  0  0  0  0  0  0  0
   -7.4672   -4.0556   -4.0346 H   0  0  0  0  0  0  0  0  0  0  0  0
   -5.3864   -6.2382   -3.7838 H   0  0  0  0  0  0  0  0  0  0  0  0
  1  9  2  0
  1  2  1  0
  1 10  1  0
  2  3  2  0
  2 11  1  0
  3  4  1  0
  3 12  1  0
  4  8  1  0
  4  5  1  0
  5  6  2  0
  6  7  1  0
  6 13  1  0
  7  8  2  0
  7 14  1  0
  8  9  1  0
  9 15  1  0
M  END
>  <i_m_ct_stereo_status>  (253) 
1

>  <s_m_source_file>  (253) 
/var/tmp/pbs.5076255.sched01/tmpkd0wjm76/823hn9mkkz.sdf

>  <i_m_source_file_index>  (253) 
27

>  <i_lp_mmshare_version>  (253) 
48012

>  <i_f3d_flags>  (253) 
0

>  <s_epik_input>  (253) 
W2NIXTFbY0hdW2NIXVtjSF1jKG4xMilbY0hdW2NIXW4y

>  <s_epik_cmdline>  (253) 
J2VwaWtfcHl0aG9uJywgJy1waHQnLCAnMi4wJywgJy1waCcsICc3LjAnLCAnLXRuJywgJzgnLCAnLW1hJywgJzIwMCcsICctaW1hZScsICc8aW5maWxlLm1hZT4nLCAnLW9tYWUnLCAnPG91dGZpbGUubWFlPic=

>  <r_lp_tautomer_probability>  (253) 
1

>  <r_epik_Ionization_Penalty>  (253) 
1.33992e-06

>  <r_epik_Ionization_Penalty_Charging>  (253) 
0

>  <r_epik_Ionization_Penalty_Neutral>  (253) 
1.33992e-06

>  <r_epik_State_Penalty>  (253) 
-0

>  <r_epik_Charging_Adjusted_Penalty>  (253) 
0

>  <i_epik_Tot_Q>  (253) 
0

>  <i_epik_Tot_abs_Q>  (253) 
0

>  <s_lp_Force_Field>  (253) 
OPLS3e

>  <r_lp_Energy>  (253) 
11.7972

>  <b_lp_Chiralities_Consistent>  (253) 
1

>  <s_lp_Variant>  (253) 
77:0-1

>  <s_i_glide_gridfile>  (253) 
pfpi4k_grid

>  <i_i_glide_lignum>  (253) 
27

>  <i_i_glide_rotatable_bonds>  (253) 
0

>  <r_i_docking_score>  (253) 
-5.71052

>  <r_i_glide_ligand_efficiency>  (253) 
-0.634503

>  <r_i_glide_ligand_efficiency_sa>  (253) 
-1.31982

>  <r_i_glide_ligand_efficiency_ln>  (253) 
-1.78609

>  <r_i_glide_gscore>  (253) 
-5.71052

>  <r_i_glide_lipo>  (253) 
-2.06415

>  <r_i_glide_hbond>  (253) 
0

>  <r_i_glide_metal>  (253) 
-0

>  <r_i_glide_rewards>  (253) 
-2.65054

>  <r_i_glide_evdw>  (253) 
-18.3484

>  <r_i_glide_ecoul>  (253) 
-0.522777

>  <r_i_glide_erotb>  (253) 
0

>  <r_i_glide_esite>  (253) 
0

>  <r_i_glide_emodel>  (253) 
-26.3478

>  <r_i_glide_energy>  (253) 
-18.8712

>  <r_i_glide_einternal>  (253) 
0

>  <r_i_glide_intrahb_reward>  (253) 
-0

>  <i_i_glide_confnum>  (253) 
1

>  <i_i_glide_posenum>  (253) 
17

>  <r_i_glide_eff_state_penalty>  (253) 
0

>  <ligand_id>  (253) 
77

>  <original_smiles>  (253) 
c1ccn2nccc2c1

>  <smiles>  (253) 
[H]c1nn2c([H])c([H])c([H])c([H])c2c1[H]

$$$$
77:0:2
     RDKit          3D

 15 16  0  0  1  0  0  0  0  0999 V2000
   -6.5831   -4.2856   -4.9927 C   0  0  0  0  0  0  0  0  0  0  0  0
   -7.7330   -4.8478   -5.5970 C   0  0  0  0  0  0  0  0  0  0  0  0
   -7.7408   -6.1688   -5.9798 C   0  0  0  0  0  0  0  0  0  0  0  0
   -6.6362   -6.9278   -5.7560 N   0  0  0  0  0  0  0  0  0  0  0  0
   -6.5016   -8.2512   -6.0810 N   0  0  0  0  0  0  0  0  0  0  0  0
   -5.2829   -8.5496   -5.6911 C   0  0  0  0  0  0  0  0  0  0  0  0
   -4.5802   -7.4597   -5.1202 C   0  0  0  0  0  0  0  0  0  0  0  0
   -5.4665   -6.4181   -5.1567 C   0  0  0  0  0  0  0  0  0  0  0  0
   -5.4582   -5.0471   -4.7829 C   0  0  0  0  0  0  0  0  0  0  0  0
   -6.5752   -3.2410   -4.7009 H   0  0  0  0  0  0  0  0  0  0  0  0
   -8.6130   -4.2359   -5.7673 H   0  0  0  0  0  0  0  0  0  0  0  0
   -8.5836   -6.6562   -6.4571 H   0  0  0  0  0  0  0  0  0  0  0  0
   -4.9118   -9.5578   -5.8263 H   0  0  0  0  0  0  0  0  0  0  0  0
   -3.5716   -7.4815   -4.7394 H   0  0  0  0  0  0  0  0  0  0  0  0
   -4.5807   -4.5867   -4.3462 H   0  0  0  0  0  0  0  0  0  0  0  0
  1  9  2  0
  1  2  1  0
  1 10  1  0
  2  3  2  0
  2 11  1  0
  3  4  1  0
  3 12  1  0
  4  8  1  0
  4  5  1  0
  5  6  2  0
  6  7  1  0
  6 13  1  0
  7  8  2  0
  7 14  1  0
  8  9  1  0
  9 15  1  0
M  END
>  <i_m_ct_stereo_status>  (254) 
1

>  <s_m_source_file>  (254) 
/var/tmp/pbs.5076255.sched01/tmpkd0wjm76/823hn9mkkz.sdf

>  <i_m_source_file_index>  (254) 
27

>  <i_lp_mmshare_version>  (254) 
48012

>  <i_f3d_flags>  (254) 
0

>  <s_epik_input>  (254) 
W2NIXTFbY0hdW2NIXVtjSF1jKG4xMilbY0hdW2NIXW4y

>  <s_epik_cmdline>  (254) 
J2VwaWtfcHl0aG9uJywgJy1waHQnLCAnMi4wJywgJy1waCcsICc3LjAnLCAnLXRuJywgJzgnLCAnLW1hJywgJzIwMCcsICctaW1hZScsICc8aW5maWxlLm1hZT4nLCAnLW9tYWUnLCAnPG91dGZpbGUubWFlPic=

>  <r_lp_tautomer_probability>  (254) 
1

>  <r_epik_Ionization_Penalty>  (254) 
1.33992e-06

>  <r_epik_Ionization_Penalty_Charging>  (254) 
0

>  <r_epik_Ionization_Penalty_Neutral>  (254) 
1.33992e-06

>  <r_epik_State_Penalty>  (254) 
-0

>  <r_epik_Charging_Adjusted_Penalty>  (254) 
0

>  <i_epik_Tot_Q>  (254) 
0

>  <i_epik_Tot_abs_Q>  (254) 
0

>  <s_lp_Force_Field>  (254) 
OPLS3e

>  <r_lp_Energy>  (254) 
11.7972

>  <b_lp_Chiralities_Consistent>  (254) 
1

>  <s_lp_Variant>  (254) 
77:0-1

>  <s_i_glide_gridfile>  (254) 
pfpi4k_grid

>  <i_i_glide_lignum>  (254) 
27

>  <i_i_glide_rotatable_bonds>  (254) 
0

>  <r_i_docking_score>  (254) 
-5.44138

>  <r_i_glide_ligand_efficiency>  (254) 
-0.604598

>  <r_i_glide_ligand_efficiency_sa>  (254) 
-1.25761

>  <r_i_glide_ligand_efficiency_ln>  (254) 
-1.70191

>  <r_i_glide_gscore>  (254) 
-5.44138

>  <r_i_glide_lipo>  (254) 
-1.73248

>  <r_i_glide_hbond>  (254) 
0

>  <r_i_glide_metal>  (254) 
-0

>  <r_i_glide_rewards>  (254) 
-2.73662

>  <r_i_glide_evdw>  (254) 
-18.0251

>  <r_i_glide_ecoul>  (254) 
-0.473542

>  <r_i_glide_erotb>  (254) 
0

>  <r_i_glide_esite>  (254) 
0

>  <r_i_glide_emodel>  (254) 
-25.6177

>  <r_i_glide_energy>  (254) 
-18.4986

>  <r_i_glide_einternal>  (254) 
0

>  <r_i_glide_intrahb_reward>  (254) 
-0

>  <i_i_glide_confnum>  (254) 
1

>  <i_i_glide_posenum>  (254) 
31

>  <r_i_glide_eff_state_penalty>  (254) 
0

>  <ligand_id>  (254) 
77

>  <original_smiles>  (254) 
c1ccn2nccc2c1

>  <smiles>  (254) 
[H]c1nn2c([H])c([H])c([H])c([H])c2c1[H]

$$$$
78:0:0
     RDKit          3D

 79 83  0  0  1  0  0  0  0  0999 V2000
   -1.6360   -1.3062    5.3091 C   0  0  0  0  0  0  0  0  0  0  0  0
   -0.3292   -0.6631    5.8073 C   0  0  2  0  0  0  0  0  0  0  0  0
   -0.1641    0.7825    5.2844 C   0  0  0  0  0  0  0  0  0  0  0  0
    1.0277    0.7905    4.3183 C   0  0  0  0  0  0  0  0  0  0  0  0
    1.2782   -0.6900    4.0222 C   0  0  2  0  0  0  0  0  0  0  0  0
    0.9286   -1.4358    5.3337 C   0  0  1  0  0  0  0  0  0  0  0  0
    2.0436   -1.4396    6.4138 C   0  0  0  0  0  0  0  0  0  0  0  0
    2.2920   -2.7891    7.1249 C   0  0  0  0  0  0  0  0  0  0  0  0
    3.0127   -3.8879    6.2930 C   0  0  2  0  0  0  0  0  0  0  0  0
    3.5207   -5.0119    7.2221 C   0  0  0  0  0  0  0  0  0  0  0  0
    4.0813   -3.2504    5.6219 O   0  0  0  0  0  0  0  0  0  0  0  0
    4.7348   -4.2436    4.7157 O   0  0  0  0  0  0  0  0  0  0  0  0
    3.8606   -4.5696    3.6488 C   0  0  1  0  0  0  0  0  0  0  0  0
    3.5932   -3.3121    2.7447 C   0  0  1  0  0  0  0  0  0  0  0  0
    3.0306   -3.7377    1.5194 O   0  0  0  0  0  0  0  0  0  0  0  0
    3.8038   -4.6212    0.7388 C   0  0  1  0  0  0  0  0  0  0  0  0
    5.0230   -4.0625    0.3266 O   0  0  0  0  0  0  0  0  0  0  0  0
    5.0107   -3.3986   -0.9459 C   0  0  0  0  0  0  0  0  0  0  0  0
    4.0608   -2.1816   -0.9339 C   0  0  0  0  0  0  0  0  0  0  0  0
    2.6226   -2.6432   -1.0738 N   0  0  0  0  0  0  0  0  0  0  0  0
    4.0066   -5.9272    1.4985 C   0  0  1  0  0  0  0  0  0  0  0  0
    4.7730   -6.9086    0.5962 C   0  0  0  0  0  0  0  0  0  0  0  0
    4.6844   -5.5968    2.8351 C   0  0  2  0  0  0  0  0  0  0  0  0
    4.9610   -6.8359    3.7059 C   0  0  0  0  0  0  0  0  0  0  0  0
    3.7177   -7.5070    4.3135 C   0  0  0  0  0  0  0  0  0  0  0  0
    2.4075   -6.6829    4.3430 C   0  0  1  0  0  0  0  0  0  0  0  0
    1.4542   -7.1862    5.4424 C   0  0  0  0  0  0  0  0  0  0  0  0
    2.5394   -5.1343    4.2423 C   0  0  1  0  0  0  0  0  0  0  0  0
    2.0586   -4.4292    5.3934 O   0  0  0  0  0  0  0  0  0  0  0  0
    2.6737   -2.4851    3.4169 O   0  0  0  0  0  0  0  0  0  0  0  0
    2.5402   -1.0722    3.1736 C   0  0  0  0  0  0  0  0  0  0  0  0
    2.2212   -0.7527    1.7095 C   0  0  0  0  0  0  0  0  0  0  0  0
    3.8535   -0.3290    3.5556 C   0  0  0  0  0  0  0  0  0  0  0  0
   -1.6866   -1.3325    4.2208 H   0  0  0  0  0  0  0  0  0  0  0  0
   -2.5009   -0.7434    5.6561 H   0  0  0  0  0  0  0  0  0  0  0  0
   -1.7315   -2.3269    5.6769 H   0  0  0  0  0  0  0  0  0  0  0  0
   -0.3732   -0.6527    6.8935 H   0  0  0  0  0  0  0  0  0  0  0  0
   -1.0632    1.1319    4.7744 H   0  0  0  0  0  0  0  0  0  0  0  0
    0.0327    1.4753    6.1008 H   0  0  0  0  0  0  0  0  0  0  0  0
    0.8270    1.3630    3.4112 H   0  0  0  0  0  0  0  0  0  0  0  0
    1.8964    1.2338    4.8045 H   0  0  0  0  0  0  0  0  0  0  0  0
    0.4459   -0.9793    3.3823 H   0  0  0  0  0  0  0  0  0  0  0  0
    0.6636   -2.4639    5.0827 H   0  0  0  0  0  0  0  0  0  0  0  0
    2.9826   -1.0775    6.0210 H   0  0  0  0  0  0  0  0  0  0  0  0
    1.8058   -0.6976    7.1721 H   0  0  0  0  0  0  0  0  0  0  0  0
    2.9068   -2.5775    7.9992 H   0  0  0  0  0  0  0  0  0  0  0  0
    1.3571   -3.1828    7.5179 H   0  0  0  0  0  0  0  0  0  0  0  0
    3.9982   -5.8264    6.6775 H   0  0  0  0  0  0  0  0  0  0  0  0
    2.7045   -5.4527    7.7904 H   0  0  0  0  0  0  0  0  0  0  0  0
    4.2429   -4.6570    7.9537 H   0  0  0  0  0  0  0  0  0  0  0  0
    4.5187   -2.7768    2.5323 H   0  0  0  0  0  0  0  0  0  0  0  0
    3.2463   -4.9249   -0.1511 H   0  0  0  0  0  0  0  0  0  0  0  0
    6.0102   -2.9695   -1.0685 H   0  0  0  0  0  0  0  0  0  0  0  0
    4.8410   -4.0838   -1.7882 H   0  0  0  0  0  0  0  0  0  0  0  0
    4.3191   -1.7131    0.0138 H   0  0  0  0  0  0  0  0  0  0  0  0
    4.2657   -1.4549   -1.7248 H   0  0  0  0  0  0  0  0  0  0  0  0
    1.9568   -1.8496   -1.0085 H   0  0  0  0  0  0  0  0  0  0  0  0
    2.4454   -3.2503   -0.3178 H   0  0  0  0  0  0  0  0  0  0  0  0
    3.0094   -6.3328    1.6594 H   0  0  0  0  0  0  0  0  0  0  0  0
    5.8014   -6.5849    0.4381 H   0  0  0  0  0  0  0  0  0  0  0  0
    4.3019   -7.0108   -0.3816 H   0  0  0  0  0  0  0  0  0  0  0  0
    4.7988   -7.9051    1.0335 H   0  0  0  0  0  0  0  0  0  0  0  0
    5.6484   -5.1401    2.5971 H   0  0  0  0  0  0  0  0  0  0  0  0
    5.5705   -7.5522    3.1557 H   0  0  0  0  0  0  0  0  0  0  0  0
    5.5949   -6.5152    4.5291 H   0  0  0  0  0  0  0  0  0  0  0  0
    3.5181   -8.3987    3.7208 H   0  0  0  0  0  0  0  0  0  0  0  0
    3.9782   -7.8817    5.3051 H   0  0  0  0  0  0  0  0  0  0  0  0
    1.8954   -6.9661    3.4206 H   0  0  0  0  0  0  0  0  0  0  0  0
    1.8813   -7.1013    6.4405 H   0  0  0  0  0  0  0  0  0  0  0  0
    1.2273   -8.2436    5.2930 H   0  0  0  0  0  0  0  0  0  0  0  0
    0.5099   -6.6428    5.4341 H   0  0  0  0  0  0  0  0  0  0  0  0
    1.7750   -4.8800    3.5143 H   0  0  0  0  0  0  0  0  0  0  0  0
    1.8579    0.2695    1.5817 H   0  0  0  0  0  0  0  0  0  0  0  0
    1.4447   -1.4172    1.3434 H   0  0  0  0  0  0  0  0  0  0  0  0
    3.1235   -0.8630    1.1579 H   0  0  0  0  0  0  0  0  0  0  0  0
    3.7320    0.7563    3.5730 H   0  0  0  0  0  0  0  0  0  0  0  0
    4.6312   -0.5133    2.8161 H   0  0  0  0  0  0  0  0  0  0  0  0
    4.2980   -0.6310    4.5034 H   0  0  0  0  0  0  0  0  0  0  0  0
    2.4672   -3.1066   -1.9447 H   0  0  0  0  0  0  0  0  0  0  0  0
  1  2  1  0
  1 34  1  0
  1 35  1  0
  1 36  1  0
  2  6  1  0
  2  3  1  0
  2 37  1  1
  3  4  1  0
  3 38  1  0
  3 39  1  0
  4  5  1  0
  4 40  1  0
  4 41  1  0
  5 31  1  0
  5  6  1  0
  5 42  1  6
  6  7  1  0
  6 43  1  6
  7  8  1  0
  7 44  1  0
  7 45  1  0
  8  9  1  0
  8 46  1  0
  8 47  1  0
  9 29  1  0
  9 10  1  1
  9 11  1  0
 10 48  1  0
 10 49  1  0
 10 50  1  0
 11 12  1  0
 13 12  1  1
 13 23  1  0
 13 28  1  0
 13 14  1  0
 14 15  1  0
 14 30  1  0
 14 51  1  6
 15 16  1  0
 16 17  1  0
 16 21  1  0
 16 52  1  6
 17 18  1  0
 18 19  1  0
 18 53  1  0
 18 54  1  0
 19 20  1  0
 19 55  1  0
 19 56  1  0
 20 57  1  0
 20 58  1  0
 20 79  1  0
 21 22  1  0
 21 23  1  0
 21 59  1  1
 22 60  1  0
 22 61  1  0
 22 62  1  0
 23 24  1  0
 23 63  1  6
 24 25  1  0
 24 64  1  0
 24 65  1  0
 25 26  1  0
 25 66  1  0
 25 67  1  0
 26 27  1  0
 26 28  1  0
 26 68  1  6
 27 69  1  0
 27 70  1  0
 27 71  1  0
 28 29  1  0
 28 72  1  6
 30 31  1  0
 31 32  1  0
 31 33  1  0
 32 73  1  0
 32 74  1  0
 32 75  1  0
 33 76  1  0
 33 77  1  0
 33 78  1  0
M  CHG  1  20   1
M  END
>  <i_m_ct_stereo_status>  (255) 
1

>  <s_m_source_file>  (255) 
/var/tmp/pbs.5076255.sched01/tmpkd0wjm76/823hn9mkkz.sdf

>  <i_m_source_file_index>  (255) 
28

>  <i_lp_mmshare_version>  (255) 
48012

>  <i_f3d_flags>  (255) 
0

>  <s_epik_input>  (255) 
W0NIM11bQ0BASF0xW0NIMl1bQ0gyXVtDQEBIXShDKE8yKShbQ0gzXSlbQ0gzXSlbQ0BIXTFbQ0gyXVtDSDJdW0NAXShbQ0gzXSkoT08zKU9bQ0BASF00W0NASF0oW0NIM10pW0NIMl1bQ0gyXVtDQEhdNVtDQEhdKFtDSDNdKVtDQEBIXShPW0NAQEhdMltDQEBdMzQ1KU9bQ0gyXVtDSDJdW05IMl0=

>  <s_epik_cmdline>  (255) 
J2VwaWtfcHl0aG9uJywgJy1waHQnLCAnMi4wJywgJy1waCcsICc3LjAnLCAnLXRuJywgJzgnLCAnLW1hJywgJzIwMCcsICctaW1hZScsICc8aW5maWxlLm1hZT4nLCAnLW9tYWUnLCAnPG91dGZpbGUubWFlPic=

>  <r_epik_Ionization_Penalty>  (255) 
0.00267472

>  <r_epik_Ionization_Penalty_Charging>  (255) 
0.00267472

>  <r_epik_Ionization_Penalty_Neutral>  (255) 
2.5496e-13

>  <r_epik_State_Penalty>  (255) 
0.00186343

>  <r_epik_Charging_Adjusted_Penalty>  (255) 
0.00453815

>  <i_epik_Tot_Q>  (255) 
1

>  <i_epik_Tot_abs_Q>  (255) 
1

>  <s_epik_Chemistry_Notes>  (255) 
This compound contains an acetal/aminal-like group ( X-CH(R)-Y where X, Y are N, S, or O) that may be acid/base labile, releasing an aldehyde.

>  <s_lp_Force_Field>  (255) 
OPLS3e

>  <r_lp_Energy>  (255) 
58.049

>  <b_lp_Chiralities_Consistent>  (255) 
1

>  <s_lp_Variant>  (255) 
78:0-1

>  <s_i_glide_gridfile>  (255) 
pfpi4k_grid

>  <i_i_glide_lignum>  (255) 
28

>  <i_i_glide_rotatable_bonds>  (255) 
3

>  <r_i_docking_score>  (255) 
-2.41914

>  <r_i_glide_ligand_efficiency>  (255) 
-0.0733073

>  <r_i_glide_ligand_efficiency_sa>  (255) 
-0.235136

>  <r_i_glide_ligand_efficiency_ln>  (255) 
-0.538004

>  <r_i_glide_gscore>  (255) 
-2.41914

>  <r_i_glide_lipo>  (255) 
-0.219152

>  <r_i_glide_hbond>  (255) 
-0.185636

>  <r_i_glide_metal>  (255) 
-0

>  <r_i_glide_rewards>  (255) 
-0.226514

>  <r_i_glide_evdw>  (255) 
-16.511

>  <r_i_glide_ecoul>  (255) 
-7.24795

>  <r_i_glide_erotb>  (255) 
0.183869

>  <r_i_glide_esite>  (255) 
-0.058966

>  <r_i_glide_emodel>  (255) 
-22.9002

>  <r_i_glide_energy>  (255) 
-23.7589

>  <r_i_glide_einternal>  (255) 
3.87308

>  <r_i_glide_intrahb_reward>  (255) 
-0

>  <i_i_glide_confnum>  (255) 
2

>  <i_i_glide_posenum>  (255) 
13

>  <r_i_glide_eff_state_penalty>  (255) 
0

>  <ligand_id>  (255) 
78

>  <original_smiles>  (255) 
CC1CCC2C1CCC1(C)OOC34C(OC(OCCN)C(C)C3CCC(C)C4O1)OC2(C)C

>  <smiles>  (255) 
[H]C([H])([H])C12OOC34C([H])(OC([H])(OC([H])([H])C([H])([H])[N+]([H])([H])[H])C([H])(C([H])([H])[H])C3([H])C([H])([H])C([H])([H])C([H])(C([H])([H])[H])C4([H])O1)OC(C([H])([H])[H])(C([H])([H])[H])C1([H])C([H])([H])C([H])([H])C([H])(C([H])([H])[H])C1([H])C([H])([H])C2([H])[H]

$$$$
78:0:1
     RDKit          3D

 79 83  0  0  1  0  0  0  0  0999 V2000
   -1.8844    2.3408    6.8107 C   0  0  0  0  0  0  0  0  0  0  0  0
   -0.8678    3.2358    6.0786 C   0  0  2  0  0  0  0  0  0  0  0  0
   -1.4649    3.8450    4.7907 C   0  0  0  0  0  0  0  0  0  0  0  0
   -0.7081    3.2322    3.6016 C   0  0  0  0  0  0  0  0  0  0  0  0
    0.0264    2.0236    4.1893 C   0  0  2  0  0  0  0  0  0  0  0  0
    0.3992    2.4636    5.6305 C   0  0  1  0  0  0  0  0  0  0  0  0
    1.6724    3.3448    5.7694 C   0  0  0  0  0  0  0  0  0  0  0  0
    2.6437    2.9639    6.9206 C   0  0  0  0  0  0  0  0  0  0  0  0
    3.4798    1.6594    6.7238 C   0  0  2  0  0  0  0  0  0  0  0  0
    4.6432    1.6417    7.7311 C   0  0  0  0  0  0  0  0  0  0  0  0
    3.9566    1.7148    5.3943 O   0  0  0  0  0  0  0  0  0  0  0  0
    4.6827    0.4069    5.1037 O   0  0  0  0  0  0  0  0  0  0  0  0
    3.7218   -0.6413    5.0835 C   0  0  1  0  0  0  0  0  0  0  0  0
    2.7258   -0.4768    3.8758 C   0  0  1  0  0  0  0  0  0  0  0  0
    2.0466   -1.6876    3.6408 O   0  0  0  0  0  0  0  0  0  0  0  0
    2.8535   -2.7729    3.2816 C   0  0  1  0  0  0  0  0  0  0  0  0
    3.6123   -2.5526    2.1350 O   0  0  0  0  0  0  0  0  0  0  0  0
    2.8612   -2.6074    0.9305 C   0  0  0  0  0  0  0  0  0  0  0  0
    3.7544   -2.2214   -0.2707 C   0  0  0  0  0  0  0  0  0  0  0  0
    3.0531   -2.2596   -1.5179 N   0  0  0  0  0  0  0  0  0  0  0  0
    3.7738   -3.1217    4.4873 C   0  0  1  0  0  0  0  0  0  0  0  0
    4.5938   -4.3879    4.1593 C   0  0  0  0  0  0  0  0  0  0  0  0
    4.6186   -1.8727    4.8000 C   0  0  2  0  0  0  0  0  0  0  0  0
    5.6192   -2.0592    5.9590 C   0  0  0  0  0  0  0  0  0  0  0  0
    5.0046   -2.1570    7.3634 C   0  0  0  0  0  0  0  0  0  0  0  0
    3.5377   -1.6950    7.5246 C   0  0  1  0  0  0  0  0  0  0  0  0
    3.2232   -1.3024    8.9790 C   0  0  0  0  0  0  0  0  0  0  0  0
    2.9820   -0.7061    6.4538 C   0  0  1  0  0  0  0  0  0  0  0  0
    2.6068    0.5718    6.9719 O   0  0  0  0  0  0  0  0  0  0  0  0
    1.8165    0.5118    4.2482 O   0  0  0  0  0  0  0  0  0  0  0  0
    1.0619    1.2624    3.2899 C   0  0  0  0  0  0  0  0  0  0  0  0
    0.2848    0.3283    2.3434 C   0  0  0  0  0  0  0  0  0  0  0  0
    1.9950    2.1473    2.4273 C   0  0  0  0  0  0  0  0  0  0  0  0
   -2.2261    1.5195    6.1825 H   0  0  0  0  0  0  0  0  0  0  0  0
   -2.7608    2.9165    7.1106 H   0  0  0  0  0  0  0  0  0  0  0  0
   -1.4470    1.9167    7.7154 H   0  0  0  0  0  0  0  0  0  0  0  0
   -0.6065    4.0350    6.7734 H   0  0  0  0  0  0  0  0  0  0  0  0
   -2.5347    3.6451    4.7185 H   0  0  0  0  0  0  0  0  0  0  0  0
   -1.3368    4.9266    4.7860 H   0  0  0  0  0  0  0  0  0  0  0  0
   -1.3744    2.9589    2.7824 H   0  0  0  0  0  0  0  0  0  0  0  0
    0.0005    3.9685    3.2208 H   0  0  0  0  0  0  0  0  0  0  0  0
   -0.7597    1.2874    4.3631 H   0  0  0  0  0  0  0  0  0  0  0  0
    0.5148    1.5731    6.2476 H   0  0  0  0  0  0  0  0  0  0  0  0
    2.2304    3.3779    4.8465 H   0  0  0  0  0  0  0  0  0  0  0  0
    1.3779    4.3844    5.9101 H   0  0  0  0  0  0  0  0  0  0  0  0
    3.3387    3.7984    7.0245 H   0  0  0  0  0  0  0  0  0  0  0  0
    2.1003    2.9173    7.8648 H   0  0  0  0  0  0  0  0  0  0  0  0
    5.2305    0.7279    7.6476 H   0  0  0  0  0  0  0  0  0  0  0  0
    4.2625    1.6964    8.7511 H   0  0  0  0  0  0  0  0  0  0  0  0
    5.3228    2.4829    7.5939 H   0  0  0  0  0  0  0  0  0  0  0  0
    3.2819   -0.1703    2.9868 H   0  0  0  0  0  0  0  0  0  0  0  0
    2.1916   -3.6251    3.1079 H   0  0  0  0  0  0  0  0  0  0  0  0
    2.4532   -3.6097    0.7752 H   0  0  0  0  0  0  0  0  0  0  0  0
    2.0132   -1.9284    0.9801 H   0  0  0  0  0  0  0  0  0  0  0  0
    4.1458   -1.2095   -0.1037 H   0  0  0  0  0  0  0  0  0  0  0  0
    4.6223   -2.8913   -0.3136 H   0  0  0  0  0  0  0  0  0  0  0  0
    3.6250   -1.9633   -2.2945 H   0  0  0  0  0  0  0  0  0  0  0  0
    2.2356   -1.6283   -1.4657 H   0  0  0  0  0  0  0  0  0  0  0  0
    3.1199   -3.3592    5.3152 H   0  0  0  0  0  0  0  0  0  0  0  0
    5.3150   -4.2031    3.3625 H   0  0  0  0  0  0  0  0  0  0  0  0
    3.9511   -5.2152    3.8548 H   0  0  0  0  0  0  0  0  0  0  0  0
    5.1467   -4.7256    5.0385 H   0  0  0  0  0  0  0  0  0  0  0  0
    5.2090   -1.6635    3.9100 H   0  0  0  0  0  0  0  0  0  0  0  0
    6.2839   -2.9018    5.7760 H   0  0  0  0  0  0  0  0  0  0  0  0
    6.2810   -1.1881    5.9694 H   0  0  0  0  0  0  0  0  0  0  0  0
    5.0254   -3.2165    7.6522 H   0  0  0  0  0  0  0  0  0  0  0  0
    5.6487   -1.6675    8.0885 H   0  0  0  0  0  0  0  0  0  0  0  0
    2.9545   -2.5947    7.3685 H   0  0  0  0  0  0  0  0  0  0  0  0
    3.8471   -0.4790    9.3211 H   0  0  0  0  0  0  0  0  0  0  0  0
    3.4135   -2.1418    9.6483 H   0  0  0  0  0  0  0  0  0  0  0  0
    2.1802   -1.0074    9.1019 H   0  0  0  0  0  0  0  0  0  0  0  0
    1.9997   -1.1311    6.2158 H   0  0  0  0  0  0  0  0  0  0  0  0
   -0.4267    0.8767    1.7214 H   0  0  0  0  0  0  0  0  0  0  0  0
   -0.2631   -0.4261    2.9021 H   0  0  0  0  0  0  0  0  0  0  0  0
    0.9518   -0.1870    1.6609 H   0  0  0  0  0  0  0  0  0  0  0  0
    1.4375    2.8851    1.8516 H   0  0  0  0  0  0  0  0  0  0  0  0
    2.5365    1.5516    1.6927 H   0  0  0  0  0  0  0  0  0  0  0  0
    2.7567    2.6714    2.9946 H   0  0  0  0  0  0  0  0  0  0  0  0
    2.6937   -3.1878   -1.7268 H   0  0  0  0  0  0  0  0  0  0  0  0
  1  2  1  0
  1 34  1  0
  1 35  1  0
  1 36  1  0
  2  6  1  0
  2  3  1  0
  2 37  1  1
  3  4  1  0
  3 38  1  0
  3 39  1  0
  4  5  1  0
  4 40  1  0
  4 41  1  0
  5 31  1  0
  5  6  1  0
  5 42  1  1
  6  7  1  0
  6 43  1  1
  7  8  1  0
  7 44  1  0
  7 45  1  0
  8  9  1  0
  8 46  1  0
  8 47  1  0
  9 29  1  0
  9 10  1  1
  9 11  1  0
 10 48  1  0
 10 49  1  0
 10 50  1  0
 11 12  1  0
 13 12  1  1
 13 23  1  0
 13 28  1  0
 13 14  1  0
 14 15  1  0
 14 30  1  0
 14 51  1  6
 15 16  1  0
 16 17  1  0
 16 21  1  0
 16 52  1  6
 17 18  1  0
 18 19  1  0
 18 53  1  0
 18 54  1  0
 19 20  1  0
 19 55  1  0
 19 56  1  0
 20 57  1  0
 20 58  1  0
 20 79  1  0
 21 22  1  0
 21 23  1  0
 21 59  1  1
 22 60  1  0
 22 61  1  0
 22 62  1  0
 23 24  1  0
 23 63  1  6
 24 25  1  0
 24 64  1  0
 24 65  1  0
 25 26  1  0
 25 66  1  0
 25 67  1  0
 26 27  1  0
 26 28  1  0
 26 68  1  6
 27 69  1  0
 27 70  1  0
 27 71  1  0
 28 29  1  0
 28 72  1  6
 30 31  1  0
 31 32  1  0
 31 33  1  0
 32 73  1  0
 32 74  1  0
 32 75  1  0
 33 76  1  0
 33 77  1  0
 33 78  1  0
M  CHG  1  20   1
M  END
>  <i_m_ct_stereo_status>  (256) 
1

>  <s_m_source_file>  (256) 
/var/tmp/pbs.5076255.sched01/tmpkd0wjm76/823hn9mkkz.sdf

>  <i_m_source_file_index>  (256) 
28

>  <i_lp_mmshare_version>  (256) 
48012

>  <i_f3d_flags>  (256) 
0

>  <s_epik_input>  (256) 
W0NIM11bQ0BASF0xW0NIMl1bQ0gyXVtDQEBIXShDKE8yKShbQ0gzXSlbQ0gzXSlbQ0BIXTFbQ0gyXVtDSDJdW0NAXShbQ0gzXSkoT08zKU9bQ0BASF00W0NASF0oW0NIM10pW0NIMl1bQ0gyXVtDQEhdNVtDQEhdKFtDSDNdKVtDQEBIXShPW0NAQEhdMltDQEBdMzQ1KU9bQ0gyXVtDSDJdW05IMl0=

>  <s_epik_cmdline>  (256) 
J2VwaWtfcHl0aG9uJywgJy1waHQnLCAnMi4wJywgJy1waCcsICc3LjAnLCAnLXRuJywgJzgnLCAnLW1hJywgJzIwMCcsICctaW1hZScsICc8aW5maWxlLm1hZT4nLCAnLW9tYWUnLCAnPG91dGZpbGUubWFlPic=

>  <r_epik_Ionization_Penalty>  (256) 
0.00267472

>  <r_epik_Ionization_Penalty_Charging>  (256) 
0.00267472

>  <r_epik_Ionization_Penalty_Neutral>  (256) 
2.5496e-13

>  <r_epik_State_Penalty>  (256) 
0.00186343

>  <r_epik_Charging_Adjusted_Penalty>  (256) 
0.00453815

>  <i_epik_Tot_Q>  (256) 
1

>  <i_epik_Tot_abs_Q>  (256) 
1

>  <s_epik_Chemistry_Notes>  (256) 
This compound contains an acetal/aminal-like group ( X-CH(R)-Y where X, Y are N, S, or O) that may be acid/base labile, releasing an aldehyde.

>  <s_lp_Force_Field>  (256) 
OPLS3e

>  <r_lp_Energy>  (256) 
58.049

>  <b_lp_Chiralities_Consistent>  (256) 
1

>  <s_lp_Variant>  (256) 
78:0-1

>  <s_i_glide_gridfile>  (256) 
pfpi4k_grid

>  <i_i_glide_lignum>  (256) 
28

>  <i_i_glide_rotatable_bonds>  (256) 
3

>  <r_i_docking_score>  (256) 
-2.15447

>  <r_i_glide_ligand_efficiency>  (256) 
-0.0652869

>  <r_i_glide_ligand_efficiency_sa>  (256) 
-0.20941

>  <r_i_glide_ligand_efficiency_ln>  (256) 
-0.479143

>  <r_i_glide_gscore>  (256) 
-2.15447

>  <r_i_glide_lipo>  (256) 
-0.0436319

>  <r_i_glide_hbond>  (256) 
-0.2

>  <r_i_glide_metal>  (256) 
-0

>  <r_i_glide_rewards>  (256) 
-0.213774

>  <r_i_glide_evdw>  (256) 
-16.827

>  <r_i_glide_ecoul>  (256) 
-6.41535

>  <r_i_glide_erotb>  (256) 
0.183869

>  <r_i_glide_esite>  (256) 
-0.0772795

>  <r_i_glide_emodel>  (256) 
-26.7369

>  <r_i_glide_energy>  (256) 
-23.2423

>  <r_i_glide_einternal>  (256) 
0.138755

>  <r_i_glide_intrahb_reward>  (256) 
-0

>  <i_i_glide_confnum>  (256) 
1

>  <i_i_glide_posenum>  (256) 
27

>  <r_i_glide_eff_state_penalty>  (256) 
0

>  <ligand_id>  (256) 
78

>  <original_smiles>  (256) 
CC1CCC2C1CCC1(C)OOC34C(OC(OCCN)C(C)C3CCC(C)C4O1)OC2(C)C

>  <smiles>  (256) 
[H]C([H])([H])C12OOC34C([H])(OC([H])(OC([H])([H])C([H])([H])[N+]([H])([H])[H])C([H])(C([H])([H])[H])C3([H])C([H])([H])C([H])([H])C([H])(C([H])([H])[H])C4([H])O1)OC(C([H])([H])[H])(C([H])([H])[H])C1([H])C([H])([H])C([H])([H])C([H])(C([H])([H])[H])C1([H])C([H])([H])C2([H])[H]

$$$$
79:0:0
     RDKit          3D

 47 51  0  0  1  0  0  0  0  0999 V2000
    4.0181   -5.9320    2.5867 C   0  0  0  0  0  0  0  0  0  0  0  0
    3.9181   -4.7610    1.6041 C   0  0  2  0  0  0  0  0  0  0  0  0
    2.6535   -4.8767    0.7346 C   0  0  0  0  0  0  0  0  0  0  0  0
    2.5187   -3.7145   -0.2607 C   0  0  0  0  0  0  0  0  0  0  0  0
    3.7279   -3.6797   -1.2228 C   0  0  1  0  0  0  0  0  0  0  0  0
    3.5250   -2.8126   -2.5234 C   0  0  1  0  0  0  0  0  0  0  0  0
    2.4341   -3.3720   -3.4711 C   0  0  0  0  0  0  0  0  0  0  0  0
    3.1061   -1.3741   -2.2420 C   0  0  1  0  0  0  0  0  0  0  0  0
    3.5398   -0.9337   -0.9932 O   0  0  0  0  0  0  0  0  0  0  0  0
    3.7166   -0.5523   -3.3171 C   0  0  0  0  0  0  0  0  0  0  0  0
    4.5653   -1.2974   -4.0150 C   0  0  0  0  0  0  0  0  0  0  0  0
    4.7968   -2.6441   -3.3904 C   0  0  1  0  0  0  0  0  0  0  0  0
    6.1162   -2.6547   -2.5733 C   0  0  0  0  0  0  0  0  0  0  0  0
    6.1857   -3.6732   -1.4815 C   0  0  1  0  0  0  0  0  0  0  0  0
    7.4988   -3.5953   -0.8872 O   0  0  0  0  0  0  0  0  0  0  0  0
    7.6321   -3.6869    0.4615 C   0  0  0  0  0  0  0  0  0  0  0  0
    8.7417   -3.8840    0.9466 O   0  0  0  0  0  0  0  0  0  0  0  0
    6.2989   -3.5650    1.2244 C   0  0  1  0  0  0  0  0  0  0  0  0
    5.3765   -2.4610    0.6367 C   0  0  1  0  0  0  0  0  0  0  0  0
    5.9816   -1.2046    0.3370 O   0  0  0  0  0  0  0  0  0  0  0  0
    5.0743   -3.5382   -0.4638 C   0  0  1  0  0  0  0  0  0  0  0  0
    5.1931   -4.5384    0.7374 C   0  0  2  0  0  0  0  0  0  0  0  0
    5.6415   -5.8346    0.3514 O   0  0  0  0  0  0  0  0  0  0  0  0
    4.0228   -6.9010    2.0860 H   0  0  0  0  0  0  0  0  0  0  0  0
    3.1606   -5.9048    3.2490 H   0  0  0  0  0  0  0  0  0  0  0  0
    4.9232   -5.8527    3.1843 H   0  0  0  0  0  0  0  0  0  0  0  0
    3.7544   -3.8867    2.2496 H   0  0  0  0  0  0  0  0  0  0  0  0
    2.6325   -5.8156    0.1753 H   0  0  0  0  0  0  0  0  0  0  0  0
    1.7883   -4.8654    1.3842 H   0  0  0  0  0  0  0  0  0  0  0  0
    1.6103   -3.8384   -0.8551 H   0  0  0  0  0  0  0  0  0  0  0  0
    2.4056   -2.7731    0.2967 H   0  0  0  0  0  0  0  0  0  0  0  0
    3.8219   -4.6659   -1.5897 H   0  0  0  0  0  0  0  0  0  0  0  0
    2.2983   -2.6943   -4.3281 H   0  0  0  0  0  0  0  0  0  0  0  0
    1.4663   -3.4430   -2.9552 H   0  0  0  0  0  0  0  0  0  0  0  0
    2.7658   -4.3376   -3.8588 H   0  0  0  0  0  0  0  0  0  0  0  0
    2.0418   -1.2522   -2.3447 H   0  0  0  0  0  0  0  0  0  0  0  0
    2.7535   -0.6679   -0.5403 H   0  0  0  0  0  0  0  0  0  0  0  0
    3.3707    0.4168   -3.6261 H   0  0  0  0  0  0  0  0  0  0  0  0
    5.0212   -0.9803   -4.9283 H   0  0  0  0  0  0  0  0  0  0  0  0
    4.8184   -3.4227   -4.1553 H   0  0  0  0  0  0  0  0  0  0  0  0
    6.9493   -2.8888   -3.2315 H   0  0  0  0  0  0  0  0  0  0  0  0
    6.2638   -1.6378   -2.1241 H   0  0  0  0  0  0  0  0  0  0  0  0
    5.9710   -4.6225   -1.9690 H   0  0  0  0  0  0  0  0  0  0  0  0
    6.3686   -3.5200    2.3392 H   0  0  0  0  0  0  0  0  0  0  0  0
    4.5242   -2.2110    1.2541 H   0  0  0  0  0  0  0  0  0  0  0  0
    5.2817   -0.6661   -0.0169 H   0  0  0  0  0  0  0  0  0  0  0  0
    5.0113   -6.1078   -0.2875 H   0  0  0  0  0  0  0  0  0  0  0  0
  1  2  1  0
  1 24  1  0
  1 25  1  0
  1 26  1  0
  2 22  1  0
  2  3  1  0
  2 27  1  1
  3  4  1  0
  3 28  1  0
  3 29  1  0
  4  5  1  0
  4 30  1  0
  4 31  1  0
  5 21  1  0
  5  6  1  0
  5 32  1  6
  6 12  1  0
  6  7  1  6
  6  8  1  0
  7 33  1  0
  7 34  1  0
  7 35  1  0
  8  9  1  0
  8 10  1  0
  8 36  1  1
  9 37  1  0
 10 11  2  0
 10 38  1  0
 11 12  1  0
 11 39  1  0
 12 13  1  0
 12 40  1  6
 13 14  1  0
 13 41  1  0
 13 42  1  0
 14 21  1  0
 14 15  1  0
 14 43  1  6
 15 16  1  0
 16 17  2  0
 16 18  1  0
 18 22  1  0
 18 19  1  0
 18 44  1  1
 19 20  1  0
 19 21  1  0
 19 45  1  1
 20 46  1  0
 21 22  1  1
 22 23  1  6
 23 47  1  0
M  END
>  <i_m_ct_stereo_status>  (257) 
1

>  <s_m_source_file>  (257) 
/var/tmp/pbs.5076255.sched01/tmpkd0wjm76/823hn9mkkz.sdf

>  <i_m_source_file_index>  (257) 
29

>  <i_lp_mmshare_version>  (257) 
48012

>  <i_f3d_flags>  (257) 
0

>  <s_epik_input>  (257) 
W0NIMl0xW0NIMl1bQ0BASF0oW0NIM10pW0NAXTIoW09IXSlbQ0BIXShbQ0BIXTNbT0hdKUMoPU8pT1tDQEBIXTRbQ0gyXVtDQEBIXShbQ0BdNShbQ0BIXTFbQ0BdMjM0KVtDSDNdKVtDSF09W0NIXVtDQEBIXTVbT0hd

>  <s_epik_cmdline>  (257) 
J2VwaWtfcHl0aG9uJywgJy1waHQnLCAnMi4wJywgJy1waCcsICc3LjAnLCAnLXRuJywgJzgnLCAnLW1hJywgJzIwMCcsICctaW1hZScsICc8aW5maWxlLm1hZT4nLCAnLW9tYWUnLCAnPG91dGZpbGUubWFlPic=

>  <r_lp_tautomer_probability>  (257) 
1

>  <r_epik_Ionization_Penalty>  (257) 
2.13619e-07

>  <r_epik_Ionization_Penalty_Charging>  (257) 
0

>  <r_epik_Ionization_Penalty_Neutral>  (257) 
2.13619e-07

>  <r_epik_State_Penalty>  (257) 
-0

>  <r_epik_Charging_Adjusted_Penalty>  (257) 
0

>  <i_epik_Tot_Q>  (257) 
0

>  <i_epik_Tot_abs_Q>  (257) 
0

>  <s_epik_Chemistry_Notes>  (257) 
This compound has an ester and may undergo hydrolysis at high or low pH.

>  <s_lp_Force_Field>  (257) 
OPLS3e

>  <r_lp_Energy>  (257) 
58.9247

>  <b_lp_Chiralities_Consistent>  (257) 
1

>  <s_lp_Variant>  (257) 
79:0-1

>  <s_i_glide_gridfile>  (257) 
pfpi4k_grid

>  <i_i_glide_lignum>  (257) 
29

>  <i_i_glide_rotatable_bonds>  (257) 
3

>  <r_i_docking_score>  (257) 
-3.92985

>  <r_i_glide_ligand_efficiency>  (257) 
-0.170863

>  <r_i_glide_ligand_efficiency_sa>  (257) 
-0.485912

>  <r_i_glide_ligand_efficiency_ln>  (257) 
-0.950273

>  <r_i_glide_gscore>  (257) 
-3.92985

>  <r_i_glide_lipo>  (257) 
-0.905093

>  <r_i_glide_hbond>  (257) 
0

>  <r_i_glide_metal>  (257) 
-0

>  <r_i_glide_rewards>  (257) 
-1.96437

>  <r_i_glide_evdw>  (257) 
-4.76917

>  <r_i_glide_ecoul>  (257) 
-5.47954

>  <r_i_glide_erotb>  (257) 
0

>  <r_i_glide_esite>  (257) 
0

>  <r_i_glide_emodel>  (257) 
-14.1237

>  <r_i_glide_energy>  (257) 
-10.2487

>  <r_i_glide_einternal>  (257) 
2.79641

>  <r_i_glide_intrahb_reward>  (257) 
-0.5

>  <i_i_glide_confnum>  (257) 
2

>  <i_i_glide_posenum>  (257) 
35

>  <r_i_glide_eff_state_penalty>  (257) 
0

>  <ligand_id>  (257) 
79

>  <original_smiles>  (257) 
CC1CCC2C3(C)C(O)C=CC3CC3OC(=O)C4C(O)C32C14O

>  <smiles>  (257) 
[H]OC1([H])C([H])=C([H])C2([H])C([H])([H])C3([H])OC(=O)C4([H])C([H])(O[H])C35C([H])(C([H])([H])C([H])([H])C([H])(C([H])([H])[H])C45O[H])C12C([H])([H])[H]

$$$$
79:0:1
     RDKit          3D

 47 51  0  0  1  0  0  0  0  0999 V2000
    4.9138   -5.3819    3.1675 C   0  0  0  0  0  0  0  0  0  0  0  0
    4.7368   -4.2692    2.1197 C   0  0  2  0  0  0  0  0  0  0  0  0
    3.2965   -4.2111    1.5876 C   0  0  0  0  0  0  0  0  0  0  0  0
    3.0956   -3.1021    0.5430 C   0  0  0  0  0  0  0  0  0  0  0  0
    4.0314   -3.3049   -0.6722 C   0  0  1  0  0  0  0  0  0  0  0  0
    3.7145   -2.4667   -1.9406 C   0  0  1  0  0  0  0  0  0  0  0  0
    2.3798   -2.9634   -2.5460 C   0  0  0  0  0  0  0  0  0  0  0  0
    3.6444   -0.9604   -1.7105 C   0  0  1  0  0  0  0  0  0  0  0  0
    4.4242   -0.4264   -0.6631 O   0  0  0  0  0  0  0  0  0  0  0  0
    4.0274   -0.3549   -3.0313 C   0  0  0  0  0  0  0  0  0  0  0  0
    4.5813   -1.2400   -3.8022 C   0  0  0  0  0  0  0  0  0  0  0  0
    4.7436   -2.5596   -3.0891 C   0  0  1  0  0  0  0  0  0  0  0  0
    6.1654   -2.6589   -2.5749 C   0  0  0  0  0  0  0  0  0  0  0  0
    6.3509   -3.6307   -1.4571 C   0  0  1  0  0  0  0  0  0  0  0  0
    7.7654   -3.6771   -1.1471 O   0  0  0  0  0  0  0  0  0  0  0  0
    8.1738   -3.7323    0.1455 C   0  0  0  0  0  0  0  0  0  0  0  0
    9.3397   -3.9013    0.4742 O   0  0  0  0  0  0  0  0  0  0  0  0
    7.0497   -3.4406    1.0894 C   0  0  1  0  0  0  0  0  0  0  0  0
    6.1979   -2.2530    0.6537 C   0  0  1  0  0  0  0  0  0  0  0  0
    6.9286   -1.1528    0.1103 O   0  0  0  0  0  0  0  0  0  0  0  0
    5.5100   -3.3162   -0.2470 C   0  0  1  0  0  0  0  0  0  0  0  0
    5.7753   -4.2791    0.9553 C   0  0  2  0  0  0  0  0  0  0  0  0
    5.9687   -5.6428    0.6131 O   0  0  0  0  0  0  0  0  0  0  0  0
    4.6668   -6.3730    2.7863 H   0  0  0  0  0  0  0  0  0  0  0  0
    4.2438   -5.1920    4.0025 H   0  0  0  0  0  0  0  0  0  0  0  0
    5.9273   -5.4091    3.5685 H   0  0  0  0  0  0  0  0  0  0  0  0
    4.8765   -3.3653    2.7121 H   0  0  0  0  0  0  0  0  0  0  0  0
    3.0293   -5.1645    1.1341 H   0  0  0  0  0  0  0  0  0  0  0  0
    2.6144   -4.0473    2.4195 H   0  0  0  0  0  0  0  0  0  0  0  0
    2.0603   -3.0994    0.2110 H   0  0  0  0  0  0  0  0  0  0  0  0
    3.2715   -2.1336    1.0112 H   0  0  0  0  0  0  0  0  0  0  0  0
    3.8311   -4.3241   -0.9931 H   0  0  0  0  0  0  0  0  0  0  0  0
    2.1384   -2.4328   -3.4655 H   0  0  0  0  0  0  0  0  0  0  0  0
    1.5376   -2.8311   -1.8751 H   0  0  0  0  0  0  0  0  0  0  0  0
    2.4270   -4.0169   -2.8034 H   0  0  0  0  0  0  0  0  0  0  0  0
    2.6084   -0.6667   -1.5678 H   0  0  0  0  0  0  0  0  0  0  0  0
    4.5286    0.4940   -0.8435 H   0  0  0  0  0  0  0  0  0  0  0  0
    3.7480    0.6645   -3.3000 H   0  0  0  0  0  0  0  0  0  0  0  0
    4.9909   -1.0336   -4.7822 H   0  0  0  0  0  0  0  0  0  0  0  0
    4.5212   -3.3737   -3.7767 H   0  0  0  0  0  0  0  0  0  0  0  0
    6.7071   -3.0541   -3.4115 H   0  0  0  0  0  0  0  0  0  0  0  0
    6.5954   -1.6992   -2.2887 H   0  0  0  0  0  0  0  0  0  0  0  0
    5.9562   -4.5773   -1.8107 H   0  0  0  0  0  0  0  0  0  0  0  0
    7.4347   -3.3876    2.0940 H   0  0  0  0  0  0  0  0  0  0  0  0
    5.5527   -1.8882    1.4404 H   0  0  0  0  0  0  0  0  0  0  0  0
    7.1481   -0.5890    0.8522 H   0  0  0  0  0  0  0  0  0  0  0  0
    5.1562   -5.9406    0.2317 H   0  0  0  0  0  0  0  0  0  0  0  0
  1  2  1  0
  1 24  1  0
  1 25  1  0
  1 26  1  0
  2 22  1  0
  2  3  1  0
  2 27  1  1
  3  4  1  0
  3 28  1  0
  3 29  1  0
  4  5  1  0
  4 30  1  0
  4 31  1  0
  5 21  1  0
  5  6  1  0
  5 32  1  6
  6 12  1  0
  6  7  1  6
  6  8  1  0
  7 33  1  0
  7 34  1  0
  7 35  1  0
  8  9  1  0
  8 10  1  0
  8 36  1  1
  9 37  1  0
 10 11  2  0
 10 38  1  0
 11 12  1  0
 11 39  1  0
 12 13  1  0
 12 40  1  6
 13 14  1  0
 13 41  1  0
 13 42  1  0
 14 21  1  0
 14 15  1  0
 14 43  1  6
 15 16  1  0
 16 17  2  0
 16 18  1  0
 18 22  1  0
 18 19  1  0
 18 44  1  1
 19 20  1  0
 19 21  1  0
 19 45  1  1
 20 46  1  0
 21 22  1  1
 22 23  1  6
 23 47  1  0
M  END
>  <i_m_ct_stereo_status>  (258) 
1

>  <s_m_source_file>  (258) 
/var/tmp/pbs.5076255.sched01/tmpkd0wjm76/823hn9mkkz.sdf

>  <i_m_source_file_index>  (258) 
29

>  <i_lp_mmshare_version>  (258) 
48012

>  <i_f3d_flags>  (258) 
0

>  <s_epik_input>  (258) 
W0NIMl0xW0NIMl1bQ0BASF0oW0NIM10pW0NAXTIoW09IXSlbQ0BIXShbQ0BIXTNbT0hdKUMoPU8pT1tDQEBIXTRbQ0gyXVtDQEBIXShbQ0BdNShbQ0BIXTFbQ0BdMjM0KVtDSDNdKVtDSF09W0NIXVtDQEBIXTVbT0hd

>  <s_epik_cmdline>  (258) 
J2VwaWtfcHl0aG9uJywgJy1waHQnLCAnMi4wJywgJy1waCcsICc3LjAnLCAnLXRuJywgJzgnLCAnLW1hJywgJzIwMCcsICctaW1hZScsICc8aW5maWxlLm1hZT4nLCAnLW9tYWUnLCAnPG91dGZpbGUubWFlPic=

>  <r_lp_tautomer_probability>  (258) 
1

>  <r_epik_Ionization_Penalty>  (258) 
2.13619e-07

>  <r_epik_Ionization_Penalty_Charging>  (258) 
0

>  <r_epik_Ionization_Penalty_Neutral>  (258) 
2.13619e-07

>  <r_epik_State_Penalty>  (258) 
-0

>  <r_epik_Charging_Adjusted_Penalty>  (258) 
0

>  <i_epik_Tot_Q>  (258) 
0

>  <i_epik_Tot_abs_Q>  (258) 
0

>  <s_epik_Chemistry_Notes>  (258) 
This compound has an ester and may undergo hydrolysis at high or low pH.

>  <s_lp_Force_Field>  (258) 
OPLS3e

>  <r_lp_Energy>  (258) 
58.9247

>  <b_lp_Chiralities_Consistent>  (258) 
1

>  <s_lp_Variant>  (258) 
79:0-1

>  <s_i_glide_gridfile>  (258) 
pfpi4k_grid

>  <i_i_glide_lignum>  (258) 
29

>  <i_i_glide_rotatable_bonds>  (258) 
3

>  <r_i_docking_score>  (258) 
-3.84293

>  <r_i_glide_ligand_efficiency>  (258) 
-0.167084

>  <r_i_glide_ligand_efficiency_sa>  (258) 
-0.475165

>  <r_i_glide_ligand_efficiency_ln>  (258) 
-0.929256

>  <r_i_glide_gscore>  (258) 
-3.84293

>  <r_i_glide_lipo>  (258) 
-0.919162

>  <r_i_glide_hbond>  (258) 
-0.0871975

>  <r_i_glide_metal>  (258) 
-0

>  <r_i_glide_rewards>  (258) 
-1.48972

>  <r_i_glide_evdw>  (258) 
-1.54109

>  <r_i_glide_ecoul>  (258) 
-8.46531

>  <r_i_glide_erotb>  (258) 
0

>  <r_i_glide_esite>  (258) 
0

>  <r_i_glide_emodel>  (258) 
-10.1644

>  <r_i_glide_energy>  (258) 
-10.0064

>  <r_i_glide_einternal>  (258) 
2.69335

>  <r_i_glide_intrahb_reward>  (258) 
-0

>  <i_i_glide_confnum>  (258) 
1

>  <i_i_glide_posenum>  (258) 
36

>  <r_i_glide_eff_state_penalty>  (258) 
0

>  <ligand_id>  (258) 
79

>  <original_smiles>  (258) 
CC1CCC2C3(C)C(O)C=CC3CC3OC(=O)C4C(O)C32C14O

>  <smiles>  (258) 
[H]OC1([H])C([H])=C([H])C2([H])C([H])([H])C3([H])OC(=O)C4([H])C([H])(O[H])C35C([H])(C([H])([H])C([H])([H])C([H])(C([H])([H])[H])C45O[H])C12C([H])([H])[H]

$$$$
79:0:2
     RDKit          3D

 47 51  0  0  1  0  0  0  0  0999 V2000
    4.4870   -5.3080    3.2779 C   0  0  0  0  0  0  0  0  0  0  0  0
    4.3871   -4.2269    2.1905 C   0  0  2  0  0  0  0  0  0  0  0  0
    2.9745   -4.1820    1.5649 C   0  0  0  0  0  0  0  0  0  0  0  0
    2.8477   -3.0915    0.4819 C   0  0  0  0  0  0  0  0  0  0  0  0
    3.8622   -3.3332   -0.6641 C   0  0  1  0  0  0  0  0  0  0  0  0
    3.6024   -2.5287   -1.9899 C   0  0  1  0  0  0  0  0  0  0  0  0
    2.2964   -3.0305   -2.6539 C   0  0  0  0  0  0  0  0  0  0  0  0
    3.4887   -1.0091   -1.7989 C   0  0  1  0  0  0  0  0  0  0  0  0
    4.2193   -0.4689   -0.7283 O   0  0  0  0  0  0  0  0  0  0  0  0
    3.9874   -0.4164   -3.0593 C   0  0  0  0  0  0  0  0  0  0  0  0
    4.6132   -1.3122   -3.7707 C   0  0  0  0  0  0  0  0  0  0  0  0
    4.7393   -2.6335   -3.0466 C   0  0  1  0  0  0  0  0  0  0  0  0
    6.1540   -2.7096   -2.4469 C   0  0  0  0  0  0  0  0  0  0  0  0
    6.2317   -3.7018   -1.2957 C   0  0  1  0  0  0  0  0  0  0  0  0
    7.6094   -3.7861   -0.8609 O   0  0  0  0  0  0  0  0  0  0  0  0
    7.9569   -3.7509    0.4708 C   0  0  0  0  0  0  0  0  0  0  0  0
    9.0951   -3.9441    0.8417 O   0  0  0  0  0  0  0  0  0  0  0  0
    6.7584   -3.4146    1.3337 C   0  0  1  0  0  0  0  0  0  0  0  0
    5.9433   -2.2356    0.7932 C   0  0  1  0  0  0  0  0  0  0  0  0
    6.7407   -1.1542    0.2708 O   0  0  0  0  0  0  0  0  0  0  0  0
    5.3287   -3.3465   -0.1466 C   0  0  1  0  0  0  0  0  0  0  0  0
    5.4975   -4.2515    1.1102 C   0  0  2  0  0  0  0  0  0  0  0  0
    5.7034   -5.6495    0.7929 O   0  0  0  0  0  0  0  0  0  0  0  0
    4.2776   -6.3039    2.8852 H   0  0  0  0  0  0  0  0  0  0  0  0
    3.7672   -5.1044    4.0668 H   0  0  0  0  0  0  0  0  0  0  0  0
    5.4818   -5.3209    3.7241 H   0  0  0  0  0  0  0  0  0  0  0  0
    4.4776   -3.2924    2.7622 H   0  0  0  0  0  0  0  0  0  0  0  0
    2.7382   -5.1529    1.1179 H   0  0  0  0  0  0  0  0  0  0  0  0
    2.2367   -4.0008    2.3459 H   0  0  0  0  0  0  0  0  0  0  0  0
    1.8244   -3.1043    0.0969 H   0  0  0  0  0  0  0  0  0  0  0  0
    2.9716   -2.1082    0.9499 H   0  0  0  0  0  0  0  0  0  0  0  0
    3.6852   -4.3672   -0.9715 H   0  0  0  0  0  0  0  0  0  0  0  0
    2.1127   -2.4999   -3.5939 H   0  0  0  0  0  0  0  0  0  0  0  0
    1.4268   -2.8611   -2.0151 H   0  0  0  0  0  0  0  0  0  0  0  0
    2.3544   -4.0901   -2.8791 H   0  0  0  0  0  0  0  0  0  0  0  0
    2.4506   -0.6866   -1.7606 H   0  0  0  0  0  0  0  0  0  0  0  0
    3.6149   -0.3040   -0.0344 H   0  0  0  0  0  0  0  0  0  0  0  0
    3.7481    0.6082   -3.3316 H   0  0  0  0  0  0  0  0  0  0  0  0
    4.9862   -1.1151   -4.7615 H   0  0  0  0  0  0  0  0  0  0  0  0
    4.5563   -3.4588   -3.7332 H   0  0  0  0  0  0  0  0  0  0  0  0
    6.8038   -3.0847   -3.2273 H   0  0  0  0  0  0  0  0  0  0  0  0
    6.5263   -1.7119   -2.1545 H   0  0  0  0  0  0  0  0  0  0  0  0
    5.8698   -4.6399   -1.6842 H   0  0  0  0  0  0  0  0  0  0  0  0
    6.9748   -3.3007    2.4150 H   0  0  0  0  0  0  0  0  0  0  0  0
    5.2543   -1.7910    1.4977 H   0  0  0  0  0  0  0  0  0  0  0  0
    6.8272   -0.4977    0.9419 H   0  0  0  0  0  0  0  0  0  0  0  0
    4.8728   -5.9893    0.5762 H   0  0  0  0  0  0  0  0  0  0  0  0
  1  2  1  0
  1 24  1  0
  1 25  1  0
  1 26  1  0
  2 22  1  0
  2  3  1  0
  2 27  1  1
  3  4  1  0
  3 28  1  0
  3 29  1  0
  4  5  1  0
  4 30  1  0
  4 31  1  0
  5 21  1  0
  5  6  1  0
  5 32  1  6
  6 12  1  0
  6  7  1  6
  6  8  1  0
  7 33  1  0
  7 34  1  0
  7 35  1  0
  8  9  1  0
  8 10  1  0
  8 36  1  1
  9 37  1  0
 10 11  2  0
 10 38  1  0
 11 12  1  0
 11 39  1  0
 12 13  1  0
 12 40  1  6
 13 14  1  0
 13 41  1  0
 13 42  1  0
 14 21  1  0
 14 15  1  0
 14 43  1  6
 15 16  1  0
 16 17  2  0
 16 18  1  0
 18 22  1  0
 18 19  1  0
 18 44  1  1
 19 20  1  0
 19 21  1  0
 19 45  1  1
 20 46  1  0
 21 22  1  1
 22 23  1  6
 23 47  1  0
M  END
>  <i_m_ct_stereo_status>  (259) 
1

>  <s_m_source_file>  (259) 
/var/tmp/pbs.5076255.sched01/tmpkd0wjm76/823hn9mkkz.sdf

>  <i_m_source_file_index>  (259) 
29

>  <i_lp_mmshare_version>  (259) 
48012

>  <i_f3d_flags>  (259) 
0

>  <s_epik_input>  (259) 
W0NIMl0xW0NIMl1bQ0BASF0oW0NIM10pW0NAXTIoW09IXSlbQ0BIXShbQ0BIXTNbT0hdKUMoPU8pT1tDQEBIXTRbQ0gyXVtDQEBIXShbQ0BdNShbQ0BIXTFbQ0BdMjM0KVtDSDNdKVtDSF09W0NIXVtDQEBIXTVbT0hd

>  <s_epik_cmdline>  (259) 
J2VwaWtfcHl0aG9uJywgJy1waHQnLCAnMi4wJywgJy1waCcsICc3LjAnLCAnLXRuJywgJzgnLCAnLW1hJywgJzIwMCcsICctaW1hZScsICc8aW5maWxlLm1hZT4nLCAnLW9tYWUnLCAnPG91dGZpbGUubWFlPic=

>  <r_lp_tautomer_probability>  (259) 
1

>  <r_epik_Ionization_Penalty>  (259) 
2.13619e-07

>  <r_epik_Ionization_Penalty_Charging>  (259) 
0

>  <r_epik_Ionization_Penalty_Neutral>  (259) 
2.13619e-07

>  <r_epik_State_Penalty>  (259) 
-0

>  <r_epik_Charging_Adjusted_Penalty>  (259) 
0

>  <i_epik_Tot_Q>  (259) 
0

>  <i_epik_Tot_abs_Q>  (259) 
0

>  <s_epik_Chemistry_Notes>  (259) 
This compound has an ester and may undergo hydrolysis at high or low pH.

>  <s_lp_Force_Field>  (259) 
OPLS3e

>  <r_lp_Energy>  (259) 
58.9247

>  <b_lp_Chiralities_Consistent>  (259) 
1

>  <s_lp_Variant>  (259) 
79:0-1

>  <s_i_glide_gridfile>  (259) 
pfpi4k_grid

>  <i_i_glide_lignum>  (259) 
29

>  <i_i_glide_rotatable_bonds>  (259) 
3

>  <r_i_docking_score>  (259) 
-3.41291

>  <r_i_glide_ligand_efficiency>  (259) 
-0.148387

>  <r_i_glide_ligand_efficiency_sa>  (259) 
-0.421994

>  <r_i_glide_ligand_efficiency_ln>  (259) 
-0.825273

>  <r_i_glide_gscore>  (259) 
-3.41291

>  <r_i_glide_lipo>  (259) 
-0.930255

>  <r_i_glide_hbond>  (259) 
-0.0251109

>  <r_i_glide_metal>  (259) 
-0

>  <r_i_glide_rewards>  (259) 
-1.49551

>  <r_i_glide_evdw>  (259) 
-4.01317

>  <r_i_glide_ecoul>  (259) 
-5.07586

>  <r_i_glide_erotb>  (259) 
0

>  <r_i_glide_esite>  (259) 
0

>  <r_i_glide_emodel>  (259) 
-8.65796

>  <r_i_glide_energy>  (259) 
-9.08903

>  <r_i_glide_einternal>  (259) 
2.52714

>  <r_i_glide_intrahb_reward>  (259) 
-0

>  <i_i_glide_confnum>  (259) 
1

>  <i_i_glide_posenum>  (259) 
18

>  <r_i_glide_eff_state_penalty>  (259) 
0

>  <ligand_id>  (259) 
79

>  <original_smiles>  (259) 
CC1CCC2C3(C)C(O)C=CC3CC3OC(=O)C4C(O)C32C14O

>  <smiles>  (259) 
[H]OC1([H])C([H])=C([H])C2([H])C([H])([H])C3([H])OC(=O)C4([H])C([H])(O[H])C35C([H])(C([H])([H])C([H])([H])C([H])(C([H])([H])[H])C45O[H])C12C([H])([H])[H]

$$$$
80:0:0
     RDKit          3D

 60 65  0  0  1  0  0  0  0  0999 V2000
    3.6550   -1.4247    4.9880 C   0  0  0  0  0  0  0  0  0  0  0  0
    3.1552   -1.9020    3.6367 C   0  0  2  0  0  0  0  0  0  0  0  0
    2.7391   -0.7690    2.6947 C   0  0  0  0  0  0  0  0  0  0  0  0
    3.0563   -1.3458    1.3268 C   0  0  0  0  0  0  0  0  0  0  0  0
    3.6553   -2.5332    1.3748 C   0  0  0  0  0  0  0  0  0  0  0  0
    4.0007   -3.4875    0.2274 C   0  0  0  0  0  0  0  0  0  0  0  0
    3.3931   -4.8864    0.4604 C   0  0  0  0  0  0  0  0  0  0  0  0
    2.1956   -5.0423    0.2701 O   0  0  0  0  0  0  0  0  0  0  0  0
    4.3175   -5.9678    0.8807 C   0  0  0  0  0  0  0  0  0  0  0  0
    4.0177   -7.1744    1.4122 C   0  0  0  0  0  0  0  0  0  0  0  0
    2.6635   -7.8466    1.7017 C   0  0  1  0  0  0  0  0  0  0  0  0
    2.6581   -9.4462    1.4959 C   0  0  0  0  0  0  0  0  0  0  0  0
    2.5887  -10.0169    2.9322 C   0  0  0  0  0  0  0  0  0  0  0  0
    1.5243  -10.5619    3.5855 C   0  0  0  0  0  0  0  0  0  0  0  0
    0.8729   -9.7586    4.7876 C   0  0  0  0  0  0  0  0  0  0  0  0
    0.6544   -8.1825    4.5092 C   0  0  2  0  0  0  0  0  0  0  0  0
    0.5849   -8.0396    3.0317 C   0  0  1  0  0  0  0  0  0  0  0  0
   -0.4725   -7.0517    2.4483 C   0  0  0  0  0  0  0  0  0  0  0  0
   -0.1875   -6.2979    1.4688 O   0  0  0  0  0  0  0  0  0  0  0  0
   -1.5917   -7.0578    2.9842 O   0  0  0  0  0  0  0  0  0  0  0  0
    2.1911   -7.8590    3.1701 C   0  0  1  0  0  0  0  0  0  0  0  0
    3.1942   -8.9383    3.6644 C   0  0  0  0  0  0  0  0  0  0  0  0
    1.7979   -7.0151    4.4270 C   0  0  2  0  0  0  0  0  0  0  0  0
    2.6686   -7.0101    5.7078 C   0  0  0  0  0  0  0  0  0  0  0  0
    1.4808   -5.5097    4.1506 C   0  0  0  0  0  0  0  0  0  0  0  0
    2.5437   -4.4331    4.5050 C   0  0  0  0  0  0  0  0  0  0  0  0
    2.5365   -3.2883    3.5029 C   0  0  2  0  0  0  0  0  0  0  0  0
    3.8290   -2.9457    2.7828 C   0  0  2  0  0  0  0  0  0  0  0  0
    5.2125   -3.4281    3.1756 C   0  0  0  0  0  0  0  0  0  0  0  0
    4.4755   -0.7170    4.8627 H   0  0  0  0  0  0  0  0  0  0  0  0
    4.0117   -2.2679    5.5731 H   0  0  0  0  0  0  0  0  0  0  0  0
    2.8474   -0.9453    5.5413 H   0  0  0  0  0  0  0  0  0  0  0  0
    1.6743   -0.5490    2.7968 H   0  0  0  0  0  0  0  0  0  0  0  0
    3.3152    0.1446    2.8667 H   0  0  0  0  0  0  0  0  0  0  0  0
    2.7460   -0.8511    0.4296 H   0  0  0  0  0  0  0  0  0  0  0  0
    3.6425   -3.0791   -0.7204 H   0  0  0  0  0  0  0  0  0  0  0  0
    5.0824   -3.5638    0.1617 H   0  0  0  0  0  0  0  0  0  0  0  0
    5.3672   -5.7486    0.7537 H   0  0  0  0  0  0  0  0  0  0  0  0
    4.8780   -7.7910    1.6335 H   0  0  0  0  0  0  0  0  0  0  0  0
    1.9372   -7.4204    1.0225 H   0  0  0  0  0  0  0  0  0  0  0  0
    1.8177   -9.7881    0.8896 H   0  0  0  0  0  0  0  0  0  0  0  0
    3.5662   -9.7801    0.9992 H   0  0  0  0  0  0  0  0  0  0  0  0
    0.8151  -11.1392    3.0189 H   0  0  0  0  0  0  0  0  0  0  0  0
   -0.0957  -10.2252    4.9820 H   0  0  0  0  0  0  0  0  0  0  0  0
    1.4297   -9.9377    5.7122 H   0  0  0  0  0  0  0  0  0  0  0  0
   -0.2137   -7.7969    5.0288 H   0  0  0  0  0  0  0  0  0  0  0  0
    0.2195   -8.9218    2.5189 H   0  0  0  0  0  0  0  0  0  0  0  0
    3.2604   -9.1915    4.7222 H   0  0  0  0  0  0  0  0  0  0  0  0
    4.2193   -8.7972    3.3582 H   0  0  0  0  0  0  0  0  0  0  0  0
    3.7257   -6.8590    5.4796 H   0  0  0  0  0  0  0  0  0  0  0  0
    2.5907   -7.9389    6.2637 H   0  0  0  0  0  0  0  0  0  0  0  0
    2.3556   -6.2485    6.4232 H   0  0  0  0  0  0  0  0  0  0  0  0
    1.4179   -5.3959    3.0746 H   0  0  0  0  0  0  0  0  0  0  0  0
    0.5033   -5.2314    4.5524 H   0  0  0  0  0  0  0  0  0  0  0  0
    2.3491   -4.0351    5.5005 H   0  0  0  0  0  0  0  0  0  0  0  0
    3.5364   -4.8823    4.4978 H   0  0  0  0  0  0  0  0  0  0  0  0
    1.6306   -3.2590    2.9091 H   0  0  0  0  0  0  0  0  0  0  0  0
    5.3055   -3.4941    4.2497 H   0  0  0  0  0  0  0  0  0  0  0  0
    5.9623   -2.7329    2.8007 H   0  0  0  0  0  0  0  0  0  0  0  0
    5.4019   -4.4120    2.7599 H   0  0  0  0  0  0  0  0  0  0  0  0
  2  1  1  1
  1 30  1  0
  1 31  1  0
  1 32  1  0
  2 27  1  0
  2 28  1  0
  2  3  1  0
  3  4  1  0
  3 33  1  0
  3 34  1  0
  4  5  2  0
  4 35  1  0
  5 28  1  0
  5  6  1  0
  6  7  1  0
  6 36  1  0
  6 37  1  0
  7  8  2  0
  7  9  1  0
  9 10  2  3
  9 38  1  0
 10 11  1  0
 10 39  1  0
 11 21  1  0
 11 12  1  0
 11 40  1  6
 12 13  1  0
 12 41  1  0
 12 42  1  0
 13 22  1  0
 13 14  2  0
 14 15  1  0
 14 43  1  0
 15 16  1  0
 15 44  1  0
 15 45  1  0
 16 23  1  0
 16 17  1  0
 16 46  1  1
 17 18  1  0
 17 21  1  0
 17 47  1  6
 18 19  2  0
 18 20  1  0
 21 22  1  1
 21 23  1  0
 22 48  1  0
 22 49  1  0
 23 24  1  1
 23 25  1  0
 24 50  1  0
 24 51  1  0
 24 52  1  0
 25 26  1  0
 25 53  1  0
 25 54  1  0
 26 27  1  0
 26 55  1  0
 26 56  1  0
 27 28  1  0
 27 57  1  6
 28 29  1  1
 29 58  1  0
 29 59  1  0
 29 60  1  0
M  CHG  1  20  -1
M  END
>  <i_m_ct_stereo_status>  (260) 
1

>  <s_m_source_file>  (260) 
/var/tmp/pbs.5076255.sched01/tmpkd0wjm76/823hn9mkkz.sdf

>  <i_m_source_file_index>  (260) 
30

>  <i_lp_mmshare_version>  (260) 
48012

>  <i_f3d_flags>  (260) 
0

>  <s_epik_input>  (260) 
W0NAXTEyM1tDQEhdNC9bQ0hdPVtDSF1cQyg9TylbQ0gyXUM1W0NAQF02KFtDSDNdKVtDQEBdKFtDSDNdKShbQ0gyXVtDSF09NSlbQ0BASF02W0NIMl1bQ0gyXVtDQEBdMyhbQ0gzXSlbQ0BASF0oW0NASF0xQyg9TylbT0hdKVtDSDJdW0NIXT1DKFtDSDJdNClbQ0gyXTI=

>  <s_epik_cmdline>  (260) 
J2VwaWtfcHl0aG9uJywgJy1waHQnLCAnMi4wJywgJy1waCcsICc3LjAnLCAnLXRuJywgJzgnLCAnLW1hJywgJzIwMCcsICctaW1hZScsICc8aW5maWxlLm1hZT4nLCAnLW9tYWUnLCAnPG91dGZpbGUubWFlPic=

>  <r_epik_Ionization_Penalty>  (260) 
0.00227908

>  <r_epik_Ionization_Penalty_Charging>  (260) 
0.00227908

>  <r_epik_Ionization_Penalty_Neutral>  (260) 
0

>  <r_epik_State_Penalty>  (260) 
0.00157066

>  <r_epik_Charging_Adjusted_Penalty>  (260) 
0.00384974

>  <i_epik_Tot_Q>  (260) 
-1

>  <i_epik_Tot_abs_Q>  (260) 
1

>  <s_lp_Force_Field>  (260) 
OPLS3e

>  <r_lp_Energy>  (260) 
193.47

>  <b_lp_Chiralities_Consistent>  (260) 
1

>  <s_lp_Variant>  (260) 
80:0-1

>  <s_i_glide_gridfile>  (260) 
pfpi4k_grid

>  <i_i_glide_lignum>  (260) 
30

>  <i_i_glide_rotatable_bonds>  (260) 
1

>  <r_i_docking_score>  (260) 
-3.77906

>  <r_i_glide_ligand_efficiency>  (260) 
-0.130312

>  <r_i_glide_ligand_efficiency_sa>  (260) 
-0.400361

>  <r_i_glide_ligand_efficiency_ln>  (260) 
-0.865309

>  <r_i_glide_gscore>  (260) 
-3.77906

>  <r_i_glide_lipo>  (260) 
-0.311424

>  <r_i_glide_hbond>  (260) 
-0.577012

>  <r_i_glide_metal>  (260) 
-0

>  <r_i_glide_rewards>  (260) 
-0.739619

>  <r_i_glide_evdw>  (260) 
-20.9109

>  <r_i_glide_ecoul>  (260) 
-6.63115

>  <r_i_glide_erotb>  (260) 
0

>  <r_i_glide_esite>  (260) 
-0.110785

>  <r_i_glide_emodel>  (260) 
-38.0985

>  <r_i_glide_energy>  (260) 
-27.5421

>  <r_i_glide_einternal>  (260) 
0.000510431

>  <r_i_glide_intrahb_reward>  (260) 
-0

>  <i_i_glide_confnum>  (260) 
1

>  <i_i_glide_posenum>  (260) 
39

>  <r_i_glide_eff_state_penalty>  (260) 
0

>  <ligand_id>  (260) 
80

>  <original_smiles>  (260) 
CC12CC=C3CC(=O)C=CC4CC5=CCC6C(C(=O)O)C4(C5)C6(C)CCC1C32C

>  <smiles>  (260) 
[H]C1=C([H])C2([H])C([H])([H])C3=C([H])C([H])([H])C4([H])C([H])(C(=O)[O-])C2(C3([H])[H])C4(C([H])([H])[H])C([H])([H])C([H])([H])C2([H])C3(C([H])([H])[H])C(=C([H])C([H])([H])C23C([H])([H])[H])C([H])([H])C1=O

$$$$
80:0:1
     RDKit          3D

 60 65  0  0  1  0  0  0  0  0999 V2000
    4.0983   -0.2415    1.2468 C   0  0  0  0  0  0  0  0  0  0  0  0
    3.9219   -1.5800    0.5591 C   0  0  2  0  0  0  0  0  0  0  0  0
    3.8728   -1.5002   -0.9692 C   0  0  0  0  0  0  0  0  0  0  0  0
    4.4621   -2.8270   -1.3952 C   0  0  0  0  0  0  0  0  0  0  0  0
    4.9148   -3.5614   -0.3668 C   0  0  0  0  0  0  0  0  0  0  0  0
    5.4417   -4.9863   -0.3719 C   0  0  0  0  0  0  0  0  0  0  0  0
    4.6749   -5.8771    0.6233 C   0  0  0  0  0  0  0  0  0  0  0  0
    3.5447   -6.2484    0.3333 O   0  0  0  0  0  0  0  0  0  0  0  0
    5.3625   -6.2402    1.8795 C   0  0  0  0  0  0  0  0  0  0  0  0
    4.8223   -6.7529    3.0115 C   0  0  0  0  0  0  0  0  0  0  0  0
    3.3813   -7.1796    3.3387 C   0  0  1  0  0  0  0  0  0  0  0  0
    3.2643   -8.4477    4.3244 C   0  0  0  0  0  0  0  0  0  0  0  0
    2.7877   -7.8495    5.6763 C   0  0  0  0  0  0  0  0  0  0  0  0
    1.5520   -7.8982    6.2482 C   0  0  0  0  0  0  0  0  0  0  0  0
    0.6952   -6.5631    6.3045 C   0  0  0  0  0  0  0  0  0  0  0  0
    0.7038   -5.6880    4.9544 C   0  0  2  0  0  0  0  0  0  0  0  0
    1.0359   -6.6371    3.8593 C   0  0  1  0  0  0  0  0  0  0  0  0
    0.2581   -6.5279    2.5137 C   0  0  0  0  0  0  0  0  0  0  0  0
   -0.9790   -6.6586    2.6090 O   0  0  0  0  0  0  0  0  0  0  0  0
    0.8196   -6.3849    1.4028 O   0  0  0  0  0  0  0  0  0  0  0  0
    2.5547   -6.2150    4.2061 C   0  0  1  0  0  0  0  0  0  0  0  0
    3.2926   -6.5102    5.5457 C   0  0  0  0  0  0  0  0  0  0  0  0
    1.9333   -4.7864    4.3667 C   0  0  2  0  0  0  0  0  0  0  0  0
    2.4445   -3.7858    5.4293 C   0  0  0  0  0  0  0  0  0  0  0  0
    1.8502   -3.9602    3.0396 C   0  0  0  0  0  0  0  0  0  0  0  0
    2.8750   -2.8150    2.7786 C   0  0  0  0  0  0  0  0  0  0  0  0
    3.2282   -2.7220    1.3058 C   0  0  2  0  0  0  0  0  0  0  0  0
    4.6812   -2.8361    0.8876 C   0  0  2  0  0  0  0  0  0  0  0  0
    5.8746   -2.7378    1.8373 C   0  0  0  0  0  0  0  0  0  0  0  0
    4.9826    0.2662    0.8618 H   0  0  0  0  0  0  0  0  0  0  0  0
    4.2151   -0.3790    2.3215 H   0  0  0  0  0  0  0  0  0  0  0  0
    3.2211    0.3863    1.0812 H   0  0  0  0  0  0  0  0  0  0  0  0
    2.8497   -1.4044   -1.3275 H   0  0  0  0  0  0  0  0  0  0  0  0
    4.4593   -0.6665   -1.3518 H   0  0  0  0  0  0  0  0  0  0  0  0
    4.4442   -3.1540   -2.4242 H   0  0  0  0  0  0  0  0  0  0  0  0
    5.3659   -5.4076   -1.3727 H   0  0  0  0  0  0  0  0  0  0  0  0
    6.4987   -4.9620   -0.1034 H   0  0  0  0  0  0  0  0  0  0  0  0
    6.4251   -6.0508    1.8967 H   0  0  0  0  0  0  0  0  0  0  0  0
    5.5361   -6.9300    3.8009 H   0  0  0  0  0  0  0  0  0  0  0  0
    2.8854   -7.4299    2.4084 H   0  0  0  0  0  0  0  0  0  0  0  0
    2.5627   -9.1994    3.9647 H   0  0  0  0  0  0  0  0  0  0  0  0
    4.2392   -8.9331    4.4524 H   0  0  0  0  0  0  0  0  0  0  0  0
    0.9654   -8.7950    6.0956 H   0  0  0  0  0  0  0  0  0  0  0  0
   -0.3211   -6.8736    6.5275 H   0  0  0  0  0  0  0  0  0  0  0  0
    0.9840   -5.9752    7.1795 H   0  0  0  0  0  0  0  0  0  0  0  0
   -0.2402   -5.1489    4.8114 H   0  0  0  0  0  0  0  0  0  0  0  0
    0.7400   -7.6616    4.0674 H   0  0  0  0  0  0  0  0  0  0  0  0
    3.0731   -5.9423    6.4437 H   0  0  0  0  0  0  0  0  0  0  0  0
    4.3857   -6.5049    5.5024 H   0  0  0  0  0  0  0  0  0  0  0  0
    3.5344   -3.7117    5.4292 H   0  0  0  0  0  0  0  0  0  0  0  0
    2.1445   -4.0565    6.4429 H   0  0  0  0  0  0  0  0  0  0  0  0
    2.0359   -2.7835    5.2956 H   0  0  0  0  0  0  0  0  0  0  0  0
    2.0840   -4.6568    2.2459 H   0  0  0  0  0  0  0  0  0  0  0  0
    0.8255   -3.5988    2.8798 H   0  0  0  0  0  0  0  0  0  0  0  0
    2.4727   -1.8619    3.1177 H   0  0  0  0  0  0  0  0  0  0  0  0
    3.7834   -3.0209    3.3364 H   0  0  0  0  0  0  0  0  0  0  0  0
    2.5018   -3.2322    0.6638 H   0  0  0  0  0  0  0  0  0  0  0  0
    5.6837   -2.0176    2.6294 H   0  0  0  0  0  0  0  0  0  0  0  0
    6.7628   -2.4228    1.2872 H   0  0  0  0  0  0  0  0  0  0  0  0
    6.0691   -3.7029    2.3006 H   0  0  0  0  0  0  0  0  0  0  0  0
  2  1  1  1
  1 30  1  0
  1 31  1  0
  1 32  1  0
  2 27  1  0
  2 28  1  0
  2  3  1  0
  3  4  1  0
  3 33  1  0
  3 34  1  0
  4  5  2  0
  4 35  1  0
  5 28  1  0
  5  6  1  0
  6  7  1  0
  6 36  1  0
  6 37  1  0
  7  8  2  0
  7  9  1  0
  9 10  2  3
  9 38  1  0
 10 11  1  0
 10 39  1  0
 11 21  1  0
 11 12  1  0
 11 40  1  6
 12 13  1  0
 12 41  1  0
 12 42  1  0
 13 22  1  0
 13 14  2  0
 14 15  1  0
 14 43  1  0
 15 16  1  0
 15 44  1  0
 15 45  1  0
 16 23  1  0
 16 17  1  0
 16 46  1  6
 17 18  1  0
 17 21  1  0
 17 47  1  1
 18 19  2  0
 18 20  1  0
 21 22  1  1
 21 23  1  0
 22 48  1  0
 22 49  1  0
 23 24  1  1
 23 25  1  0
 24 50  1  0
 24 51  1  0
 24 52  1  0
 25 26  1  0
 25 53  1  0
 25 54  1  0
 26 27  1  0
 26 55  1  0
 26 56  1  0
 27 28  1  0
 27 57  1  6
 28 29  1  1
 29 58  1  0
 29 59  1  0
 29 60  1  0
M  CHG  1  20  -1
M  END
>  <i_m_ct_stereo_status>  (261) 
1

>  <s_m_source_file>  (261) 
/var/tmp/pbs.5076255.sched01/tmpkd0wjm76/823hn9mkkz.sdf

>  <i_m_source_file_index>  (261) 
30

>  <i_lp_mmshare_version>  (261) 
48012

>  <i_f3d_flags>  (261) 
0

>  <s_epik_input>  (261) 
W0NAXTEyM1tDQEhdNC9bQ0hdPVtDSF1cQyg9TylbQ0gyXUM1W0NAQF02KFtDSDNdKVtDQEBdKFtDSDNdKShbQ0gyXVtDSF09NSlbQ0BASF02W0NIMl1bQ0gyXVtDQEBdMyhbQ0gzXSlbQ0BASF0oW0NASF0xQyg9TylbT0hdKVtDSDJdW0NIXT1DKFtDSDJdNClbQ0gyXTI=

>  <s_epik_cmdline>  (261) 
J2VwaWtfcHl0aG9uJywgJy1waHQnLCAnMi4wJywgJy1waCcsICc3LjAnLCAnLXRuJywgJzgnLCAnLW1hJywgJzIwMCcsICctaW1hZScsICc8aW5maWxlLm1hZT4nLCAnLW9tYWUnLCAnPG91dGZpbGUubWFlPic=

>  <r_epik_Ionization_Penalty>  (261) 
0.00227908

>  <r_epik_Ionization_Penalty_Charging>  (261) 
0.00227908

>  <r_epik_Ionization_Penalty_Neutral>  (261) 
0

>  <r_epik_State_Penalty>  (261) 
0.00157066

>  <r_epik_Charging_Adjusted_Penalty>  (261) 
0.00384974

>  <i_epik_Tot_Q>  (261) 
-1

>  <i_epik_Tot_abs_Q>  (261) 
1

>  <s_lp_Force_Field>  (261) 
OPLS3e

>  <r_lp_Energy>  (261) 
193.47

>  <b_lp_Chiralities_Consistent>  (261) 
1

>  <s_lp_Variant>  (261) 
80:0-1

>  <s_i_glide_gridfile>  (261) 
pfpi4k_grid

>  <i_i_glide_lignum>  (261) 
30

>  <i_i_glide_rotatable_bonds>  (261) 
1

>  <r_i_docking_score>  (261) 
-3.22084

>  <r_i_glide_ligand_efficiency>  (261) 
-0.111063

>  <r_i_glide_ligand_efficiency_sa>  (261) 
-0.341222

>  <r_i_glide_ligand_efficiency_ln>  (261) 
-0.737491

>  <r_i_glide_gscore>  (261) 
-3.22084

>  <r_i_glide_lipo>  (261) 
-0.264135

>  <r_i_glide_hbond>  (261) 
-0.383211

>  <r_i_glide_metal>  (261) 
-0

>  <r_i_glide_rewards>  (261) 
-0.880979

>  <r_i_glide_evdw>  (261) 
-17.4852

>  <r_i_glide_ecoul>  (261) 
-4.84002

>  <r_i_glide_erotb>  (261) 
0

>  <r_i_glide_esite>  (261) 
-0.0922504

>  <r_i_glide_emodel>  (261) 
-30.2473

>  <r_i_glide_energy>  (261) 
-22.3253

>  <r_i_glide_einternal>  (261) 
0.24882

>  <r_i_glide_intrahb_reward>  (261) 
-0

>  <i_i_glide_confnum>  (261) 
1

>  <i_i_glide_posenum>  (261) 
1

>  <r_i_glide_eff_state_penalty>  (261) 
0

>  <ligand_id>  (261) 
80

>  <original_smiles>  (261) 
CC12CC=C3CC(=O)C=CC4CC5=CCC6C(C(=O)O)C4(C5)C6(C)CCC1C32C

>  <smiles>  (261) 
[H]C1=C([H])C2([H])C([H])([H])C3=C([H])C([H])([H])C4([H])C([H])(C(=O)[O-])C2(C3([H])[H])C4(C([H])([H])[H])C([H])([H])C([H])([H])C2([H])C3(C([H])([H])[H])C(=C([H])C([H])([H])C23C([H])([H])[H])C([H])([H])C1=O

$$$$
80:0:2
     RDKit          3D

 60 65  0  0  1  0  0  0  0  0999 V2000
    3.5109   -0.1201   -2.9091 C   0  0  0  0  0  0  0  0  0  0  0  0
    3.4416   -1.5604   -2.5565 C   0  0  2  0  0  0  0  0  0  0  0  0
    3.0441   -2.4140   -3.7553 C   0  0  0  0  0  0  0  0  0  0  0  0
    3.8648   -3.6456   -3.5226 C   0  0  0  0  0  0  0  0  0  0  0  0
    4.6136   -3.5294   -2.4261 C   0  0  0  0  0  0  0  0  0  0  0  0
    5.4253   -4.5751   -1.7617 C   0  0  0  0  0  0  0  0  0  0  0  0
    5.1463   -4.7964   -0.2611 C   0  0  0  0  0  0  0  0  0  0  0  0
    4.1585   -5.4417    0.0871 O   0  0  0  0  0  0  0  0  0  0  0  0
    6.1794   -4.3094    0.6651 C   0  0  0  0  0  0  0  0  0  0  0  0
    6.0253   -4.0785    1.9799 C   0  0  0  0  0  0  0  0  0  0  0  0
    4.8439   -4.2998    2.9294 C   0  0  1  0  0  0  0  0  0  0  0  0
    5.2572   -4.7138    4.4315 C   0  0  0  0  0  0  0  0  0  0  0  0
    4.9340   -3.4521    5.2809 C   0  0  0  0  0  0  0  0  0  0  0  0
    3.8920   -3.2177    6.1316 C   0  0  0  0  0  0  0  0  0  0  0  0
    2.7630   -2.1851    5.6927 C   0  0  0  0  0  0  0  0  0  0  0  0
    2.2842   -2.3050    4.1548 C   0  0  2  0  0  0  0  0  0  0  0  0
    2.6188   -3.6986    3.7428 C   0  0  1  0  0  0  0  0  0  0  0  0
    1.6040   -4.5648    2.9271 C   0  0  0  0  0  0  0  0  0  0  0  0
    1.8131   -4.9319    1.7352 O   0  0  0  0  0  0  0  0  0  0  0  0
    0.5992   -4.9431    3.5652 O   0  0  0  0  0  0  0  0  0  0  0  0
    4.0259   -3.0540    3.3104 C   0  0  1  0  0  0  0  0  0  0  0  0
    5.0612   -2.4386    4.2718 C   0  0  0  0  0  0  0  0  0  0  0  0
    3.1204   -1.8773    2.8163 C   0  0  2  0  0  0  0  0  0  0  0  0
    3.5891   -0.4044    2.9124 C   0  0  0  0  0  0  0  0  0  0  0  0
    2.5856   -2.0359    1.3592 C   0  0  0  0  0  0  0  0  0  0  0  0
    3.2212   -1.2336    0.1990 C   0  0  0  0  0  0  0  0  0  0  0  0
    3.2060   -2.0216   -1.1141 C   0  0  2  0  0  0  0  0  0  0  0  0
    4.5291   -2.2570   -1.8122 C   0  0  2  0  0  0  0  0  0  0  0  0
    5.8389   -1.5396   -1.4681 C   0  0  0  0  0  0  0  0  0  0  0  0
    4.0795    0.1106   -3.8023 H   0  0  0  0  0  0  0  0  0  0  0  0
    4.0944    0.3337   -2.1407 H   0  0  0  0  0  0  0  0  0  0  0  0
    2.4797    0.2144   -3.0106 H   0  0  0  0  0  0  0  0  0  0  0  0
    1.9682   -2.6224   -3.7356 H   0  0  0  0  0  0  0  0  0  0  0  0
    3.3242   -1.9466   -4.7022 H   0  0  0  0  0  0  0  0  0  0  0  0
    3.7293   -4.5388   -4.1145 H   0  0  0  0  0  0  0  0  0  0  0  0
    5.2247   -5.5050   -2.2712 H   0  0  0  0  0  0  0  0  0  0  0  0
    6.4250   -4.2323   -1.8928 H   0  0  0  0  0  0  0  0  0  0  0  0
    7.1507   -4.0959    0.2333 H   0  0  0  0  0  0  0  0  0  0  0  0
    6.9117   -3.6995    2.4269 H   0  0  0  0  0  0  0  0  0  0  0  0
    4.2432   -5.1008    2.5122 H   0  0  0  0  0  0  0  0  0  0  0  0
    4.7023   -5.5814    4.7869 H   0  0  0  0  0  0  0  0  0  0  0  0
    6.3217   -4.9420    4.5066 H   0  0  0  0  0  0  0  0  0  0  0  0
    3.5156   -4.0492    6.7069 H   0  0  0  0  0  0  0  0  0  0  0  0
    1.9119   -2.3783    6.3421 H   0  0  0  0  0  0  0  0  0  0  0  0
    3.0628   -1.1690    5.9448 H   0  0  0  0  0  0  0  0  0  0  0  0
    1.2317   -2.0302    4.0387 H   0  0  0  0  0  0  0  0  0  0  0  0
    2.6239   -4.3911    4.5796 H   0  0  0  0  0  0  0  0  0  0  0  0
    4.9091   -1.4508    4.7015 H   0  0  0  0  0  0  0  0  0  0  0  0
    6.0602   -2.4028    3.8652 H   0  0  0  0  0  0  0  0  0  0  0  0
    4.6028   -0.2715    2.5301 H   0  0  0  0  0  0  0  0  0  0  0  0
    3.5775   -0.0276    3.9350 H   0  0  0  0  0  0  0  0  0  0  0  0
    2.9264    0.2739    2.3728 H   0  0  0  0  0  0  0  0  0  0  0  0
    2.8601   -3.0263    1.0508 H   0  0  0  0  0  0  0  0  0  0  0  0
    1.4925   -1.9472    1.3267 H   0  0  0  0  0  0  0  0  0  0  0  0
    2.6734   -0.3033    0.0710 H   0  0  0  0  0  0  0  0  0  0  0  0
    4.2534   -0.9956    0.4518 H   0  0  0  0  0  0  0  0  0  0  0  0
    2.5301   -2.8932   -1.0761 H   0  0  0  0  0  0  0  0  0  0  0  0
    5.6819   -0.5095   -1.2013 H   0  0  0  0  0  0  0  0  0  0  0  0
    6.5129   -1.5896   -2.3284 H   0  0  0  0  0  0  0  0  0  0  0  0
    6.3296   -1.9987   -0.6222 H   0  0  0  0  0  0  0  0  0  0  0  0
  2  1  1  6
  1 30  1  0
  1 31  1  0
  1 32  1  0
  2 27  1  0
  2 28  1  0
  2  3  1  0
  3  4  1  0
  3 33  1  0
  3 34  1  0
  4  5  2  0
  4 35  1  0
  5 28  1  0
  5  6  1  0
  6  7  1  0
  6 36  1  0
  6 37  1  0
  7  8  2  0
  7  9  1  0
  9 10  2  3
  9 38  1  0
 10 11  1  0
 10 39  1  0
 11 21  1  0
 11 12  1  0
 11 40  1  6
 12 13  1  0
 12 41  1  0
 12 42  1  0
 13 22  1  0
 13 14  2  0
 14 15  1  0
 14 43  1  0
 15 16  1  0
 15 44  1  0
 15 45  1  0
 16 23  1  0
 16 17  1  0
 16 46  1  1
 17 18  1  0
 17 21  1  0
 17 47  1  1
 18 19  2  0
 18 20  1  0
 21 22  1  1
 21 23  1  0
 22 48  1  0
 22 49  1  0
 23 24  1  1
 23 25  1  0
 24 50  1  0
 24 51  1  0
 24 52  1  0
 25 26  1  0
 25 53  1  0
 25 54  1  0
 26 27  1  0
 26 55  1  0
 26 56  1  0
 27 28  1  0
 27 57  1  6
 28 29  1  1
 29 58  1  0
 29 59  1  0
 29 60  1  0
M  CHG  1  20  -1
M  END
>  <i_m_ct_stereo_status>  (262) 
1

>  <s_m_source_file>  (262) 
/var/tmp/pbs.5076255.sched01/tmpkd0wjm76/823hn9mkkz.sdf

>  <i_m_source_file_index>  (262) 
30

>  <i_lp_mmshare_version>  (262) 
48012

>  <i_f3d_flags>  (262) 
0

>  <s_epik_input>  (262) 
W0NAXTEyM1tDQEhdNC9bQ0hdPVtDSF1cQyg9TylbQ0gyXUM1W0NAQF02KFtDSDNdKVtDQEBdKFtDSDNdKShbQ0gyXVtDSF09NSlbQ0BASF02W0NIMl1bQ0gyXVtDQEBdMyhbQ0gzXSlbQ0BASF0oW0NASF0xQyg9TylbT0hdKVtDSDJdW0NIXT1DKFtDSDJdNClbQ0gyXTI=

>  <s_epik_cmdline>  (262) 
J2VwaWtfcHl0aG9uJywgJy1waHQnLCAnMi4wJywgJy1waCcsICc3LjAnLCAnLXRuJywgJzgnLCAnLW1hJywgJzIwMCcsICctaW1hZScsICc8aW5maWxlLm1hZT4nLCAnLW9tYWUnLCAnPG91dGZpbGUubWFlPic=

>  <r_epik_Ionization_Penalty>  (262) 
0.00227908

>  <r_epik_Ionization_Penalty_Charging>  (262) 
0.00227908

>  <r_epik_Ionization_Penalty_Neutral>  (262) 
0

>  <r_epik_State_Penalty>  (262) 
0.00157066

>  <r_epik_Charging_Adjusted_Penalty>  (262) 
0.00384974

>  <i_epik_Tot_Q>  (262) 
-1

>  <i_epik_Tot_abs_Q>  (262) 
1

>  <s_lp_Force_Field>  (262) 
OPLS3e

>  <r_lp_Energy>  (262) 
193.47

>  <b_lp_Chiralities_Consistent>  (262) 
1

>  <s_lp_Variant>  (262) 
80:0-1

>  <s_i_glide_gridfile>  (262) 
pfpi4k_grid

>  <i_i_glide_lignum>  (262) 
30

>  <i_i_glide_rotatable_bonds>  (262) 
1

>  <r_i_docking_score>  (262) 
-1.29368

>  <r_i_glide_ligand_efficiency>  (262) 
-0.0446097

>  <r_i_glide_ligand_efficiency_sa>  (262) 
-0.137055

>  <r_i_glide_ligand_efficiency_ln>  (262) 
-0.29622

>  <r_i_glide_gscore>  (262) 
-1.29368

>  <r_i_glide_lipo>  (262) 
-0.515975

>  <r_i_glide_hbond>  (262) 
-0.0449084

>  <r_i_glide_metal>  (262) 
-0

>  <r_i_glide_rewards>  (262) 
-0.77492

>  <r_i_glide_evdw>  (262) 
-4.14466

>  <r_i_glide_ecoul>  (262) 
1.74245

>  <r_i_glide_erotb>  (262) 
0

>  <r_i_glide_esite>  (262) 
-0.0120114

>  <r_i_glide_emodel>  (262) 
-1.85693

>  <r_i_glide_energy>  (262) 
-2.40221

>  <r_i_glide_einternal>  (262) 
2.24611

>  <r_i_glide_intrahb_reward>  (262) 
-0

>  <i_i_glide_confnum>  (262) 
1

>  <i_i_glide_posenum>  (262) 
12

>  <r_i_glide_eff_state_penalty>  (262) 
0

>  <ligand_id>  (262) 
80

>  <original_smiles>  (262) 
CC12CC=C3CC(=O)C=CC4CC5=CCC6C(C(=O)O)C4(C5)C6(C)CCC1C32C

>  <smiles>  (262) 
[H]C1=C([H])C2([H])C([H])([H])C3=C([H])C([H])([H])C4([H])C([H])(C(=O)[O-])C2(C3([H])[H])C4(C([H])([H])[H])C([H])([H])C([H])([H])C2([H])C3(C([H])([H])[H])C(=C([H])C([H])([H])C23C([H])([H])[H])C([H])([H])C1=O

$$$$
80:1:0
     RDKit          3D

 60 65  0  0  1  0  0  0  0  0999 V2000
    4.4591   -0.5153   -1.5912 C   0  0  0  0  0  0  0  0  0  0  0  0
    4.9400   -1.8876   -1.1928 C   0  0  2  0  0  0  0  0  0  0  0  0
    5.4420   -2.6477   -2.3925 C   0  0  0  0  0  0  0  0  0  0  0  0
    6.7374   -3.1995   -1.8691 C   0  0  0  0  0  0  0  0  0  0  0  0
    6.9392   -2.9988   -0.5702 C   0  0  0  0  0  0  0  0  0  0  0  0
    8.0802   -3.5065    0.2998 C   0  0  0  0  0  0  0  0  0  0  0  0
    8.0652   -5.0343    0.4830 C   0  0  0  0  0  0  0  0  0  0  0  0
    9.0171   -5.6589    0.0313 O   0  0  0  0  0  0  0  0  0  0  0  0
    6.9731   -5.7325    1.1866 C   0  0  0  0  0  0  0  0  0  0  0  0
    6.0187   -5.0767    1.8914 C   0  0  0  0  0  0  0  0  0  0  0  0
    4.8432   -5.7378    2.5955 C   0  0  1  0  0  0  0  0  0  0  0  0
    5.1646   -6.6382    3.8826 C   0  0  0  0  0  0  0  0  0  0  0  0
    4.7443   -5.7459    5.0783 C   0  0  0  0  0  0  0  0  0  0  0  0
    3.6335   -5.8429    5.8419 C   0  0  0  0  0  0  0  0  0  0  0  0
    2.5085   -4.7231    5.7094 C   0  0  0  0  0  0  0  0  0  0  0  0
    2.1384   -4.3153    4.2059 C   0  0  2  0  0  0  0  0  0  0  0  0
    2.5033   -5.4777    3.3580 C   0  0  1  0  0  0  0  0  0  0  0  0
    1.5498   -5.8937    2.1891 C   0  0  0  0  0  0  0  0  0  0  0  0
    2.0042   -6.2368    1.0928 O   0  0  0  0  0  0  0  0  0  0  0  0
    0.3226   -5.9789    2.4891 O   0  0  0  0  0  0  0  0  0  0  0  0
    3.9238   -4.7243    3.2798 C   0  0  1  0  0  0  0  0  0  0  0  0
    4.8860   -4.4469    4.4788 C   0  0  0  0  0  0  0  0  0  0  0  0
    3.0436   -3.4417    3.1554 C   0  0  2  0  0  0  0  0  0  0  0  0
    3.4725   -2.0961    3.7755 C   0  0  0  0  0  0  0  0  0  0  0  0
    2.5384   -3.0198    1.7234 C   0  0  0  0  0  0  0  0  0  0  0  0
    3.3640   -1.9994    0.8837 C   0  0  0  0  0  0  0  0  0  0  0  0
    4.4500   -2.6205    0.0445 C   0  0  2  0  0  0  0  0  0  0  0  0
    5.8846   -2.1184   -0.0254 C   0  0  2  0  0  0  0  0  0  0  0  0
    6.3697   -0.9768    0.8520 C   0  0  0  0  0  0  0  0  0  0  0  0
    5.2051    0.0182   -2.1819 H   0  0  0  0  0  0  0  0  0  0  0  0
    4.2422    0.0542   -0.6891 H   0  0  0  0  0  0  0  0  0  0  0  0
    3.5395   -0.6013   -2.1815 H   0  0  0  0  0  0  0  0  0  0  0  0
    4.7318   -3.4237   -2.7119 H   0  0  0  0  0  0  0  0  0  0  0  0
    5.6392   -2.0026   -3.2282 H   0  0  0  0  0  0  0  0  0  0  0  0
    7.3820   -3.7763   -2.5371 H   0  0  0  0  0  0  0  0  0  0  0  0
    9.0339   -3.1960   -0.1205 H   0  0  0  0  0  0  0  0  0  0  0  0
    8.0096   -3.0542    1.2740 H   0  0  0  0  0  0  0  0  0  0  0  0
    6.9193   -6.8095    1.1213 H   0  0  0  0  0  0  0  0  0  0  0  0
    6.0559   -4.0075    1.9683 H   0  0  0  0  0  0  0  0  0  0  0  0
    4.3288   -6.3396    1.8511 H   0  0  0  0  0  0  0  0  0  0  0  0
    4.6221   -7.5845    3.8893 H   0  0  0  0  0  0  0  0  0  0  0  0
    6.2407   -6.8588    3.9277 H   0  0  0  0  0  0  0  0  0  0  0  0
    3.2498   -6.8347    6.0669 H   0  0  0  0  0  0  0  0  0  0  0  0
    1.6301   -5.1289    6.2154 H   0  0  0  0  0  0  0  0  0  0  0  0
    2.7828   -3.8598    6.3143 H   0  0  0  0  0  0  0  0  0  0  0  0
    1.0867   -4.0222    4.0929 H   0  0  0  0  0  0  0  0  0  0  0  0
    2.4786   -6.4339    3.8822 H   0  0  0  0  0  0  0  0  0  0  0  0
    4.6762   -3.6884    5.2153 H   0  0  0  0  0  0  0  0  0  0  0  0
    5.9348   -4.2724    4.2253 H   0  0  0  0  0  0  0  0  0  0  0  0
    4.5008   -1.8364    3.5130 H   0  0  0  0  0  0  0  0  0  0  0  0
    3.3974   -2.0917    4.8638 H   0  0  0  0  0  0  0  0  0  0  0  0
    2.8202   -1.2790    3.4787 H   0  0  0  0  0  0  0  0  0  0  0  0
    2.4678   -3.8539    1.0473 H   0  0  0  0  0  0  0  0  0  0  0  0
    1.5169   -2.6208    1.8322 H   0  0  0  0  0  0  0  0  0  0  0  0
    2.6483   -1.6112    0.1647 H   0  0  0  0  0  0  0  0  0  0  0  0
    3.7218   -1.1344    1.4368 H   0  0  0  0  0  0  0  0  0  0  0  0
    4.3304   -3.6898   -0.1354 H   0  0  0  0  0  0  0  0  0  0  0  0
    5.6178   -0.2055    0.9531 H   0  0  0  0  0  0  0  0  0  0  0  0
    7.2651   -0.5281    0.4201 H   0  0  0  0  0  0  0  0  0  0  0  0
    6.6108   -1.3639    1.8422 H   0  0  0  0  0  0  0  0  0  0  0  0
  2  1  1  6
  1 30  1  0
  1 31  1  0
  1 32  1  0
  2 27  1  0
  2 28  1  0
  2  3  1  0
  3  4  1  0
  3 33  1  0
  3 34  1  0
  4  5  2  0
  4 35  1  0
  5 28  1  0
  5  6  1  0
  6  7  1  0
  6 36  1  0
  6 37  1  0
  7  8  2  0
  7  9  1  0
  9 10  2  3
  9 38  1  0
 10 11  1  0
 10 39  1  0
 11 21  1  0
 11 12  1  0
 11 40  1  6
 12 13  1  0
 12 41  1  0
 12 42  1  0
 13 22  1  0
 13 14  2  0
 14 15  1  0
 14 43  1  0
 15 16  1  0
 15 44  1  0
 15 45  1  0
 16 23  1  0
 16 17  1  0
 16 46  1  1
 17 18  1  0
 17 21  1  0
 17 47  1  1
 18 19  2  0
 18 20  1  0
 21 22  1  1
 21 23  1  0
 22 48  1  0
 22 49  1  0
 23 24  1  1
 23 25  1  0
 24 50  1  0
 24 51  1  0
 24 52  1  0
 25 26  1  0
 25 53  1  0
 25 54  1  0
 26 27  1  0
 26 55  1  0
 26 56  1  0
 27 28  1  0
 27 57  1  6
 28 29  1  1
 29 58  1  0
 29 59  1  0
 29 60  1  0
M  CHG  1  20  -1
M  END
>  <i_m_ct_stereo_status>  (263) 
1

>  <s_m_source_file>  (263) 
/var/tmp/pbs.5076255.sched01/tmpkd0wjm76/823hn9mkkz.sdf

>  <i_m_source_file_index>  (263) 
31

>  <i_lp_mmshare_version>  (263) 
48012

>  <i_f3d_flags>  (263) 
0

>  <s_epik_input>  (263) 
W0NAXTEyM1tDQEhdNC9bQ0hdPVtDSF1cQyg9TylbQ0gyXUM1W0NAQF02KFtDSDNdKVtDQEBdKFtDSDNdKShbQ0gyXVtDSF09NSlbQ0BASF02W0NIMl1bQ0gyXVtDQEBdMyhbQ0gzXSlbQ0BASF0oW0NASF0xQyg9TylbT0hdKVtDSDJdW0NIXT1DKFtDSDJdNClbQ0gyXTI=

>  <s_epik_cmdline>  (263) 
J2VwaWtfcHl0aG9uJywgJy1waHQnLCAnMi4wJywgJy1waCcsICc3LjAnLCAnLXRuJywgJzgnLCAnLW1hJywgJzIwMCcsICctaW1hZScsICc8aW5maWxlLm1hZT4nLCAnLW9tYWUnLCAnPG91dGZpbGUubWFlPic=

>  <r_epik_Ionization_Penalty>  (263) 
0.00227908

>  <r_epik_Ionization_Penalty_Charging>  (263) 
0.00227908

>  <r_epik_Ionization_Penalty_Neutral>  (263) 
0

>  <r_epik_State_Penalty>  (263) 
0.00157066

>  <r_epik_Charging_Adjusted_Penalty>  (263) 
0.00384974

>  <i_epik_Tot_Q>  (263) 
-1

>  <i_epik_Tot_abs_Q>  (263) 
1

>  <s_lp_Force_Field>  (263) 
OPLS3e

>  <r_lp_Energy>  (263) 
189.831

>  <b_lp_Chiralities_Consistent>  (263) 
1

>  <s_lp_Variant>  (263) 
80:0-2

>  <s_i_glide_gridfile>  (263) 
pfpi4k_grid

>  <i_i_glide_lignum>  (263) 
31

>  <i_i_glide_rotatable_bonds>  (263) 
1

>  <r_i_docking_score>  (263) 
-3.16581

>  <r_i_glide_ligand_efficiency>  (263) 
-0.109166

>  <r_i_glide_ligand_efficiency_sa>  (263) 
-0.335393

>  <r_i_glide_ligand_efficiency_ln>  (263) 
-0.724891

>  <r_i_glide_gscore>  (263) 
-3.16581

>  <r_i_glide_lipo>  (263) 
-0.650516

>  <r_i_glide_hbond>  (263) 
-0.203383

>  <r_i_glide_metal>  (263) 
-0

>  <r_i_glide_rewards>  (263) 
-0.950482

>  <r_i_glide_evdw>  (263) 
-17.2446

>  <r_i_glide_ecoul>  (263) 
-3.0244

>  <r_i_glide_erotb>  (263) 
0

>  <r_i_glide_esite>  (263) 
-0.0455408

>  <r_i_glide_emodel>  (263) 
-24.3577

>  <r_i_glide_energy>  (263) 
-20.269

>  <r_i_glide_einternal>  (263) 
0.0856156

>  <r_i_glide_intrahb_reward>  (263) 
-0

>  <i_i_glide_confnum>  (263) 
2

>  <i_i_glide_posenum>  (263) 
15

>  <r_i_glide_eff_state_penalty>  (263) 
0

>  <ligand_id>  (263) 
80

>  <original_smiles>  (263) 
CC12CC=C3CC(=O)C=CC4CC5=CCC6C(C(=O)O)C4(C5)C6(C)CCC1C32C

>  <smiles>  (263) 
[H]C1=C([H])C2([H])C([H])([H])C3=C([H])C([H])([H])C4([H])C([H])(C(=O)[O-])C2(C3([H])[H])C4(C([H])([H])[H])C([H])([H])C([H])([H])C2([H])C3(C([H])([H])[H])C(=C([H])C([H])([H])C23C([H])([H])[H])C([H])([H])C1=O

$$$$
80:1:1
     RDKit          3D

 60 65  0  0  1  0  0  0  0  0999 V2000
    2.9752   -2.2549   -2.6547 C   0  0  0  0  0  0  0  0  0  0  0  0
    4.1268   -2.9884   -1.9878 C   0  0  2  0  0  0  0  0  0  0  0  0
    5.1932   -3.3739   -2.9849 C   0  0  0  0  0  0  0  0  0  0  0  0
    6.4548   -3.0785   -2.2257 C   0  0  0  0  0  0  0  0  0  0  0  0
    6.2588   -2.6125   -0.9838 C   0  0  0  0  0  0  0  0  0  0  0  0
    7.3172   -2.2768    0.0481 C   0  0  0  0  0  0  0  0  0  0  0  0
    8.1690   -3.4988    0.4373 C   0  0  0  0  0  0  0  0  0  0  0  0
    9.3707   -3.4631    0.1697 O   0  0  0  0  0  0  0  0  0  0  0  0
    7.5825   -4.6422    1.1699 C   0  0  0  0  0  0  0  0  0  0  0  0
    6.3419   -4.6218    1.6881 C   0  0  0  0  0  0  0  0  0  0  0  0
    5.6764   -5.7805    2.4111 C   0  0  1  0  0  0  0  0  0  0  0  0
    6.2489   -6.1870    3.8562 C   0  0  0  0  0  0  0  0  0  0  0  0
    5.1986   -5.6278    4.8439 C   0  0  0  0  0  0  0  0  0  0  0  0
    4.2302   -6.3243    5.5174 C   0  0  0  0  0  0  0  0  0  0  0  0
    2.7089   -6.1245    5.1205 C   0  0  0  0  0  0  0  0  0  0  0  0
    2.4200   -6.1518    3.5419 C   0  0  2  0  0  0  0  0  0  0  0  0
    3.5446   -6.9343    2.9509 C   0  0  1  0  0  0  0  0  0  0  0  0
    3.2272   -7.9040    1.7798 C   0  0  0  0  0  0  0  0  0  0  0  0
    2.0540   -8.3162    1.6809 O   0  0  0  0  0  0  0  0  0  0  0  0
    4.1729   -8.2428    1.0263 O   0  0  0  0  0  0  0  0  0  0  0  0
    4.2404   -5.4834    2.8481 C   0  0  1  0  0  0  0  0  0  0  0  0
    4.6446   -4.5742    4.0483 C   0  0  0  0  0  0  0  0  0  0  0  0
    2.8185   -5.0203    2.4225 C   0  0  2  0  0  0  0  0  0  0  0  0
    2.2651   -3.6382    2.8387 C   0  0  0  0  0  0  0  0  0  0  0  0
    2.4382   -5.1427    0.8991 C   0  0  0  0  0  0  0  0  0  0  0  0
    2.6104   -3.9110   -0.0432 C   0  0  0  0  0  0  0  0  0  0  0  0
    3.9838   -3.7735   -0.6862 C   0  0  2  0  0  0  0  0  0  0  0  0
    4.8085   -2.5005   -0.7170 C   0  0  2  0  0  0  0  0  0  0  0  0
    4.3739   -1.2375   -0.0037 C   0  0  0  0  0  0  0  0  0  0  0  0
    3.3334   -1.3807   -3.2009 H   0  0  0  0  0  0  0  0  0  0  0  0
    2.2671   -1.9025   -1.9209 H   0  0  0  0  0  0  0  0  0  0  0  0
    2.4320   -2.9215   -3.3262 H   0  0  0  0  0  0  0  0  0  0  0  0
    5.1048   -4.4277   -3.2495 H   0  0  0  0  0  0  0  0  0  0  0  0
    5.1415   -2.7585   -3.8829 H   0  0  0  0  0  0  0  0  0  0  0  0
    7.4170   -3.3112   -2.6418 H   0  0  0  0  0  0  0  0  0  0  0  0
    7.9710   -1.4865   -0.3198 H   0  0  0  0  0  0  0  0  0  0  0  0
    6.8402   -1.8895    0.9420 H   0  0  0  0  0  0  0  0  0  0  0  0
    8.1954   -5.5288    1.2931 H   0  0  0  0  0  0  0  0  0  0  0  0
    5.7283   -3.7386    1.5804 H   0  0  0  0  0  0  0  0  0  0  0  0
    5.7617   -6.6211    1.7347 H   0  0  0  0  0  0  0  0  0  0  0  0
    6.3691   -7.2708    3.9651 H   0  0  0  0  0  0  0  0  0  0  0  0
    7.2143   -5.7126    4.0250 H   0  0  0  0  0  0  0  0  0  0  0  0
    4.4667   -7.3141    5.8783 H   0  0  0  0  0  0  0  0  0  0  0  0
    2.1623   -6.9407    5.5958 H   0  0  0  0  0  0  0  0  0  0  0  0
    2.3045   -5.2265    5.5825 H   0  0  0  0  0  0  0  0  0  0  0  0
    1.4403   -6.5525    3.3058 H   0  0  0  0  0  0  0  0  0  0  0  0
    3.9833   -7.6696    3.6231 H   0  0  0  0  0  0  0  0  0  0  0  0
    3.8981   -4.0363    4.6245 H   0  0  0  0  0  0  0  0  0  0  0  0
    5.4057   -3.8292    3.8445 H   0  0  0  0  0  0  0  0  0  0  0  0
    2.9662   -2.8317    2.6174 H   0  0  0  0  0  0  0  0  0  0  0  0
    2.0217   -3.5902    3.8967 H   0  0  0  0  0  0  0  0  0  0  0  0
    1.3163   -3.4050    2.3730 H   0  0  0  0  0  0  0  0  0  0  0  0
    3.0031   -5.9101    0.3842 H   0  0  0  0  0  0  0  0  0  0  0  0
    1.4094   -5.4853    0.8318 H   0  0  0  0  0  0  0  0  0  0  0  0
    1.9273   -4.0910   -0.8751 H   0  0  0  0  0  0  0  0  0  0  0  0
    2.2936   -2.9714    0.3965 H   0  0  0  0  0  0  0  0  0  0  0  0
    4.5401   -4.6999   -0.6872 H   0  0  0  0  0  0  0  0  0  0  0  0
    3.2988   -1.0866   -0.0896 H   0  0  0  0  0  0  0  0  0  0  0  0
    4.8702   -0.3606   -0.4289 H   0  0  0  0  0  0  0  0  0  0  0  0
    4.6257   -1.3094    1.0565 H   0  0  0  0  0  0  0  0  0  0  0  0
  2  1  1  6
  1 30  1  0
  1 31  1  0
  1 32  1  0
  2 27  1  0
  2 28  1  0
  2  3  1  0
  3  4  1  0
  3 33  1  0
  3 34  1  0
  4  5  2  0
  4 35  1  0
  5 28  1  0
  5  6  1  0
  6  7  1  0
  6 36  1  0
  6 37  1  0
  7  8  2  0
  7  9  1  0
  9 10  2  3
  9 38  1  0
 10 11  1  0
 10 39  1  0
 11 21  1  0
 11 12  1  0
 11 40  1  6
 12 13  1  0
 12 41  1  0
 12 42  1  0
 13 22  1  0
 13 14  2  0
 14 15  1  0
 14 43  1  0
 15 16  1  0
 15 44  1  0
 15 45  1  0
 16 23  1  0
 16 17  1  0
 16 46  1  1
 17 18  1  0
 17 21  1  0
 17 47  1  1
 18 19  2  0
 18 20  1  0
 21 22  1  1
 21 23  1  0
 22 48  1  0
 22 49  1  0
 23 24  1  1
 23 25  1  0
 24 50  1  0
 24 51  1  0
 24 52  1  0
 25 26  1  0
 25 53  1  0
 25 54  1  0
 26 27  1  0
 26 55  1  0
 26 56  1  0
 27 28  1  0
 27 57  1  6
 28 29  1  1
 29 58  1  0
 29 59  1  0
 29 60  1  0
M  CHG  1  20  -1
M  END
>  <i_m_ct_stereo_status>  (264) 
1

>  <s_m_source_file>  (264) 
/var/tmp/pbs.5076255.sched01/tmpkd0wjm76/823hn9mkkz.sdf

>  <i_m_source_file_index>  (264) 
31

>  <i_lp_mmshare_version>  (264) 
48012

>  <i_f3d_flags>  (264) 
0

>  <s_epik_input>  (264) 
W0NAXTEyM1tDQEhdNC9bQ0hdPVtDSF1cQyg9TylbQ0gyXUM1W0NAQF02KFtDSDNdKVtDQEBdKFtDSDNdKShbQ0gyXVtDSF09NSlbQ0BASF02W0NIMl1bQ0gyXVtDQEBdMyhbQ0gzXSlbQ0BASF0oW0NASF0xQyg9TylbT0hdKVtDSDJdW0NIXT1DKFtDSDJdNClbQ0gyXTI=

>  <s_epik_cmdline>  (264) 
J2VwaWtfcHl0aG9uJywgJy1waHQnLCAnMi4wJywgJy1waCcsICc3LjAnLCAnLXRuJywgJzgnLCAnLW1hJywgJzIwMCcsICctaW1hZScsICc8aW5maWxlLm1hZT4nLCAnLW9tYWUnLCAnPG91dGZpbGUubWFlPic=

>  <r_epik_Ionization_Penalty>  (264) 
0.00227908

>  <r_epik_Ionization_Penalty_Charging>  (264) 
0.00227908

>  <r_epik_Ionization_Penalty_Neutral>  (264) 
0

>  <r_epik_State_Penalty>  (264) 
0.00157066

>  <r_epik_Charging_Adjusted_Penalty>  (264) 
0.00384974

>  <i_epik_Tot_Q>  (264) 
-1

>  <i_epik_Tot_abs_Q>  (264) 
1

>  <s_lp_Force_Field>  (264) 
OPLS3e

>  <r_lp_Energy>  (264) 
189.831

>  <b_lp_Chiralities_Consistent>  (264) 
1

>  <s_lp_Variant>  (264) 
80:0-2

>  <s_i_glide_gridfile>  (264) 
pfpi4k_grid

>  <i_i_glide_lignum>  (264) 
31

>  <i_i_glide_rotatable_bonds>  (264) 
1

>  <r_i_docking_score>  (264) 
-3.05513

>  <r_i_glide_ligand_efficiency>  (264) 
-0.105349

>  <r_i_glide_ligand_efficiency_sa>  (264) 
-0.323667

>  <r_i_glide_ligand_efficiency_ln>  (264) 
-0.699548

>  <r_i_glide_gscore>  (264) 
-3.05513

>  <r_i_glide_lipo>  (264) 
-0.53422

>  <r_i_glide_hbond>  (264) 
-0.135412

>  <r_i_glide_metal>  (264) 
-0

>  <r_i_glide_rewards>  (264) 
-1.04666

>  <r_i_glide_evdw>  (264) 
-23.6559

>  <r_i_glide_ecoul>  (264) 
-1.02729

>  <r_i_glide_erotb>  (264) 
0

>  <r_i_glide_esite>  (264) 
-0.00194807

>  <r_i_glide_emodel>  (264) 
-29.094

>  <r_i_glide_energy>  (264) 
-24.6832

>  <r_i_glide_einternal>  (264) 
0.108954

>  <r_i_glide_intrahb_reward>  (264) 
-0

>  <i_i_glide_confnum>  (264) 
2

>  <i_i_glide_posenum>  (264) 
33

>  <r_i_glide_eff_state_penalty>  (264) 
0

>  <ligand_id>  (264) 
80

>  <original_smiles>  (264) 
CC12CC=C3CC(=O)C=CC4CC5=CCC6C(C(=O)O)C4(C5)C6(C)CCC1C32C

>  <smiles>  (264) 
[H]C1=C([H])C2([H])C([H])([H])C3=C([H])C([H])([H])C4([H])C([H])(C(=O)[O-])C2(C3([H])[H])C4(C([H])([H])[H])C([H])([H])C([H])([H])C2([H])C3(C([H])([H])[H])C(=C([H])C([H])([H])C23C([H])([H])[H])C([H])([H])C1=O

$$$$
80:1:2
     RDKit          3D

 60 65  0  0  1  0  0  0  0  0999 V2000
    4.2610   -6.8246    5.7015 C   0  0  0  0  0  0  0  0  0  0  0  0
    5.3243   -6.0561    4.9321 C   0  0  2  0  0  0  0  0  0  0  0  0
    6.5170   -5.6770    5.7963 C   0  0  0  0  0  0  0  0  0  0  0  0
    7.6736   -5.9109    4.8485 C   0  0  0  0  0  0  0  0  0  0  0  0
    7.3000   -6.3487    3.6418 C   0  0  0  0  0  0  0  0  0  0  0  0
    8.1858   -6.6715    2.4440 C   0  0  0  0  0  0  0  0  0  0  0  0
    8.9551   -5.4607    1.9310 C   0  0  0  0  0  0  0  0  0  0  0  0
   10.1690   -5.4522    2.0737 O   0  0  0  0  0  0  0  0  0  0  0  0
    8.2963   -4.3090    1.2735 C   0  0  0  0  0  0  0  0  0  0  0  0
    6.9808   -4.2925    0.9917 C   0  0  0  0  0  0  0  0  0  0  0  0
    6.2177   -3.0923    0.4580 C   0  0  1  0  0  0  0  0  0  0  0  0
    6.5883   -2.6291   -1.0326 C   0  0  0  0  0  0  0  0  0  0  0  0
    5.4109   -3.1609   -1.8858 C   0  0  0  0  0  0  0  0  0  0  0  0
    4.3537   -2.4934   -2.4271 C   0  0  0  0  0  0  0  0  0  0  0  0
    2.9084   -2.7205   -1.8062 C   0  0  0  0  0  0  0  0  0  0  0  0
    2.8491   -2.7541   -0.1865 C   0  0  2  0  0  0  0  0  0  0  0  0
    4.0141   -1.9491    0.2555 C   0  0  1  0  0  0  0  0  0  0  0  0
    3.8787   -1.0049    1.4807 C   0  0  0  0  0  0  0  0  0  0  0  0
    2.7795   -0.9077    2.0683 O   0  0  0  0  0  0  0  0  0  0  0  0
    4.8957   -0.3161    1.7447 O   0  0  0  0  0  0  0  0  0  0  0  0
    4.7474   -3.3866    0.2126 C   0  0  1  0  0  0  0  0  0  0  0  0
    5.0030   -4.2513   -1.0534 C   0  0  0  0  0  0  0  0  0  0  0  0
    3.4133   -3.9094    0.8252 C   0  0  2  0  0  0  0  0  0  0  0  0
    2.7928   -5.2715    0.4434 C   0  0  0  0  0  0  0  0  0  0  0  0
    3.2312   -3.8405    2.3809 C   0  0  0  0  0  0  0  0  0  0  0  0
    3.5453   -5.0866    3.2484 C   0  0  0  0  0  0  0  0  0  0  0  0
    4.9907   -5.2271    3.6957 C   0  0  2  0  0  0  0  0  0  0  0  0
    5.8321   -6.4873    3.5737 C   0  0  2  0  0  0  0  0  0  0  0  0
    5.3021   -7.7313    2.8738 C   0  0  0  0  0  0  0  0  0  0  0  0
    4.6974   -7.7043    6.1754 H   0  0  0  0  0  0  0  0  0  0  0  0
    3.4727   -7.1634    5.0355 H   0  0  0  0  0  0  0  0  0  0  0  0
    3.8110   -6.1902    6.4651 H   0  0  0  0  0  0  0  0  0  0  0  0
    6.4623   -4.6309    6.1016 H   0  0  0  0  0  0  0  0  0  0  0  0
    6.6165   -6.3109    6.6774 H   0  0  0  0  0  0  0  0  0  0  0  0
    8.6932   -5.6963    5.1309 H   0  0  0  0  0  0  0  0  0  0  0  0
    8.8905   -7.4691    2.7130 H   0  0  0  0  0  0  0  0  0  0  0  0
    7.5817   -7.0491    1.6267 H   0  0  0  0  0  0  0  0  0  0  0  0
    8.8798   -3.4184    1.1315 H   0  0  0  0  0  0  0  0  0  0  0  0
    6.3874   -5.1698    1.1929 H   0  0  0  0  0  0  0  0  0  0  0  0
    6.3635   -2.2723    1.1578 H   0  0  0  0  0  0  0  0  0  0  0  0
    6.6600   -1.5475   -1.1233 H   0  0  0  0  0  0  0  0  0  0  0  0
    7.5186   -3.0967   -1.3626 H   0  0  0  0  0  0  0  0  0  0  0  0
    4.5187   -1.4848   -2.7653 H   0  0  0  0  0  0  0  0  0  0  0  0
    2.3006   -1.9013   -2.1833 H   0  0  0  0  0  0  0  0  0  0  0  0
    2.4434   -3.5998   -2.2386 H   0  0  0  0  0  0  0  0  0  0  0  0
    1.9089   -2.4100    0.2271 H   0  0  0  0  0  0  0  0  0  0  0  0
    4.3431   -1.1999   -0.4590 H   0  0  0  0  0  0  0  0  0  0  0  0
    4.2022   -4.7878   -1.5160 H   0  0  0  0  0  0  0  0  0  0  0  0
    5.7818   -5.0053   -0.9697 H   0  0  0  0  0  0  0  0  0  0  0  0
    3.5178   -6.0809    0.5221 H   0  0  0  0  0  0  0  0  0  0  0  0
    2.3965   -5.2732   -0.5688 H   0  0  0  0  0  0  0  0  0  0  0  0
    1.9191   -5.5184    1.0497 H   0  0  0  0  0  0  0  0  0  0  0  0
    3.8625   -3.0813    2.8276 H   0  0  0  0  0  0  0  0  0  0  0  0
    2.2057   -3.5307    2.5966 H   0  0  0  0  0  0  0  0  0  0  0  0
    2.9782   -4.9386    4.1668 H   0  0  0  0  0  0  0  0  0  0  0  0
    3.1797   -6.0204    2.8233 H   0  0  0  0  0  0  0  0  0  0  0  0
    5.5479   -4.2902    3.6354 H   0  0  0  0  0  0  0  0  0  0  0  0
    4.2545   -7.8971    3.1000 H   0  0  0  0  0  0  0  0  0  0  0  0
    5.8587   -8.6131    3.1981 H   0  0  0  0  0  0  0  0  0  0  0  0
    5.4024   -7.6224    1.7928 H   0  0  0  0  0  0  0  0  0  0  0  0
  2  1  1  1
  1 30  1  0
  1 31  1  0
  1 32  1  0
  2 27  1  0
  2 28  1  0
  2  3  1  0
  3  4  1  0
  3 33  1  0
  3 34  1  0
  4  5  2  0
  4 35  1  0
  5 28  1  0
  5  6  1  0
  6  7  1  0
  6 36  1  0
  6 37  1  0
  7  8  2  0
  7  9  1  0
  9 10  2  3
  9 38  1  0
 10 11  1  0
 10 39  1  0
 11 21  1  0
 11 12  1  0
 11 40  1  1
 12 13  1  0
 12 41  1  0
 12 42  1  0
 13 22  1  0
 13 14  2  0
 14 15  1  0
 14 43  1  0
 15 16  1  0
 15 44  1  0
 15 45  1  0
 16 23  1  0
 16 17  1  0
 16 46  1  6
 17 18  1  0
 17 21  1  0
 17 47  1  6
 18 19  2  0
 18 20  1  0
 21 22  1  6
 21 23  1  0
 22 48  1  0
 22 49  1  0
 23 24  1  6
 23 25  1  0
 24 50  1  0
 24 51  1  0
 24 52  1  0
 25 26  1  0
 25 53  1  0
 25 54  1  0
 26 27  1  0
 26 55  1  0
 26 56  1  0
 27 28  1  0
 27 57  1  1
 28 29  1  6
 29 58  1  0
 29 59  1  0
 29 60  1  0
M  CHG  1  20  -1
M  END
>  <i_m_ct_stereo_status>  (265) 
1

>  <s_m_source_file>  (265) 
/var/tmp/pbs.5076255.sched01/tmpkd0wjm76/823hn9mkkz.sdf

>  <i_m_source_file_index>  (265) 
31

>  <i_lp_mmshare_version>  (265) 
48012

>  <i_f3d_flags>  (265) 
0

>  <s_epik_input>  (265) 
W0NAXTEyM1tDQEhdNC9bQ0hdPVtDSF1cQyg9TylbQ0gyXUM1W0NAQF02KFtDSDNdKVtDQEBdKFtDSDNdKShbQ0gyXVtDSF09NSlbQ0BASF02W0NIMl1bQ0gyXVtDQEBdMyhbQ0gzXSlbQ0BASF0oW0NASF0xQyg9TylbT0hdKVtDSDJdW0NIXT1DKFtDSDJdNClbQ0gyXTI=

>  <s_epik_cmdline>  (265) 
J2VwaWtfcHl0aG9uJywgJy1waHQnLCAnMi4wJywgJy1waCcsICc3LjAnLCAnLXRuJywgJzgnLCAnLW1hJywgJzIwMCcsICctaW1hZScsICc8aW5maWxlLm1hZT4nLCAnLW9tYWUnLCAnPG91dGZpbGUubWFlPic=

>  <r_epik_Ionization_Penalty>  (265) 
0.00227908

>  <r_epik_Ionization_Penalty_Charging>  (265) 
0.00227908

>  <r_epik_Ionization_Penalty_Neutral>  (265) 
0

>  <r_epik_State_Penalty>  (265) 
0.00157066

>  <r_epik_Charging_Adjusted_Penalty>  (265) 
0.00384974

>  <i_epik_Tot_Q>  (265) 
-1

>  <i_epik_Tot_abs_Q>  (265) 
1

>  <s_lp_Force_Field>  (265) 
OPLS3e

>  <r_lp_Energy>  (265) 
189.831

>  <b_lp_Chiralities_Consistent>  (265) 
1

>  <s_lp_Variant>  (265) 
80:0-2

>  <s_i_glide_gridfile>  (265) 
pfpi4k_grid

>  <i_i_glide_lignum>  (265) 
31

>  <i_i_glide_rotatable_bonds>  (265) 
1

>  <r_i_docking_score>  (265) 
-2.00936

>  <r_i_glide_ligand_efficiency>  (265) 
-0.0692883

>  <r_i_glide_ligand_efficiency_sa>  (265) 
-0.212875

>  <r_i_glide_ligand_efficiency_ln>  (265) 
-0.460092

>  <r_i_glide_gscore>  (265) 
-2.00936

>  <r_i_glide_lipo>  (265) 
-0.521723

>  <r_i_glide_hbond>  (265) 
-0.108851

>  <r_i_glide_metal>  (265) 
-0

>  <r_i_glide_rewards>  (265) 
-0.739619

>  <r_i_glide_evdw>  (265) 
-15.2493

>  <r_i_glide_ecoul>  (265) 
1.09302

>  <r_i_glide_erotb>  (265) 
0

>  <r_i_glide_esite>  (265) 
-0.0406526

>  <r_i_glide_emodel>  (265) 
-16.3358

>  <r_i_glide_energy>  (265) 
-14.1563

>  <r_i_glide_einternal>  (265) 
0.679992

>  <r_i_glide_intrahb_reward>  (265) 
-0

>  <i_i_glide_confnum>  (265) 
2

>  <i_i_glide_posenum>  (265) 
39

>  <r_i_glide_eff_state_penalty>  (265) 
0

>  <ligand_id>  (265) 
80

>  <original_smiles>  (265) 
CC12CC=C3CC(=O)C=CC4CC5=CCC6C(C(=O)O)C4(C5)C6(C)CCC1C32C

>  <smiles>  (265) 
[H]C1=C([H])C2([H])C([H])([H])C3=C([H])C([H])([H])C4([H])C([H])(C(=O)[O-])C2(C3([H])[H])C4(C([H])([H])[H])C([H])([H])C([H])([H])C2([H])C3(C([H])([H])[H])C(=C([H])C([H])([H])C23C([H])([H])[H])C([H])([H])C1=O

$$$$
82:0:0
     RDKit          3D

 51 57  0  0  1  0  0  0  0  0999 V2000
    2.1647   -3.3763   -3.6867 C   0  0  0  0  0  0  0  0  0  0  0  0
    2.7862   -2.3442   -3.1430 C   0  0  0  0  0  0  0  0  0  0  0  0
    3.4320   -1.2246   -3.9709 C   0  0  1  0  0  0  0  0  0  0  0  0
    2.7095   -0.0429   -4.0913 O   0  0  0  0  0  0  0  0  0  0  0  0
    4.6005   -0.9597   -3.0573 C   0  0  0  0  0  0  0  0  0  0  0  0
    4.5772   -1.4750   -1.8858 C   0  0  0  0  0  0  0  0  0  0  0  0
    5.7246   -1.6876   -0.8585 C   0  0  1  0  0  0  0  0  0  0  0  0
    5.6149   -1.0958    0.7845 C   0  0  0  0  0  0  0  0  0  0  0  0
    4.6391   -2.1960    1.8589 C   0  0  1  0  0  0  0  0  0  0  0  0
    4.7698   -1.7127    3.1773 O   0  0  0  0  0  0  0  0  0  0  0  0
    3.0450   -2.5448    1.4575 C   0  0  2  0  0  0  0  0  0  0  0  0
    2.1912   -1.2347    1.6184 C   0  0  0  0  0  0  0  0  0  0  0  0
    2.2447   -3.4014    0.2520 O   0  0  0  0  0  0  0  0  0  0  0  0
    2.9663   -4.4014   -0.8909 C   0  0  2  0  0  0  0  0  0  0  0  0
    4.5633   -4.3630   -1.6120 C   0  0  0  0  0  0  0  0  0  0  0  0
    5.7172   -3.2958   -0.9603 C   0  0  2  0  0  0  0  0  0  0  0  0
    5.7348   -3.4935    0.5276 C   0  0  1  0  0  0  0  0  0  0  0  0
    6.4560   -4.7463    0.4634 O   0  0  0  0  0  0  0  0  0  0  0  0
    7.8365   -4.6403    0.8066 C   0  0  0  0  0  0  0  0  0  0  0  0
    4.0394   -2.8571    0.4654 C   0  0  1  0  0  0  0  0  0  0  0  0
    3.2051   -3.3731   -0.3630 C   0  0  2  0  0  0  0  0  0  0  0  0
    4.0066   -4.6055    0.7752 C   0  0  0  0  0  0  0  0  0  0  0  0
    4.9328   -3.7439    1.6693 C   0  0  2  0  0  0  0  0  0  0  0  0
    5.4503   -4.4793    2.9194 C   0  0  0  0  0  0  0  0  0  0  0  0
    3.2726   -2.2322   -1.6930 C   0  0  2  0  0  0  0  0  0  0  0  0
    1.8756   -4.2256   -3.0751 H   0  0  0  0  0  0  0  0  0  0  0  0
    1.8692   -3.4048   -4.7222 H   0  0  0  0  0  0  0  0  0  0  0  0
    3.7017   -1.5921   -4.9522 H   0  0  0  0  0  0  0  0  0  0  0  0
    2.6254    0.3571   -3.2348 H   0  0  0  0  0  0  0  0  0  0  0  0
    5.4015   -0.4163   -3.4163 H   0  0  0  0  0  0  0  0  0  0  0  0
    6.6142   -1.2823   -1.3338 H   0  0  0  0  0  0  0  0  0  0  0  0
    6.6311   -1.0536    1.1811 H   0  0  0  0  0  0  0  0  0  0  0  0
    5.2285   -0.0718    0.8007 H   0  0  0  0  0  0  0  0  0  0  0  0
    4.2494   -2.2701    3.7425 H   0  0  0  0  0  0  0  0  0  0  0  0
    2.6004   -0.5564    2.3652 H   0  0  0  0  0  0  0  0  0  0  0  0
    1.1697   -1.5031    1.9075 H   0  0  0  0  0  0  0  0  0  0  0  0
    2.1698   -0.6344    0.7076 H   0  0  0  0  0  0  0  0  0  0  0  0
    2.5050   -5.3616   -0.5985 H   0  0  0  0  0  0  0  0  0  0  0  0
    5.0019   -5.3695   -1.5651 H   0  0  0  0  0  0  0  0  0  0  0  0
    4.5164   -4.2368   -2.6949 H   0  0  0  0  0  0  0  0  0  0  0  0
    6.6688   -3.5329   -1.4496 H   0  0  0  0  0  0  0  0  0  0  0  0
    8.2990   -5.6261    0.7345 H   0  0  0  0  0  0  0  0  0  0  0  0
    7.9638   -4.2952    1.8314 H   0  0  0  0  0  0  0  0  0  0  0  0
    8.3730   -3.9549    0.1486 H   0  0  0  0  0  0  0  0  0  0  0  0
    3.7028   -1.8268    0.1827 H   0  0  0  0  0  0  0  0  0  0  0  0
    3.2862   -5.0260    1.4955 H   0  0  0  0  0  0  0  0  0  0  0  0
    4.4179   -5.5811    0.4481 H   0  0  0  0  0  0  0  0  0  0  0  0
    5.8145   -5.4917    2.7043 H   0  0  0  0  0  0  0  0  0  0  0  0
    4.7204   -4.5023    3.7257 H   0  0  0  0  0  0  0  0  0  0  0  0
    6.2045   -3.8617    3.3383 H   0  0  0  0  0  0  0  0  0  0  0  0
    2.6174   -1.3979   -1.3916 H   0  0  0  0  0  0  0  0  0  0  0  0
  1  2  2  0
  1 26  1  0
  1 27  1  0
  2 25  1  0
  2  3  1  0
  3  4  1  0
  3  5  1  0
  3 28  1  6
  4 29  1  0
  5  6  2  0
  5 30  1  0
  6 25  1  0
  6  7  1  0
  7 16  1  0
  7  8  1  0
  7 31  1  6
  8  9  1  0
  8 32  1  0
  8 33  1  0
  9 23  1  0
  9 10  1  1
  9 11  1  0
 10 34  1  0
 11 20  1  0
 11 12  1  6
 11 13  1  0
 12 35  1  0
 12 36  1  0
 12 37  1  0
 13 14  1  0
 14 21  1  0
 14 15  1  0
 14 38  1  6
 15 16  1  0
 15 39  1  0
 15 40  1  0
 16 17  1  0
 16 41  1  6
 17 23  1  0
 17 18  1  1
 17 20  1  0
 18 19  1  0
 19 42  1  0
 19 43  1  0
 19 44  1  0
 20 21  1  0
 20 45  1  6
 21 22  1  1
 21 25  1  0
 22 23  1  0
 22 46  1  0
 22 47  1  0
 23 24  1  1
 24 48  1  0
 24 49  1  0
 24 50  1  0
 25 51  1  1
M  END
>  <i_m_ct_stereo_status>  (266) 
1

>  <s_m_source_file>  (266) 
/var/tmp/pbs.5076255.sched01/tmpkd0wjm76/823hn9mkkz.sdf

>  <i_m_source_file_index>  (266) 
34

>  <i_lp_mmshare_version>  (266) 
48012

>  <i_f3d_flags>  (266) 
0

>  <s_epik_input>  (266) 
W09IXVtDQEBIXShbQ0hdPTEpQyg9W0NIMl0pW0NAQEhdMkMxW0NAQEhdKFtDSDJdMylbQ0BIXShbQ0gyXTQpQyhbQ0BIXTU2KShPW0NIM10pW0NAQF0oW0NIMl03KShbQ0gzXSlbQ0BdMyhbT0hdKVtDQF01KFtDSDNdKU9bQ0hdNEMyNjc=

>  <s_epik_cmdline>  (266) 
J2VwaWtfcHl0aG9uJywgJy1waHQnLCAnMi4wJywgJy1waCcsICc3LjAnLCAnLXRuJywgJzgnLCAnLW1hJywgJzIwMCcsICctaW1hZScsICc8aW5maWxlLm1hZT4nLCAnLW9tYWUnLCAnPG91dGZpbGUubWFlPic=

>  <r_lp_tautomer_probability>  (266) 
1

>  <r_epik_Ionization_Penalty>  (266) 
1.23897e-07

>  <r_epik_Ionization_Penalty_Charging>  (266) 
0

>  <r_epik_Ionization_Penalty_Neutral>  (266) 
1.23897e-07

>  <r_epik_State_Penalty>  (266) 
-0

>  <r_epik_Charging_Adjusted_Penalty>  (266) 
0

>  <i_epik_Tot_Q>  (266) 
0

>  <i_epik_Tot_abs_Q>  (266) 
0

>  <s_lp_Force_Field>  (266) 
OPLS3e

>  <r_lp_Energy>  (266) 
944.921

>  <b_lp_Chiralities_Consistent>  (266) 
1

>  <s_lp_Variant>  (266) 
82:0-1

>  <s_i_glide_gridfile>  (266) 
pfpi4k_grid

>  <i_i_glide_lignum>  (266) 
34

>  <i_i_glide_rotatable_bonds>  (266) 
3

>  <r_i_docking_score>  (266) 
-2.57708

>  <r_i_glide_ligand_efficiency>  (266) 
-0.103083

>  <r_i_glide_ligand_efficiency_sa>  (266) 
-0.301417

>  <r_i_glide_ligand_efficiency_ln>  (266) 
-0.610846

>  <r_i_glide_gscore>  (266) 
-2.57708

>  <r_i_glide_lipo>  (266) 
-0.939352

>  <r_i_glide_hbond>  (266) 
-0.133875

>  <r_i_glide_metal>  (266) 
-0

>  <r_i_glide_rewards>  (266) 
-1.07435

>  <r_i_glide_evdw>  (266) 
-2.88011

>  <r_i_glide_ecoul>  (266) 
-1.90333

>  <r_i_glide_erotb>  (266) 
0

>  <r_i_glide_esite>  (266) 
0

>  <r_i_glide_emodel>  (266) 
-9.31844

>  <r_i_glide_energy>  (266) 
-4.78345

>  <r_i_glide_einternal>  (266) 
0.533482

>  <r_i_glide_intrahb_reward>  (266) 
-0

>  <i_i_glide_confnum>  (266) 
1

>  <i_i_glide_posenum>  (266) 
31

>  <r_i_glide_eff_state_penalty>  (266) 
0

>  <ligand_id>  (266) 
82

>  <original_smiles>  (266) 
C=C1C(O)C=C2C3CC4(O)C5(C)OC6CC3C3(OC)C5C6(CC34C)C12

>  <smiles>  (266) 
[H]OC1([H])C([H])=C2C([H])(C1=C([H])[H])C13C([H])([H])C4(C([H])([H])[H])C5(OC([H])([H])[H])C6([H])C([H])([H])C1([H])OC(C([H])([H])[H])(C53[H])C4(O[H])C([H])([H])C26[H]

$$$$
84:0:0
     RDKit          3D

 35 38  0  0  1  0  0  0  0  0999 V2000
    1.7577    0.1583    1.5851 O   0  0  0  0  0  0  0  0  0  0  0  0
    1.0223    1.2889    2.0140 C   0  0  2  0  0  0  0  0  0  0  0  0
    1.8924    2.3602    2.7008 C   0  0  0  0  0  0  0  0  0  0  0  0
    1.0709    2.8060    3.9172 C   0  0  2  0  0  0  0  0  0  0  0  0
    1.4110    1.9698    5.1666 C   0  0  0  0  0  0  0  0  0  0  0  0
    0.1572    1.1219    5.3357 C   0  0  1  0  0  0  0  0  0  0  0  0
   -0.9662    2.0728    4.9780 C   0  0  0  0  0  0  0  0  0  0  0  0
   -0.3885    2.3754    3.6114 C   0  0  1  0  0  0  0  0  0  0  0  0
   -1.1252    3.3432    2.8842 O   0  0  0  0  0  0  0  0  0  0  0  0
   -0.1881    0.9914    2.9352 C   0  0  2  0  0  0  0  0  0  0  0  0
    0.0629    0.1203    4.1873 C   0  0  0  0  0  0  0  0  0  0  0  0
    0.0248   -1.2393    4.2286 C   0  0  0  0  0  0  0  0  0  0  0  0
    0.0813   -2.1395    5.4083 C   0  0  0  0  0  0  0  0  0  0  0  0
   -0.2287   -1.7307    6.7287 C   0  0  0  0  0  0  0  0  0  0  0  0
   -0.1271   -2.5043    7.8236 N   0  0  0  0  0  0  0  0  0  0  0  0
    0.2899   -3.7717    7.6716 C   0  0  0  0  0  0  0  0  0  0  0  0
    0.5489   -4.3293    6.4033 C   0  0  0  0  0  0  0  0  0  0  0  0
    0.9935   -5.9990    6.2866 Cl  0  0  0  0  0  0  0  0  0  0  0  0
    0.4436   -3.5058    5.2532 C   0  0  0  0  0  0  0  0  0  0  0  0
    1.3732   -0.1518    0.7659 H   0  0  0  0  0  0  0  0  0  0  0  0
    0.6181    1.7591    1.1143 H   0  0  0  0  0  0  0  0  0  0  0  0
    2.8903    2.0100    2.9700 H   0  0  0  0  0  0  0  0  0  0  0  0
    2.0285    3.2175    2.0424 H   0  0  0  0  0  0  0  0  0  0  0  0
    1.1784    3.8710    4.1553 H   0  0  0  0  0  0  0  0  0  0  0  0
    2.2947    1.3352    5.0685 H   0  0  0  0  0  0  0  0  0  0  0  0
    1.5442    2.5973    6.0524 H   0  0  0  0  0  0  0  0  0  0  0  0
    0.1203    0.8193    6.3740 H   0  0  0  0  0  0  0  0  0  0  0  0
   -1.9396    1.5860    4.9169 H   0  0  0  0  0  0  0  0  0  0  0  0
   -1.0348    2.9375    5.6413 H   0  0  0  0  0  0  0  0  0  0  0  0
   -0.5927    3.6236    2.1295 H   0  0  0  0  0  0  0  0  0  0  0  0
   -1.0746    0.6493    2.3810 H   0  0  0  0  0  0  0  0  0  0  0  0
   -0.1504   -1.7376    3.2897 H   0  0  0  0  0  0  0  0  0  0  0  0
   -0.7132   -0.7919    6.9645 H   0  0  0  0  0  0  0  0  0  0  0  0
    0.3619   -4.3458    8.5889 H   0  0  0  0  0  0  0  0  0  0  0  0
    0.6430   -3.9271    4.2783 H   0  0  0  0  0  0  0  0  0  0  0  0
  1  2  1  0
  1 20  1  0
  2 10  1  0
  2  3  1  0
  2 21  1  6
  3  4  1  0
  3 22  1  0
  3 23  1  0
  4  8  1  0
  4  5  1  0
  4 24  1  1
  5  6  1  0
  5 25  1  0
  5 26  1  0
  6 11  1  0
  6  7  1  0
  6 27  1  1
  7  8  1  0
  7 28  1  0
  7 29  1  0
  8  9  1  6
  8 10  1  0
  9 30  1  0
 10 11  1  0
 10 31  1  6
 11 12  2  3
 12 13  1  0
 12 32  1  0
 13 19  1  0
 13 14  2  0
 14 15  1  0
 14 33  1  0
 15 16  2  0
 16 17  1  0
 16 34  1  0
 17 18  1  0
 17 19  2  0
 19 35  1  0
M  END
>  <i_m_ct_stereo_status>  (267) 
1

>  <s_m_source_file>  (267) 
/var/tmp/pbs.5076255.sched01/tmpkd0wjm76/823hn9mkkz.sdf

>  <i_m_source_file_index>  (267) 
36

>  <i_lp_mmshare_version>  (267) 
48012

>  <i_f3d_flags>  (267) 
0

>  <s_epik_input>  (267) 
W09IXVtDQEBdMTJbQ0BASF0zW0NIMl1bQ0BASF0oW09IXSlbQ0BIXTJDKFxbQ0BASF0oW0NIMl0zKVtDSDJdMSk9W0NIXVxjNFtjSF1uW2NIXWMoQ2wpW2NIXTQ=

>  <s_epik_cmdline>  (267) 
J2VwaWtfcHl0aG9uJywgJy1waHQnLCAnMi4wJywgJy1waCcsICc3LjAnLCAnLXRuJywgJzgnLCAnLW1hJywgJzIwMCcsICctaW1hZScsICc8aW5maWxlLm1hZT4nLCAnLW9tYWUnLCAnPG91dGZpbGUubWFlPic=

>  <r_lp_tautomer_probability>  (267) 
1

>  <r_epik_Ionization_Penalty>  (267) 
0.000271866

>  <r_epik_Ionization_Penalty_Charging>  (267) 
0

>  <r_epik_Ionization_Penalty_Neutral>  (267) 
0.000271866

>  <r_epik_State_Penalty>  (267) 
-0

>  <r_epik_Charging_Adjusted_Penalty>  (267) 
0

>  <i_epik_Tot_Q>  (267) 
0

>  <i_epik_Tot_abs_Q>  (267) 
0

>  <s_lp_Force_Field>  (267) 
OPLS3e

>  <r_lp_Energy>  (267) 
47.0085

>  <b_lp_Chiralities_Consistent>  (267) 
1

>  <s_lp_Variant>  (267) 
84:0-1

>  <s_i_glide_gridfile>  (267) 
pfpi4k_grid

>  <i_i_glide_lignum>  (267) 
36

>  <i_i_glide_rotatable_bonds>  (267) 
3

>  <r_i_docking_score>  (267) 
-4.11828

>  <r_i_glide_ligand_efficiency>  (267) 
-0.216752

>  <r_i_glide_ligand_efficiency_sa>  (267) 
-0.578381

>  <r_i_glide_ligand_efficiency_ln>  (267) 
-1.04407

>  <r_i_glide_gscore>  (267) 
-4.11828

>  <r_i_glide_lipo>  (267) 
0

>  <r_i_glide_hbond>  (267) 
-0.377435

>  <r_i_glide_metal>  (267) 
-0

>  <r_i_glide_rewards>  (267) 
-1.51537

>  <r_i_glide_evdw>  (267) 
-15.2884

>  <r_i_glide_ecoul>  (267) 
-9.74041

>  <r_i_glide_erotb>  (267) 
0

>  <r_i_glide_esite>  (267) 
0

>  <r_i_glide_emodel>  (267) 
-30.128

>  <r_i_glide_energy>  (267) 
-25.0288

>  <r_i_glide_einternal>  (267) 
2.36781

>  <r_i_glide_intrahb_reward>  (267) 
-0

>  <i_i_glide_confnum>  (267) 
2

>  <i_i_glide_posenum>  (267) 
40

>  <r_i_glide_eff_state_penalty>  (267) 
0

>  <ligand_id>  (267) 
84

>  <original_smiles>  (267) 
OC1CC2CC3CC2(O)C1C3=Cc1cncc(Cl)c1

>  <smiles>  (267) 
[H]OC1([H])C([H])([H])C2([H])C([H])([H])C3([H])C(=C([H])c4c([H])nc([H])c(Cl)c4[H])C1([H])C2(O[H])C3([H])[H]

$$$$
84:0:1
     RDKit          3D

 35 38  0  0  1  0  0  0  0  0999 V2000
    1.1874   -0.1513    1.6888 O   0  0  0  0  0  0  0  0  0  0  0  0
    0.6529    1.1060    2.0586 C   0  0  2  0  0  0  0  0  0  0  0  0
    1.7187    2.1598    2.4200 C   0  0  0  0  0  0  0  0  0  0  0  0
    1.1642    2.8909    3.6552 C   0  0  2  0  0  0  0  0  0  0  0  0
    1.6210    2.2361    4.9769 C   0  0  0  0  0  0  0  0  0  0  0  0
    0.3214    1.5620    5.4668 C   0  0  1  0  0  0  0  0  0  0  0  0
   -0.7321    2.5855    5.1102 C   0  0  0  0  0  0  0  0  0  0  0  0
   -0.3557    2.5961    3.6487 C   0  0  1  0  0  0  0  0  0  0  0  0
   -1.1300    3.5003    2.8927 O   0  0  0  0  0  0  0  0  0  0  0  0
   -0.4024    1.1103    3.1981 C   0  0  2  0  0  0  0  0  0  0  0  0
   -0.0277    0.4234    4.5142 C   0  0  0  0  0  0  0  0  0  0  0  0
   -0.1943   -0.8901    4.8143 C   0  0  0  0  0  0  0  0  0  0  0  0
    0.0892   -1.5954    6.0931 C   0  0  0  0  0  0  0  0  0  0  0  0
    0.9816   -1.0852    7.0763 C   0  0  0  0  0  0  0  0  0  0  0  0
    1.2125   -1.6650    8.2744 N   0  0  0  0  0  0  0  0  0  0  0  0
    0.6125   -2.8360    8.5411 C   0  0  0  0  0  0  0  0  0  0  0  0
   -0.2786   -3.4508    7.6409 C   0  0  0  0  0  0  0  0  0  0  0  0
   -0.9936   -4.9637    8.0548 Cl  0  0  0  0  0  0  0  0  0  0  0  0
   -0.5505   -2.8157    6.4097 C   0  0  0  0  0  0  0  0  0  0  0  0
    1.0169   -0.3006    0.7514 H   0  0  0  0  0  0  0  0  0  0  0  0
    0.1492    1.4763    1.1640 H   0  0  0  0  0  0  0  0  0  0  0  0
    2.7237    1.7536    2.5758 H   0  0  0  0  0  0  0  0  0  0  0  0
    1.8152    2.8816    1.6061 H   0  0  0  0  0  0  0  0  0  0  0  0
    1.3969    3.9570    3.6592 H   0  0  0  0  0  0  0  0  0  0  0  0
    2.4261    1.5108    4.8440 H   0  0  0  0  0  0  0  0  0  0  0  0
    1.9702    2.9857    5.6929 H   0  0  0  0  0  0  0  0  0  0  0  0
    0.2753    1.3654    6.5329 H   0  0  0  0  0  0  0  0  0  0  0  0
   -1.7383    2.2179    5.2966 H   0  0  0  0  0  0  0  0  0  0  0  0
   -0.5835    3.5395    5.6157 H   0  0  0  0  0  0  0  0  0  0  0  0
   -0.6182    3.7519    2.1109 H   0  0  0  0  0  0  0  0  0  0  0  0
   -1.3969    0.7860    2.8658 H   0  0  0  0  0  0  0  0  0  0  0  0
   -0.5607   -1.5154    4.0153 H   0  0  0  0  0  0  0  0  0  0  0  0
    1.5970   -0.2086    6.9073 H   0  0  0  0  0  0  0  0  0  0  0  0
    0.8584   -3.2765    9.4936 H   0  0  0  0  0  0  0  0  0  0  0  0
   -1.2352   -3.2787    5.7145 H   0  0  0  0  0  0  0  0  0  0  0  0
  1  2  1  0
  1 20  1  0
  2 10  1  0
  2  3  1  0
  2 21  1  6
  3  4  1  0
  3 22  1  0
  3 23  1  0
  4  8  1  0
  4  5  1  0
  4 24  1  1
  5  6  1  0
  5 25  1  0
  5 26  1  0
  6 11  1  0
  6  7  1  0
  6 27  1  1
  7  8  1  0
  7 28  1  0
  7 29  1  0
  8  9  1  6
  8 10  1  0
  9 30  1  0
 10 11  1  0
 10 31  1  6
 11 12  2  3
 12 13  1  0
 12 32  1  0
 13 19  1  0
 13 14  2  0
 14 15  1  0
 14 33  1  0
 15 16  2  0
 16 17  1  0
 16 34  1  0
 17 18  1  0
 17 19  2  0
 19 35  1  0
M  END
>  <i_m_ct_stereo_status>  (268) 
1

>  <s_m_source_file>  (268) 
/var/tmp/pbs.5076255.sched01/tmpkd0wjm76/823hn9mkkz.sdf

>  <i_m_source_file_index>  (268) 
36

>  <i_lp_mmshare_version>  (268) 
48012

>  <i_f3d_flags>  (268) 
0

>  <s_epik_input>  (268) 
W09IXVtDQEBdMTJbQ0BASF0zW0NIMl1bQ0BASF0oW09IXSlbQ0BIXTJDKFxbQ0BASF0oW0NIMl0zKVtDSDJdMSk9W0NIXVxjNFtjSF1uW2NIXWMoQ2wpW2NIXTQ=

>  <s_epik_cmdline>  (268) 
J2VwaWtfcHl0aG9uJywgJy1waHQnLCAnMi4wJywgJy1waCcsICc3LjAnLCAnLXRuJywgJzgnLCAnLW1hJywgJzIwMCcsICctaW1hZScsICc8aW5maWxlLm1hZT4nLCAnLW9tYWUnLCAnPG91dGZpbGUubWFlPic=

>  <r_lp_tautomer_probability>  (268) 
1

>  <r_epik_Ionization_Penalty>  (268) 
0.000271866

>  <r_epik_Ionization_Penalty_Charging>  (268) 
0

>  <r_epik_Ionization_Penalty_Neutral>  (268) 
0.000271866

>  <r_epik_State_Penalty>  (268) 
-0

>  <r_epik_Charging_Adjusted_Penalty>  (268) 
0

>  <i_epik_Tot_Q>  (268) 
0

>  <i_epik_Tot_abs_Q>  (268) 
0

>  <s_lp_Force_Field>  (268) 
OPLS3e

>  <r_lp_Energy>  (268) 
47.0085

>  <b_lp_Chiralities_Consistent>  (268) 
1

>  <s_lp_Variant>  (268) 
84:0-1

>  <s_i_glide_gridfile>  (268) 
pfpi4k_grid

>  <i_i_glide_lignum>  (268) 
36

>  <i_i_glide_rotatable_bonds>  (268) 
3

>  <r_i_docking_score>  (268) 
-3.93904

>  <r_i_glide_ligand_efficiency>  (268) 
-0.207318

>  <r_i_glide_ligand_efficiency_sa>  (268) 
-0.553208

>  <r_i_glide_ligand_efficiency_ln>  (268) 
-0.998632

>  <r_i_glide_gscore>  (268) 
-3.93904

>  <r_i_glide_lipo>  (268) 
-0.0329759

>  <r_i_glide_hbond>  (268) 
-0.304

>  <r_i_glide_metal>  (268) 
-0

>  <r_i_glide_rewards>  (268) 
-1.51537

>  <r_i_glide_evdw>  (268) 
-15.1874

>  <r_i_glide_ecoul>  (268) 
-8.84885

>  <r_i_glide_erotb>  (268) 
0

>  <r_i_glide_esite>  (268) 
0

>  <r_i_glide_emodel>  (268) 
-29.2288

>  <r_i_glide_energy>  (268) 
-24.0363

>  <r_i_glide_einternal>  (268) 
2.76218

>  <r_i_glide_intrahb_reward>  (268) 
-0

>  <i_i_glide_confnum>  (268) 
2

>  <i_i_glide_posenum>  (268) 
27

>  <r_i_glide_eff_state_penalty>  (268) 
0

>  <ligand_id>  (268) 
84

>  <original_smiles>  (268) 
OC1CC2CC3CC2(O)C1C3=Cc1cncc(Cl)c1

>  <smiles>  (268) 
[H]OC1([H])C([H])([H])C2([H])C([H])([H])C3([H])C(=C([H])c4c([H])nc([H])c(Cl)c4[H])C1([H])C2(O[H])C3([H])[H]

$$$$
84:0:2
     RDKit          3D

 35 38  0  0  1  0  0  0  0  0999 V2000
   -0.6192   -1.1822    4.6918 O   0  0  0  0  0  0  0  0  0  0  0  0
   -0.2208    0.1722    4.6962 C   0  0  2  0  0  0  0  0  0  0  0  0
   -1.1218    1.0717    3.8332 C   0  0  0  0  0  0  0  0  0  0  0  0
   -0.1628    1.9884    3.0700 C   0  0  2  0  0  0  0  0  0  0  0  0
    0.2387    1.3711    1.7211 C   0  0  0  0  0  0  0  0  0  0  0  0
    1.6910    0.9842    1.9626 C   0  0  1  0  0  0  0  0  0  0  0  0
    2.2200    2.1290    2.8118 C   0  0  0  0  0  0  0  0  0  0  0  0
    1.1582    1.9361    3.8727 C   0  0  1  0  0  0  0  0  0  0  0  0
    1.2068    2.8659    4.9363 O   0  0  0  0  0  0  0  0  0  0  0  0
    1.2490    0.4444    4.2847 C   0  0  2  0  0  0  0  0  0  0  0  0
    1.7398   -0.1715    2.9616 C   0  0  0  0  0  0  0  0  0  0  0  0
    2.2628   -1.4116    2.8084 C   0  0  0  0  0  0  0  0  0  0  0  0
    2.9282   -2.0327    1.6295 C   0  0  0  0  0  0  0  0  0  0  0  0
    3.0101   -3.4515    1.5428 C   0  0  0  0  0  0  0  0  0  0  0  0
    3.5320   -4.1169    0.4918 N   0  0  0  0  0  0  0  0  0  0  0  0
    3.9879   -3.4216   -0.5674 C   0  0  0  0  0  0  0  0  0  0  0  0
    4.0018   -2.0100   -0.5777 C   0  0  0  0  0  0  0  0  0  0  0  0
    4.6129   -1.1288   -1.9269 Cl  0  0  0  0  0  0  0  0  0  0  0  0
    3.5077   -1.3242    0.5423 C   0  0  0  0  0  0  0  0  0  0  0  0
   -0.4777   -1.5360    3.8278 H   0  0  0  0  0  0  0  0  0  0  0  0
   -0.3383    0.5283    5.7183 H   0  0  0  0  0  0  0  0  0  0  0  0
   -1.7688    0.5110    3.1473 H   0  0  0  0  0  0  0  0  0  0  0  0
   -1.7754    1.6776    4.4641 H   0  0  0  0  0  0  0  0  0  0  0  0
   -0.5524    2.9937    2.9017 H   0  0  0  0  0  0  0  0  0  0  0  0
   -0.3454    0.5042    1.4088 H   0  0  0  0  0  0  0  0  0  0  0  0
    0.1973    2.1010    0.9164 H   0  0  0  0  0  0  0  0  0  0  0  0
    2.1747    0.9145    1.0023 H   0  0  0  0  0  0  0  0  0  0  0  0
    3.2274    1.9403    3.1788 H   0  0  0  0  0  0  0  0  0  0  0  0
    2.1938    3.0882    2.2932 H   0  0  0  0  0  0  0  0  0  0  0  0
    1.2234    3.7271    4.5447 H   0  0  0  0  0  0  0  0  0  0  0  0
    1.9661    0.2626    5.0929 H   0  0  0  0  0  0  0  0  0  0  0  0
    2.2685   -2.0129    3.7041 H   0  0  0  0  0  0  0  0  0  0  0  0
    2.6455   -4.0709    2.3447 H   0  0  0  0  0  0  0  0  0  0  0  0
    4.4054   -3.9733   -1.3945 H   0  0  0  0  0  0  0  0  0  0  0  0
    3.6337   -0.2439    0.5060 H   0  0  0  0  0  0  0  0  0  0  0  0
  1  2  1  0
  1 20  1  0
  2 10  1  0
  2  3  1  0
  2 21  1  1
  3  4  1  0
  3 22  1  0
  3 23  1  0
  4  8  1  0
  4  5  1  0
  4 24  1  6
  5  6  1  0
  5 25  1  0
  5 26  1  0
  6 11  1  0
  6  7  1  0
  6 27  1  6
  7  8  1  0
  7 28  1  0
  7 29  1  0
  8  9  1  1
  8 10  1  0
  9 30  1  0
 10 11  1  0
 10 31  1  1
 11 12  2  3
 12 13  1  0
 12 32  1  0
 13 19  1  0
 13 14  2  0
 14 15  1  0
 14 33  1  0
 15 16  2  0
 16 17  1  0
 16 34  1  0
 17 18  1  0
 17 19  2  0
 19 35  1  0
M  END
>  <i_m_ct_stereo_status>  (269) 
1

>  <s_m_source_file>  (269) 
/var/tmp/pbs.5076255.sched01/tmpkd0wjm76/823hn9mkkz.sdf

>  <i_m_source_file_index>  (269) 
36

>  <i_lp_mmshare_version>  (269) 
48012

>  <i_f3d_flags>  (269) 
0

>  <s_epik_input>  (269) 
W09IXVtDQEBdMTJbQ0BASF0zW0NIMl1bQ0BASF0oW09IXSlbQ0BIXTJDKFxbQ0BASF0oW0NIMl0zKVtDSDJdMSk9W0NIXVxjNFtjSF1uW2NIXWMoQ2wpW2NIXTQ=

>  <s_epik_cmdline>  (269) 
J2VwaWtfcHl0aG9uJywgJy1waHQnLCAnMi4wJywgJy1waCcsICc3LjAnLCAnLXRuJywgJzgnLCAnLW1hJywgJzIwMCcsICctaW1hZScsICc8aW5maWxlLm1hZT4nLCAnLW9tYWUnLCAnPG91dGZpbGUubWFlPic=

>  <r_lp_tautomer_probability>  (269) 
1

>  <r_epik_Ionization_Penalty>  (269) 
0.000271866

>  <r_epik_Ionization_Penalty_Charging>  (269) 
0

>  <r_epik_Ionization_Penalty_Neutral>  (269) 
0.000271866

>  <r_epik_State_Penalty>  (269) 
-0

>  <r_epik_Charging_Adjusted_Penalty>  (269) 
0

>  <i_epik_Tot_Q>  (269) 
0

>  <i_epik_Tot_abs_Q>  (269) 
0

>  <s_lp_Force_Field>  (269) 
OPLS3e

>  <r_lp_Energy>  (269) 
47.0085

>  <b_lp_Chiralities_Consistent>  (269) 
1

>  <s_lp_Variant>  (269) 
84:0-1

>  <s_i_glide_gridfile>  (269) 
pfpi4k_grid

>  <i_i_glide_lignum>  (269) 
36

>  <i_i_glide_rotatable_bonds>  (269) 
3

>  <r_i_docking_score>  (269) 
-3.23162

>  <r_i_glide_ligand_efficiency>  (269) 
-0.170085

>  <r_i_glide_ligand_efficiency_sa>  (269) 
-0.453856

>  <r_i_glide_ligand_efficiency_ln>  (269) 
-0.819286

>  <r_i_glide_gscore>  (269) 
-3.23162

>  <r_i_glide_lipo>  (269) 
-0.0417933

>  <r_i_glide_hbond>  (269) 
0

>  <r_i_glide_metal>  (269) 
-0

>  <r_i_glide_rewards>  (269) 
-1.51537

>  <r_i_glide_evdw>  (269) 
-22.226

>  <r_i_glide_ecoul>  (269) 
-3.75439

>  <r_i_glide_erotb>  (269) 
0

>  <r_i_glide_esite>  (269) 
0

>  <r_i_glide_emodel>  (269) 
-30.8322

>  <r_i_glide_energy>  (269) 
-25.9804

>  <r_i_glide_einternal>  (269) 
0.470031

>  <r_i_glide_intrahb_reward>  (269) 
-0

>  <i_i_glide_confnum>  (269) 
2

>  <i_i_glide_posenum>  (269) 
14

>  <r_i_glide_eff_state_penalty>  (269) 
0

>  <ligand_id>  (269) 
84

>  <original_smiles>  (269) 
OC1CC2CC3CC2(O)C1C3=Cc1cncc(Cl)c1

>  <smiles>  (269) 
[H]OC1([H])C([H])([H])C2([H])C([H])([H])C3([H])C(=C([H])c4c([H])nc([H])c(Cl)c4[H])C1([H])C2(O[H])C3([H])[H]

$$$$
85:0:0
     RDKit          3D

 28 31  0  0  1  0  0  0  0  0999 V2000
   -2.1842    1.2417    7.1631 O   0  0  0  0  0  0  0  0  0  0  0  0
   -1.7171    2.3887    7.2145 C   0  0  0  0  0  0  0  0  0  0  0  0
   -0.9376    3.0170    6.1297 C   0  0  0  0  0  0  0  0  0  0  0  0
   -0.7175    2.2964    4.9692 N   0  0  0  0  0  0  0  0  0  0  0  0
   -1.7009    1.6316    4.1286 C   0  0  0  0  0  0  0  0  0  0  0  0
   -0.8280    0.9708    3.0554 C   0  0  1  0  0  0  0  0  0  0  0  0
    0.2555    2.0028    2.8491 C   0  0  0  0  0  0  0  0  0  0  0  0
    0.5600    2.0018    4.3319 C   0  0  2  0  0  0  0  0  0  0  0  0
    0.8596    0.5146    4.5383 C   0  0  0  0  0  0  0  0  0  0  0  0
   -0.1191   -0.0918    3.6914 O   0  0  0  0  0  0  0  0  0  0  0  0
   -0.4298    4.2586    6.3129 C   0  0  0  0  0  0  0  0  0  0  0  0
   -0.6353    4.9939    7.4817 N   0  0  0  0  0  0  0  0  0  0  0  0
   -1.3299    4.4581    8.4346 C   0  0  0  0  0  0  0  0  0  0  0  0
   -1.7869    5.1174   10.0747 S   0  0  0  0  0  0  0  0  0  0  0  0
   -2.6273    3.6240   10.4407 C   0  0  0  0  0  0  0  0  0  0  0  0
   -2.5784    2.7429    9.4450 C   0  0  0  0  0  0  0  0  0  0  0  0
   -1.8770    3.1654    8.3185 N   0  0  0  0  0  0  0  0  0  0  0  0
   -2.3122    0.9019    4.6564 H   0  0  0  0  0  0  0  0  0  0  0  0
   -2.3606    2.3818    3.6875 H   0  0  0  0  0  0  0  0  0  0  0  0
   -1.3726    0.6656    2.1668 H   0  0  0  0  0  0  0  0  0  0  0  0
    1.0698    1.6435    2.2132 H   0  0  0  0  0  0  0  0  0  0  0  0
   -0.1269    2.9581    2.4864 H   0  0  0  0  0  0  0  0  0  0  0  0
    1.3715    2.6663    4.6242 H   0  0  0  0  0  0  0  0  0  0  0  0
    1.8594    0.2608    4.1889 H   0  0  0  0  0  0  0  0  0  0  0  0
    0.7625    0.2004    5.5766 H   0  0  0  0  0  0  0  0  0  0  0  0
    0.1534    4.7545    5.5452 H   0  0  0  0  0  0  0  0  0  0  0  0
   -3.1139    3.4799   11.3948 H   0  0  0  0  0  0  0  0  0  0  0  0
   -3.0091    1.7520    9.4356 H   0  0  0  0  0  0  0  0  0  0  0  0
  1  2  2  0
  2 17  1  0
  2  3  1  0
  3  4  1  0
  3 11  2  0
  4  8  1  0
  4  5  1  0
  5  6  1  0
  5 18  1  0
  5 19  1  0
  6 10  1  0
  6  7  1  0
  6 20  1  6
  7  8  1  0
  7 21  1  0
  7 22  1  0
  8  9  1  0
  8 23  1  6
  9 10  1  0
  9 24  1  0
  9 25  1  0
 11 12  1  0
 11 26  1  0
 12 13  2  0
 13 17  1  0
 13 14  1  0
 14 15  1  0
 15 16  2  0
 15 27  1  0
 16 17  1  0
 16 28  1  0
M  END
>  <i_m_ct_stereo_status>  (270) 
1

>  <s_m_source_file>  (270) 
/var/tmp/pbs.5076255.sched01/tmpkd0wjm76/823hn9mkkz.sdf

>  <i_m_source_file_index>  (270) 
38

>  <i_lp_mmshare_version>  (270) 
48012

>  <i_f3d_flags>  (270) 
0

>  <s_epik_input>  (270) 
czFbY0hdW2NIXW4oYzEyKWMoPU8pYyhbY0hdbjIpTihbQ0gyXVtDQEBIXTM0KVtDQEhdKFtDSDJdMylbQ0gyXU80

>  <s_epik_cmdline>  (270) 
J2VwaWtfcHl0aG9uJywgJy1waHQnLCAnMi4wJywgJy1waCcsICc3LjAnLCAnLXRuJywgJzgnLCAnLW1hJywgJzIwMCcsICctaW1hZScsICc8aW5maWxlLm1hZT4nLCAnLW9tYWUnLCAnPG91dGZpbGUubWFlPic=

>  <r_lp_tautomer_probability>  (270) 
1

>  <r_epik_Ionization_Penalty>  (270) 
1.01216e-06

>  <r_epik_Ionization_Penalty_Charging>  (270) 
0

>  <r_epik_Ionization_Penalty_Neutral>  (270) 
1.01216e-06

>  <r_epik_State_Penalty>  (270) 
-0

>  <r_epik_Charging_Adjusted_Penalty>  (270) 
0

>  <i_epik_Tot_Q>  (270) 
0

>  <i_epik_Tot_abs_Q>  (270) 
0

>  <s_lp_Force_Field>  (270) 
OPLS3e

>  <r_lp_Energy>  (270) 
48.9548

>  <b_lp_Chiralities_Consistent>  (270) 
1

>  <s_lp_Variant>  (270) 
85:0-1

>  <s_i_glide_gridfile>  (270) 
pfpi4k_grid

>  <i_i_glide_lignum>  (270) 
38

>  <i_i_glide_rotatable_bonds>  (270) 
1

>  <r_i_docking_score>  (270) 
-3.12823

>  <r_i_glide_ligand_efficiency>  (270) 
-0.184014

>  <r_i_glide_ligand_efficiency_sa>  (270) 
-0.473151

>  <r_i_glide_ligand_efficiency_ln>  (270) 
-0.816086

>  <r_i_glide_gscore>  (270) 
-3.12823

>  <r_i_glide_lipo>  (270) 
0

>  <r_i_glide_hbond>  (270) 
-0.16

>  <r_i_glide_metal>  (270) 
-0

>  <r_i_glide_rewards>  (270) 
-1.70939

>  <r_i_glide_evdw>  (270) 
-18.9655

>  <r_i_glide_ecoul>  (270) 
-3.7816

>  <r_i_glide_erotb>  (270) 
0.281368

>  <r_i_glide_esite>  (270) 
-0.0246955

>  <r_i_glide_emodel>  (270) 
-27.0166

>  <r_i_glide_energy>  (270) 
-22.7471

>  <r_i_glide_einternal>  (270) 
1.5801

>  <r_i_glide_intrahb_reward>  (270) 
-0

>  <i_i_glide_confnum>  (270) 
3

>  <i_i_glide_posenum>  (270) 
3

>  <r_i_glide_eff_state_penalty>  (270) 
0

>  <ligand_id>  (270) 
85

>  <original_smiles>  (270) 
O=c1c(N2CC3CC2CO3)cnc2sccn12

>  <smiles>  (270) 
[H]c1nc2sc([H])c([H])n2c(=O)c1N1C([H])([H])C2([H])OC([H])([H])C1([H])C2([H])[H]

$$$$
85:0:1
     RDKit          3D

 28 31  0  0  1  0  0  0  0  0999 V2000
   -1.4291   -0.2604    5.7472 O   0  0  0  0  0  0  0  0  0  0  0  0
   -0.5405   -0.5379    4.9363 C   0  0  0  0  0  0  0  0  0  0  0  0
    0.0367    0.4054    3.9422 C   0  0  0  0  0  0  0  0  0  0  0  0
   -0.4361    1.7057    3.8992 N   0  0  0  0  0  0  0  0  0  0  0  0
    0.2946    2.9195    3.5637 C   0  0  0  0  0  0  0  0  0  0  0  0
   -0.7813    4.0068    3.7028 C   0  0  1  0  0  0  0  0  0  0  0  0
   -2.0061    3.3075    3.1716 C   0  0  0  0  0  0  0  0  0  0  0  0
   -1.7846    2.1830    4.1555 C   0  0  2  0  0  0  0  0  0  0  0  0
   -1.7879    2.9492    5.4695 C   0  0  0  0  0  0  0  0  0  0  0  0
   -1.1023    4.1380    5.0863 O   0  0  0  0  0  0  0  0  0  0  0  0
    1.0406   -0.0258    3.1394 C   0  0  0  0  0  0  0  0  0  0  0  0
    1.5428   -1.3226    3.1821 N   0  0  0  0  0  0  0  0  0  0  0  0
    1.0327   -2.1613    4.0430 C   0  0  0  0  0  0  0  0  0  0  0  0
    1.4210   -3.9174    4.3777 S   0  0  0  0  0  0  0  0  0  0  0  0
    0.2118   -3.9468    5.6445 C   0  0  0  0  0  0  0  0  0  0  0  0
   -0.4174   -2.7839    5.7903 C   0  0  0  0  0  0  0  0  0  0  0  0
    0.0057   -1.7801    4.9154 N   0  0  0  0  0  0  0  0  0  0  0  0
    1.1543    3.0858    4.2146 H   0  0  0  0  0  0  0  0  0  0  0  0
    0.6462    2.8723    2.5354 H   0  0  0  0  0  0  0  0  0  0  0  0
   -0.5338    4.9539    3.2420 H   0  0  0  0  0  0  0  0  0  0  0  0
   -2.9372    3.8555    3.3351 H   0  0  0  0  0  0  0  0  0  0  0  0
   -1.9109    2.9843    2.1327 H   0  0  0  0  0  0  0  0  0  0  0  0
   -2.5388    1.4087    4.0756 H   0  0  0  0  0  0  0  0  0  0  0  0
   -2.7996    3.1887    5.7792 H   0  0  0  0  0  0  0  0  0  0  0  0
   -1.2879    2.4232    6.2766 H   0  0  0  0  0  0  0  0  0  0  0  0
    1.5046    0.6188    2.3970 H   0  0  0  0  0  0  0  0  0  0  0  0
    0.0199   -4.8453    6.2081 H   0  0  0  0  0  0  0  0  0  0  0  0
   -1.2103   -2.5543    6.4927 H   0  0  0  0  0  0  0  0  0  0  0  0
  1  2  2  0
  2 17  1  0
  2  3  1  0
  3  4  1  0
  3 11  2  0
  4  8  1  0
  4  5  1  0
  5  6  1  0
  5 18  1  0
  5 19  1  0
  6 10  1  0
  6  7  1  0
  6 20  1  6
  7  8  1  0
  7 21  1  0
  7 22  1  0
  8  9  1  0
  8 23  1  1
  9 10  1  0
  9 24  1  0
  9 25  1  0
 11 12  1  0
 11 26  1  0
 12 13  2  0
 13 17  1  0
 13 14  1  0
 14 15  1  0
 15 16  2  0
 15 27  1  0
 16 17  1  0
 16 28  1  0
M  END
>  <i_m_ct_stereo_status>  (271) 
1

>  <s_m_source_file>  (271) 
/var/tmp/pbs.5076255.sched01/tmpkd0wjm76/823hn9mkkz.sdf

>  <i_m_source_file_index>  (271) 
38

>  <i_lp_mmshare_version>  (271) 
48012

>  <i_f3d_flags>  (271) 
0

>  <s_epik_input>  (271) 
czFbY0hdW2NIXW4oYzEyKWMoPU8pYyhbY0hdbjIpTihbQ0gyXVtDQEBIXTM0KVtDQEhdKFtDSDJdMylbQ0gyXU80

>  <s_epik_cmdline>  (271) 
J2VwaWtfcHl0aG9uJywgJy1waHQnLCAnMi4wJywgJy1waCcsICc3LjAnLCAnLXRuJywgJzgnLCAnLW1hJywgJzIwMCcsICctaW1hZScsICc8aW5maWxlLm1hZT4nLCAnLW9tYWUnLCAnPG91dGZpbGUubWFlPic=

>  <r_lp_tautomer_probability>  (271) 
1

>  <r_epik_Ionization_Penalty>  (271) 
1.01216e-06

>  <r_epik_Ionization_Penalty_Charging>  (271) 
0

>  <r_epik_Ionization_Penalty_Neutral>  (271) 
1.01216e-06

>  <r_epik_State_Penalty>  (271) 
-0

>  <r_epik_Charging_Adjusted_Penalty>  (271) 
0

>  <i_epik_Tot_Q>  (271) 
0

>  <i_epik_Tot_abs_Q>  (271) 
0

>  <s_lp_Force_Field>  (271) 
OPLS3e

>  <r_lp_Energy>  (271) 
48.9548

>  <b_lp_Chiralities_Consistent>  (271) 
1

>  <s_lp_Variant>  (271) 
85:0-1

>  <s_i_glide_gridfile>  (271) 
pfpi4k_grid

>  <i_i_glide_lignum>  (271) 
38

>  <i_i_glide_rotatable_bonds>  (271) 
1

>  <r_i_docking_score>  (271) 
-3.03497

>  <r_i_glide_ligand_efficiency>  (271) 
-0.178528

>  <r_i_glide_ligand_efficiency_sa>  (271) 
-0.459045

>  <r_i_glide_ligand_efficiency_ln>  (271) 
-0.791757

>  <r_i_glide_gscore>  (271) 
-3.03497

>  <r_i_glide_lipo>  (271) 
-0.0287847

>  <r_i_glide_hbond>  (271) 
-0.0131724

>  <r_i_glide_metal>  (271) 
-0

>  <r_i_glide_rewards>  (271) 
-1.73694

>  <r_i_glide_evdw>  (271) 
-20.5146

>  <r_i_glide_ecoul>  (271) 
-3.19905

>  <r_i_glide_erotb>  (271) 
0.281368

>  <r_i_glide_esite>  (271) 
-0.0318559

>  <r_i_glide_emodel>  (271) 
-28.5733

>  <r_i_glide_energy>  (271) 
-23.7136

>  <r_i_glide_einternal>  (271) 
0.00315113

>  <r_i_glide_intrahb_reward>  (271) 
-0

>  <i_i_glide_confnum>  (271) 
5

>  <i_i_glide_posenum>  (271) 
39

>  <r_i_glide_eff_state_penalty>  (271) 
0

>  <ligand_id>  (271) 
85

>  <original_smiles>  (271) 
O=c1c(N2CC3CC2CO3)cnc2sccn12

>  <smiles>  (271) 
[H]c1nc2sc([H])c([H])n2c(=O)c1N1C([H])([H])C2([H])OC([H])([H])C1([H])C2([H])[H]

$$$$
85:0:2
     RDKit          3D

 28 31  0  0  1  0  0  0  0  0999 V2000
   -1.8409   -0.6193    5.6748 O   0  0  0  0  0  0  0  0  0  0  0  0
   -0.8176   -0.7832    5.0021 C   0  0  0  0  0  0  0  0  0  0  0  0
   -0.2357    0.2259    4.0901 C   0  0  0  0  0  0  0  0  0  0  0  0
   -0.8333    1.4710    4.0011 N   0  0  0  0  0  0  0  0  0  0  0  0
   -1.0133    2.2708    2.7985 C   0  0  0  0  0  0  0  0  0  0  0  0
   -1.7184    3.5289    3.3317 C   0  0  1  0  0  0  0  0  0  0  0  0
   -2.5960    2.9547    4.4178 C   0  0  0  0  0  0  0  0  0  0  0  0
   -1.3971    2.3033    5.0579 C   0  0  2  0  0  0  0  0  0  0  0  0
   -0.4968    3.5179    5.2661 C   0  0  0  0  0  0  0  0  0  0  0  0
   -0.7800    4.2810    4.0953 O   0  0  0  0  0  0  0  0  0  0  0  0
    0.8530   -0.1043    3.3531 C   0  0  0  0  0  0  0  0  0  0  0  0
    1.4796   -1.3476    3.4382 N   0  0  0  0  0  0  0  0  0  0  0  0
    0.9891   -2.2306    4.2586 C   0  0  0  0  0  0  0  0  0  0  0  0
    1.5267   -3.9353    4.6174 S   0  0  0  0  0  0  0  0  0  0  0  0
    0.2119   -4.1098    5.7665 C   0  0  0  0  0  0  0  0  0  0  0  0
   -0.5416   -3.0171    5.8649 C   0  0  0  0  0  0  0  0  0  0  0  0
   -0.1416   -1.9606    5.0449 N   0  0  0  0  0  0  0  0  0  0  0  0
   -0.0915    2.4967    2.2603 H   0  0  0  0  0  0  0  0  0  0  0  0
   -1.6801    1.7300    2.1237 H   0  0  0  0  0  0  0  0  0  0  0  0
   -2.2251    4.1220    2.5757 H   0  0  0  0  0  0  0  0  0  0  0  0
   -3.0527    3.7141    5.0550 H   0  0  0  0  0  0  0  0  0  0  0  0
   -3.3363    2.2418    4.0461 H   0  0  0  0  0  0  0  0  0  0  0  0
   -1.6212    1.8027    5.9938 H   0  0  0  0  0  0  0  0  0  0  0  0
   -0.8093    4.0720    6.1507 H   0  0  0  0  0  0  0  0  0  0  0  0
    0.5532    3.2436    5.3712 H   0  0  0  0  0  0  0  0  0  0  0  0
    1.3149    0.6006    2.6668 H   0  0  0  0  0  0  0  0  0  0  0  0
    0.0596   -5.0344    6.3029 H   0  0  0  0  0  0  0  0  0  0  0  0
   -1.4175   -2.8819    6.4852 H   0  0  0  0  0  0  0  0  0  0  0  0
  1  2  2  0
  2 17  1  0
  2  3  1  0
  3  4  1  0
  3 11  2  0
  4  8  1  0
  4  5  1  0
  5  6  1  0
  5 18  1  0
  5 19  1  0
  6 10  1  0
  6  7  1  0
  6 20  1  6
  7  8  1  0
  7 21  1  0
  7 22  1  0
  8  9  1  0
  8 23  1  1
  9 10  1  0
  9 24  1  0
  9 25  1  0
 11 12  1  0
 11 26  1  0
 12 13  2  0
 13 17  1  0
 13 14  1  0
 14 15  1  0
 15 16  2  0
 15 27  1  0
 16 17  1  0
 16 28  1  0
M  END
>  <i_m_ct_stereo_status>  (272) 
1

>  <s_m_source_file>  (272) 
/var/tmp/pbs.5076255.sched01/tmpkd0wjm76/823hn9mkkz.sdf

>  <i_m_source_file_index>  (272) 
38

>  <i_lp_mmshare_version>  (272) 
48012

>  <i_f3d_flags>  (272) 
0

>  <s_epik_input>  (272) 
czFbY0hdW2NIXW4oYzEyKWMoPU8pYyhbY0hdbjIpTihbQ0gyXVtDQEBIXTM0KVtDQEhdKFtDSDJdMylbQ0gyXU80

>  <s_epik_cmdline>  (272) 
J2VwaWtfcHl0aG9uJywgJy1waHQnLCAnMi4wJywgJy1waCcsICc3LjAnLCAnLXRuJywgJzgnLCAnLW1hJywgJzIwMCcsICctaW1hZScsICc8aW5maWxlLm1hZT4nLCAnLW9tYWUnLCAnPG91dGZpbGUubWFlPic=

>  <r_lp_tautomer_probability>  (272) 
1

>  <r_epik_Ionization_Penalty>  (272) 
1.01216e-06

>  <r_epik_Ionization_Penalty_Charging>  (272) 
0

>  <r_epik_Ionization_Penalty_Neutral>  (272) 
1.01216e-06

>  <r_epik_State_Penalty>  (272) 
-0

>  <r_epik_Charging_Adjusted_Penalty>  (272) 
0

>  <i_epik_Tot_Q>  (272) 
0

>  <i_epik_Tot_abs_Q>  (272) 
0

>  <s_lp_Force_Field>  (272) 
OPLS3e

>  <r_lp_Energy>  (272) 
48.9548

>  <b_lp_Chiralities_Consistent>  (272) 
1

>  <s_lp_Variant>  (272) 
85:0-1

>  <s_i_glide_gridfile>  (272) 
pfpi4k_grid

>  <i_i_glide_lignum>  (272) 
38

>  <i_i_glide_rotatable_bonds>  (272) 
1

>  <r_i_docking_score>  (272) 
-2.94101

>  <r_i_glide_ligand_efficiency>  (272) 
-0.173001

>  <r_i_glide_ligand_efficiency_sa>  (272) 
-0.444833

>  <r_i_glide_ligand_efficiency_ln>  (272) 
-0.767244

>  <r_i_glide_gscore>  (272) 
-2.94101

>  <r_i_glide_lipo>  (272) 
-0.00631594

>  <r_i_glide_hbond>  (272) 
-0.0490114

>  <r_i_glide_metal>  (272) 
-0

>  <r_i_glide_rewards>  (272) 
-1.72933

>  <r_i_glide_evdw>  (272) 
-20.6465

>  <r_i_glide_ecoul>  (272) 
-2.48177

>  <r_i_glide_erotb>  (272) 
0.281368

>  <r_i_glide_esite>  (272) 
-0.0331362

>  <r_i_glide_emodel>  (272) 
-27.2824

>  <r_i_glide_energy>  (272) 
-23.1282

>  <r_i_glide_einternal>  (272) 
1.16662

>  <r_i_glide_intrahb_reward>  (272) 
-0

>  <i_i_glide_confnum>  (272) 
2

>  <i_i_glide_posenum>  (272) 
8

>  <r_i_glide_eff_state_penalty>  (272) 
0

>  <ligand_id>  (272) 
85

>  <original_smiles>  (272) 
O=c1c(N2CC3CC2CO3)cnc2sccn12

>  <smiles>  (272) 
[H]c1nc2sc([H])c([H])n2c(=O)c1N1C([H])([H])C2([H])OC([H])([H])C1([H])C2([H])[H]

$$$$
86:0:0
     RDKit          3D

 44 51  0  0  1  0  0  0  0  0999 V2000
    3.2157   -2.0746   -3.7938 C   0  0  0  0  0  0  0  0  0  0  0  0
    3.9211   -2.2169   -2.4726 C   0  0  0  0  0  0  0  0  0  0  0  0
    4.3537   -3.3588   -1.9056 C   0  0  0  0  0  0  0  0  0  0  0  0
    4.9359   -3.1161   -0.5483 C   0  0  2  0  0  0  0  0  0  0  0  0
    5.1078   -1.5986   -0.4990 C   0  0  1  0  0  0  0  0  0  0  0  0
    4.1713   -1.0331   -1.5803 C   0  0  0  0  0  0  0  0  0  0  0  0
    5.1673   -0.9023    0.8739 C   0  0  1  0  0  0  0  0  0  0  0  0
    3.9226   -0.4744    1.6557 C   0  0  0  0  0  0  0  0  0  0  0  0
    2.7670   -1.1842    1.6634 N   0  0  0  0  0  0  0  0  0  0  0  0
    2.9102   -2.5604    2.1616 C   0  0  0  0  0  0  0  0  0  0  0  0
    4.3437   -2.7380    2.7408 C   0  0  2  0  0  0  0  0  0  0  0  0
    4.3502   -2.2500    4.2061 C   0  0  0  0  0  0  0  0  0  0  0  0
    4.4139   -0.7176    4.1117 C   0  0  0  0  0  0  0  0  0  0  0  0
    4.7742   -0.4758    2.7236 N   0  0  0  0  0  0  0  0  0  0  0  0
    5.3607   -1.7003    2.1540 C   0  0  2  0  0  0  0  0  0  0  0  0
    4.7432   -4.2315    2.7367 C   0  0  1  0  0  0  0  0  0  0  0  0
    5.0681   -5.2637    1.6318 C   0  0  2  0  0  0  0  0  0  0  0  0
    5.9805   -5.1566    0.4244 C   0  0  2  0  0  0  0  0  0  0  0  0
    6.2058   -3.8721   -0.2505 C   0  0  2  0  0  0  0  0  0  0  0  0
    6.8417   -4.1306    1.1428 C   0  0  1  0  0  0  0  0  0  0  0  0
    6.1390   -4.5576    2.4292 C   0  0  1  0  0  0  0  0  0  0  0  0
    2.2301   -1.6278   -3.6379 H   0  0  0  0  0  0  0  0  0  0  0  0
    3.0802   -3.0418   -4.2831 H   0  0  0  0  0  0  0  0  0  0  0  0
    3.7965   -1.4228   -4.4445 H   0  0  0  0  0  0  0  0  0  0  0  0
    4.2581   -4.3387   -2.3310 H   0  0  0  0  0  0  0  0  0  0  0  0
    4.1504   -3.4523    0.1074 H   0  0  0  0  0  0  0  0  0  0  0  0
    6.1008   -1.4574   -0.9354 H   0  0  0  0  0  0  0  0  0  0  0  0
    4.6457   -0.2220   -2.1405 H   0  0  0  0  0  0  0  0  0  0  0  0
    3.2227   -0.6778   -1.1683 H   0  0  0  0  0  0  0  0  0  0  0  0
    5.8578   -0.0508    0.7710 H   0  0  0  0  0  0  0  0  0  0  0  0
    2.1641   -2.7232    2.9426 H   0  0  0  0  0  0  0  0  0  0  0  0
    2.6384   -3.2555    1.3736 H   0  0  0  0  0  0  0  0  0  0  0  0
    3.4920   -2.6108    4.7690 H   0  0  0  0  0  0  0  0  0  0  0  0
    5.2443   -2.6102    4.7128 H   0  0  0  0  0  0  0  0  0  0  0  0
    3.4470   -0.2651    4.3316 H   0  0  0  0  0  0  0  0  0  0  0  0
    5.1654   -0.3089    4.7881 H   0  0  0  0  0  0  0  0  0  0  0  0
    6.4034   -1.8077    2.4502 H   0  0  0  0  0  0  0  0  0  0  0  0
    4.3112   -4.7321    3.6016 H   0  0  0  0  0  0  0  0  0  0  0  0
    4.6911   -6.2649    1.8608 H   0  0  0  0  0  0  0  0  0  0  0  0
    6.5361   -6.0403    0.1191 H   0  0  0  0  0  0  0  0  0  0  0  0
    6.9288   -3.8498   -1.0657 H   0  0  0  0  0  0  0  0  0  0  0  0
    7.9383   -4.1412    1.1290 H   0  0  0  0  0  0  0  0  0  0  0  0
    6.7010   -5.2013    3.1140 H   0  0  0  0  0  0  0  0  0  0  0  0
    1.8926   -0.6919    1.7742 H   0  0  0  0  0  0  0  0  0  0  0  0
  1  2  1  0
  1 22  1  0
  1 23  1  0
  1 24  1  0
  2  6  1  0
  2  3  2  0
  3  4  1  0
  3 25  1  0
  4 19  1  0
  4  5  1  0
  4 26  1  1
  5  6  1  0
  5  7  1  0
  5 27  1  6
  6 28  1  0
  6 29  1  0
  7 15  1  0
  7  8  1  0
  7 30  1  6
  8 14  1  0
  8  9  2  0
  9 10  1  0
  9 44  1  0
 11 10  1  6
 10 31  1  0
 10 32  1  0
 11 15  1  0
 11 12  1  0
 11 16  1  0
 12 13  1  0
 12 33  1  0
 12 34  1  0
 13 14  1  0
 13 35  1  0
 13 36  1  0
 14 15  1  0
 15 37  1  1
 16 21  1  0
 16 17  1  0
 16 38  1  1
 17 21  1  0
 17 18  1  0
 17 39  1  1
 18 20  1  0
 18 19  1  0
 18 40  1  6
 19 20  1  0
 19 41  1  6
 20 21  1  0
 20 42  1  1
 21 43  1  1
M  CHG  1   9   1
M  END
>  <i_m_ct_stereo_status>  (273) 
1

>  <s_m_source_file>  (273) 
/var/tmp/pbs.5076255.sched01/tmpkd0wjm76/823hn9mkkz.sdf

>  <i_m_source_file_index>  (273) 
39

>  <i_lp_mmshare_version>  (273) 
48012

>  <i_f3d_flags>  (273) 
2

>  <s_epik_input>  (273) 
W0NASF0xMltDQEhdM1tDQEBIXTRbQ0BIXTNbQ0BIXTFbQ0BASF0yW0NASF0oW0NIXT1DKFtDSDNdKVtDSDJdNSlbQ0BIXTVbQ0BIXShbQ0BASF02W0NAXTQ3OClDKD1OW0NIMl03KU42W0NIMl1bQ0gyXTg=

>  <s_epik_cmdline>  (273) 
J2VwaWtfcHl0aG9uJywgJy1waHQnLCAnMi4wJywgJy1waCcsICc3LjAnLCAnLXRuJywgJzgnLCAnLW1hJywgJzIwMCcsICctaW1hZScsICc8aW5maWxlLm1hZT4nLCAnLW9tYWUnLCAnPG91dGZpbGUubWFlPic=

>  <r_lp_tautomer_probability>  (273) 
1

>  <r_epik_Ionization_Penalty>  (273) 
4.67535e-07

>  <r_epik_Ionization_Penalty_Charging>  (273) 
4.67475e-07

>  <r_epik_Ionization_Penalty_Neutral>  (273) 
5.98244e-11

>  <r_epik_State_Penalty>  (273) 
-0

>  <r_epik_Charging_Adjusted_Penalty>  (273) 
4.67475e-07

>  <i_epik_Tot_Q>  (273) 
1

>  <i_epik_Tot_abs_Q>  (273) 
1

>  <s_epik_Chemistry_Notes>  (273) 
This compound has an imine and may undergo hydrolysis.

>  <s_lp_Force_Field>  (273) 
OPLS3e

>  <r_lp_Energy>  (273) 
120.649

>  <b_lp_Chiralities_Consistent>  (273) 
0

>  <s_lp_Variant>  (273) 
86:0-1

>  <s_i_glide_gridfile>  (273) 
pfpi4k_grid

>  <i_i_glide_lignum>  (273) 
39

>  <i_i_glide_rotatable_bonds>  (273) 
0

>  <r_i_docking_score>  (273) 
-3.9134

>  <r_i_glide_ligand_efficiency>  (273) 
-0.186352

>  <r_i_glide_ligand_efficiency_sa>  (273) 
-0.514132

>  <r_i_glide_ligand_efficiency_ln>  (273) 
-0.96758

>  <r_i_glide_gscore>  (273) 
-3.9134

>  <r_i_glide_lipo>  (273) 
-0.841037

>  <r_i_glide_hbond>  (273) 
0

>  <r_i_glide_metal>  (273) 
-0

>  <r_i_glide_rewards>  (273) 
-1.71702

>  <r_i_glide_evdw>  (273) 
-21.6988

>  <r_i_glide_ecoul>  (273) 
-1.50206

>  <r_i_glide_erotb>  (273) 
0

>  <r_i_glide_esite>  (273) 
-0.0450938

>  <r_i_glide_emodel>  (273) 
-28.7267

>  <r_i_glide_energy>  (273) 
-23.2009

>  <r_i_glide_einternal>  (273) 
0

>  <r_i_glide_intrahb_reward>  (273) 
-0

>  <i_i_glide_confnum>  (273) 
2

>  <i_i_glide_posenum>  (273) 
8

>  <r_i_glide_eff_state_penalty>  (273) 
0

>  <ligand_id>  (273) 
86

>  <original_smiles>  (273) 
CC1=CC2C(C1)C1C3=NCC4(CCN3C14)C1C3C4C2C4C31

>  <smiles>  (273) 
[H]C1=C(C([H])([H])[H])C([H])([H])C2([H])C3([H])C4=[N+]([H])C([H])([H])C5(C([H])([H])C([H])([H])N4C35[H])C3([H])C4([H])C5([H])C([H])(C12[H])C5([H])C43[H]

$$$$
86:0:1
     RDKit          3D

 44 51  0  0  1  0  0  0  0  0999 V2000
    3.6247   -1.4197   -4.0969 C   0  0  0  0  0  0  0  0  0  0  0  0
    4.0277   -1.8840   -2.7298 C   0  0  0  0  0  0  0  0  0  0  0  0
    3.6759   -3.0409   -2.1361 C   0  0  0  0  0  0  0  0  0  0  0  0
    4.2106   -3.1108   -0.7318 C   0  0  2  0  0  0  0  0  0  0  0  0
    5.2344   -1.9721   -0.6768 C   0  0  1  0  0  0  0  0  0  0  0  0
    4.8631   -1.0180   -1.8225 C   0  0  0  0  0  0  0  0  0  0  0  0
    5.5941   -1.3732    0.6991 C   0  0  1  0  0  0  0  0  0  0  0  0
    4.7784   -0.2693    1.3664 C   0  0  0  0  0  0  0  0  0  0  0  0
    3.4292   -0.1694    1.2832 N   0  0  0  0  0  0  0  0  0  0  0  0
    2.7128   -1.3484    1.8004 C   0  0  0  0  0  0  0  0  0  0  0  0
    3.7374   -2.2870    2.5014 C   0  0  2  0  0  0  0  0  0  0  0  0
    3.9321   -1.8188    3.9572 C   0  0  0  0  0  0  0  0  0  0  0  0
    4.8837   -0.6103    3.8558 C   0  0  0  0  0  0  0  0  0  0  0  0
    5.4023   -0.6934    2.5079 N   0  0  0  0  0  0  0  0  0  0  0  0
    5.2052   -2.0652    1.9899 C   0  0  2  0  0  0  0  0  0  0  0  0
    3.2051   -3.7380    2.5337 C   0  0  1  0  0  0  0  0  0  0  0  0
    2.9505   -4.8256    1.4790 C   0  0  2  0  0  0  0  0  0  0  0  0
    3.8151   -5.3270    0.3328 C   0  0  2  0  0  0  0  0  0  0  0  0
    4.7854   -4.4439   -0.3343 C   0  0  2  0  0  0  0  0  0  0  0  0
    5.0792   -4.9612    1.1011 C   0  0  1  0  0  0  0  0  0  0  0  0
    4.1902   -4.8160    2.3395 C   0  0  1  0  0  0  0  0  0  0  0  0
    3.0706   -0.4797   -4.0283 H   0  0  0  0  0  0  0  0  0  0  0  0
    2.9915   -2.1611   -4.5931 H   0  0  0  0  0  0  0  0  0  0  0  0
    4.5170   -1.2592   -4.7059 H   0  0  0  0  0  0  0  0  0  0  0  0
    3.0456   -3.8044   -2.5541 H   0  0  0  0  0  0  0  0  0  0  0  0
    3.3399   -2.8994   -0.1405 H   0  0  0  0  0  0  0  0  0  0  0  0
    6.1484   -2.4533   -1.0353 H   0  0  0  0  0  0  0  0  0  0  0  0
    5.7545   -0.6583   -2.3371 H   0  0  0  0  0  0  0  0  0  0  0  0
    4.2684   -0.1780   -1.4860 H   0  0  0  0  0  0  0  0  0  0  0  0
    6.6556   -1.0907    0.6536 H   0  0  0  0  0  0  0  0  0  0  0  0
    1.9620   -1.0118    2.5133 H   0  0  0  0  0  0  0  0  0  0  0  0
    2.1433   -1.8045    0.9934 H   0  0  0  0  0  0  0  0  0  0  0  0
    2.9958   -1.5843    4.4536 H   0  0  0  0  0  0  0  0  0  0  0  0
    4.4209   -2.6016    4.5381 H   0  0  0  0  0  0  0  0  0  0  0  0
    4.3484    0.3271    3.9926 H   0  0  0  0  0  0  0  0  0  0  0  0
    5.6914   -0.6811    4.5902 H   0  0  0  0  0  0  0  0  0  0  0  0
    5.9650   -2.7464    2.3740 H   0  0  0  0  0  0  0  0  0  0  0  0
    2.5109   -3.8521    3.3651 H   0  0  0  0  0  0  0  0  0  0  0  0
    2.0719   -5.4459    1.6986 H   0  0  0  0  0  0  0  0  0  0  0  0
    3.7665   -6.3736    0.0633 H   0  0  0  0  0  0  0  0  0  0  0  0
    5.4145   -4.9007   -1.1027 H   0  0  0  0  0  0  0  0  0  0  0  0
    5.9279   -5.6277    1.1758 H   0  0  0  0  0  0  0  0  0  0  0  0
    4.2317   -5.6316    3.0719 H   0  0  0  0  0  0  0  0  0  0  0  0
    2.9995    0.7345    1.3649 H   0  0  0  0  0  0  0  0  0  0  0  0
  1  2  1  0
  1 22  1  0
  1 23  1  0
  1 24  1  0
  2  6  1  0
  2  3  2  0
  3  4  1  0
  3 25  1  0
  4 19  1  0
  4  5  1  0
  4 26  1  1
  5  6  1  0
  5  7  1  0
  5 27  1  6
  6 28  1  0
  6 29  1  0
  7 15  1  0
  7  8  1  0
  7 30  1  6
  8 14  1  0
  8  9  2  0
  9 10  1  0
  9 44  1  0
 11 10  1  6
 10 31  1  0
 10 32  1  0
 11 15  1  0
 11 12  1  0
 11 16  1  0
 12 13  1  0
 12 33  1  0
 12 34  1  0
 13 14  1  0
 13 35  1  0
 13 36  1  0
 14 15  1  0
 15 37  1  1
 16 21  1  0
 16 17  1  0
 16 38  1  1
 17 21  1  0
 17 18  1  0
 17 39  1  1
 18 20  1  0
 18 19  1  0
 18 40  1  6
 19 20  1  0
 19 41  1  6
 20 21  1  0
 20 42  1  1
 21 43  1  1
M  CHG  1   9   1
M  END
>  <i_m_ct_stereo_status>  (274) 
1

>  <s_m_source_file>  (274) 
/var/tmp/pbs.5076255.sched01/tmpkd0wjm76/823hn9mkkz.sdf

>  <i_m_source_file_index>  (274) 
39

>  <i_lp_mmshare_version>  (274) 
48012

>  <i_f3d_flags>  (274) 
2

>  <s_epik_input>  (274) 
W0NASF0xMltDQEhdM1tDQEBIXTRbQ0BIXTNbQ0BIXTFbQ0BASF0yW0NASF0oW0NIXT1DKFtDSDNdKVtDSDJdNSlbQ0BIXTVbQ0BIXShbQ0BASF02W0NAXTQ3OClDKD1OW0NIMl03KU42W0NIMl1bQ0gyXTg=

>  <s_epik_cmdline>  (274) 
J2VwaWtfcHl0aG9uJywgJy1waHQnLCAnMi4wJywgJy1waCcsICc3LjAnLCAnLXRuJywgJzgnLCAnLW1hJywgJzIwMCcsICctaW1hZScsICc8aW5maWxlLm1hZT4nLCAnLW9tYWUnLCAnPG91dGZpbGUubWFlPic=

>  <r_lp_tautomer_probability>  (274) 
1

>  <r_epik_Ionization_Penalty>  (274) 
4.67535e-07

>  <r_epik_Ionization_Penalty_Charging>  (274) 
4.67475e-07

>  <r_epik_Ionization_Penalty_Neutral>  (274) 
5.98244e-11

>  <r_epik_State_Penalty>  (274) 
-0

>  <r_epik_Charging_Adjusted_Penalty>  (274) 
4.67475e-07

>  <i_epik_Tot_Q>  (274) 
1

>  <i_epik_Tot_abs_Q>  (274) 
1

>  <s_epik_Chemistry_Notes>  (274) 
This compound has an imine and may undergo hydrolysis.

>  <s_lp_Force_Field>  (274) 
OPLS3e

>  <r_lp_Energy>  (274) 
120.649

>  <b_lp_Chiralities_Consistent>  (274) 
0

>  <s_lp_Variant>  (274) 
86:0-1

>  <s_i_glide_gridfile>  (274) 
pfpi4k_grid

>  <i_i_glide_lignum>  (274) 
39

>  <i_i_glide_rotatable_bonds>  (274) 
0

>  <r_i_docking_score>  (274) 
-3.68633

>  <r_i_glide_ligand_efficiency>  (274) 
-0.175539

>  <r_i_glide_ligand_efficiency_sa>  (274) 
-0.4843

>  <r_i_glide_ligand_efficiency_ln>  (274) 
-0.911437

>  <r_i_glide_gscore>  (274) 
-3.68633

>  <r_i_glide_lipo>  (274) 
-0.358949

>  <r_i_glide_hbond>  (274) 
0

>  <r_i_glide_metal>  (274) 
-0

>  <r_i_glide_rewards>  (274) 
-1.84179

>  <r_i_glide_evdw>  (274) 
-24.7481

>  <r_i_glide_ecoul>  (274) 
-1.59669

>  <r_i_glide_erotb>  (274) 
0

>  <r_i_glide_esite>  (274) 
-0.00867989

>  <r_i_glide_emodel>  (274) 
-31.7033

>  <r_i_glide_energy>  (274) 
-26.3448

>  <r_i_glide_einternal>  (274) 
0

>  <r_i_glide_intrahb_reward>  (274) 
-0

>  <i_i_glide_confnum>  (274) 
1

>  <i_i_glide_posenum>  (274) 
1

>  <r_i_glide_eff_state_penalty>  (274) 
0

>  <ligand_id>  (274) 
86

>  <original_smiles>  (274) 
CC1=CC2C(C1)C1C3=NCC4(CCN3C14)C1C3C4C2C4C31

>  <smiles>  (274) 
[H]C1=C(C([H])([H])[H])C([H])([H])C2([H])C3([H])C4=[N+]([H])C([H])([H])C5(C([H])([H])C([H])([H])N4C35[H])C3([H])C4([H])C5([H])C([H])(C12[H])C5([H])C43[H]

$$$$
86:0:2
     RDKit          3D

 44 51  0  0  1  0  0  0  0  0999 V2000
    3.7094   -0.9831   -3.4408 C   0  0  0  0  0  0  0  0  0  0  0  0
    4.0537   -1.6929   -2.1461 C   0  0  0  0  0  0  0  0  0  0  0  0
    3.8726   -2.9790   -1.8615 C   0  0  0  0  0  0  0  0  0  0  0  0
    4.2757   -3.2972   -0.4579 C   0  0  2  0  0  0  0  0  0  0  0  0
    5.0538   -2.0589   -0.0174 C   0  0  1  0  0  0  0  0  0  0  0  0
    4.6282   -0.9354   -0.9765 C   0  0  0  0  0  0  0  0  0  0  0  0
    5.1690   -1.7548    1.4887 C   0  0  1  0  0  0  0  0  0  0  0  0
    4.0973   -0.9809    2.2680 C   0  0  0  0  0  0  0  0  0  0  0  0
    2.7723   -1.0836    2.0266 N   0  0  0  0  0  0  0  0  0  0  0  0
    2.2399   -2.4561    2.1705 C   0  0  0  0  0  0  0  0  0  0  0  0
    3.3454   -3.3527    2.7838 C   0  0  2  0  0  0  0  0  0  0  0  0
    3.3099   -3.2172    4.3236 C   0  0  0  0  0  0  0  0  0  0  0  0
    4.0273   -1.8869    4.6070 C   0  0  0  0  0  0  0  0  0  0  0  0
    4.6836   -1.5680    3.3575 N   0  0  0  0  0  0  0  0  0  0  0  0
    4.7820   -2.7862    2.5320 C   0  0  2  0  0  0  0  0  0  0  0  0
    3.0903   -4.8354    2.4346 C   0  0  1  0  0  0  0  0  0  0  0  0
    3.1550   -5.6693    1.1463 C   0  0  2  0  0  0  0  0  0  0  0  0
    4.2027   -5.7256    0.0616 C   0  0  2  0  0  0  0  0  0  0  0  0
    5.0486   -4.5726   -0.2768 C   0  0  2  0  0  0  0  0  0  0  0  0
    5.2842   -5.3657    1.0472 C   0  0  1  0  0  0  0  0  0  0  0  0
    4.2796   -5.6540    2.1564 C   0  0  1  0  0  0  0  0  0  0  0  0
    2.9918   -0.1829   -3.2356 H   0  0  0  0  0  0  0  0  0  0  0  0
    3.2638   -1.6751   -4.1597 H   0  0  0  0  0  0  0  0  0  0  0  0
    4.6090   -0.5568   -3.8648 H   0  0  0  0  0  0  0  0  0  0  0  0
    3.4410   -3.7272   -2.5266 H   0  0  0  0  0  0  0  0  0  0  0  0
    3.3216   -3.3766    0.0428 H   0  0  0  0  0  0  0  0  0  0  0  0
    6.0743   -2.2873   -0.3453 H   0  0  0  0  0  0  0  0  0  0  0  0
    5.4736   -0.3265   -1.2877 H   0  0  0  0  0  0  0  0  0  0  0  0
    3.8669   -0.2858   -0.5326 H   0  0  0  0  0  0  0  0  0  0  0  0
    6.1579   -1.3004    1.6563 H   0  0  0  0  0  0  0  0  0  0  0  0
    1.3720   -2.4164    2.8316 H   0  0  0  0  0  0  0  0  0  0  0  0
    1.8491   -2.7783    1.2168 H   0  0  0  0  0  0  0  0  0  0  0  0
    2.3007   -3.2609    4.7202 H   0  0  0  0  0  0  0  0  0  0  0  0
    3.8769   -4.0276    4.7768 H   0  0  0  0  0  0  0  0  0  0  0  0
    3.3106   -1.1046    4.8728 H   0  0  0  0  0  0  0  0  0  0  0  0
    4.7535   -1.9972    5.4147 H   0  0  0  0  0  0  0  0  0  0  0  0
    5.6264   -3.4045    2.8649 H   0  0  0  0  0  0  0  0  0  0  0  0
    2.3516   -5.2545    3.1175 H   0  0  0  0  0  0  0  0  0  0  0  0
    2.3884   -6.4566    1.1011 H   0  0  0  0  0  0  0  0  0  0  0  0
    4.3751   -6.6831   -0.4341 H   0  0  0  0  0  0  0  0  0  0  0  0
    5.8130   -4.7314   -1.0281 H   0  0  0  0  0  0  0  0  0  0  0  0
    6.2432   -5.8937    1.0880 H   0  0  0  0  0  0  0  0  0  0  0  0
    4.3964   -6.6195    2.6821 H   0  0  0  0  0  0  0  0  0  0  0  0
    2.1758   -0.2896    2.2053 H   0  0  0  0  0  0  0  0  0  0  0  0
  1  2  1  0
  1 22  1  0
  1 23  1  0
  1 24  1  0
  2  6  1  0
  2  3  2  0
  3  4  1  0
  3 25  1  0
  4 19  1  0
  4  5  1  0
  4 26  1  1
  5  6  1  0
  5  7  1  0
  5 27  1  6
  6 28  1  0
  6 29  1  0
  7 15  1  0
  7  8  1  0
  7 30  1  6
  8 14  1  0
  8  9  2  0
  9 10  1  0
  9 44  1  0
 11 10  1  6
 10 31  1  0
 10 32  1  0
 11 15  1  0
 11 12  1  0
 11 16  1  0
 12 13  1  0
 12 33  1  0
 12 34  1  0
 13 14  1  0
 13 35  1  0
 13 36  1  0
 14 15  1  0
 15 37  1  1
 16 21  1  0
 16 17  1  0
 16 38  1  1
 17 21  1  0
 17 18  1  0
 17 39  1  1
 18 20  1  0
 18 19  1  0
 18 40  1  6
 19 20  1  0
 19 41  1  6
 20 21  1  0
 20 42  1  1
 21 43  1  1
M  CHG  1   9   1
M  END
>  <i_m_ct_stereo_status>  (275) 
1

>  <s_m_source_file>  (275) 
/var/tmp/pbs.5076255.sched01/tmpkd0wjm76/823hn9mkkz.sdf

>  <i_m_source_file_index>  (275) 
39

>  <i_lp_mmshare_version>  (275) 
48012

>  <i_f3d_flags>  (275) 
2

>  <s_epik_input>  (275) 
W0NASF0xMltDQEhdM1tDQEBIXTRbQ0BIXTNbQ0BIXTFbQ0BASF0yW0NASF0oW0NIXT1DKFtDSDNdKVtDSDJdNSlbQ0BIXTVbQ0BIXShbQ0BASF02W0NAXTQ3OClDKD1OW0NIMl03KU42W0NIMl1bQ0gyXTg=

>  <s_epik_cmdline>  (275) 
J2VwaWtfcHl0aG9uJywgJy1waHQnLCAnMi4wJywgJy1waCcsICc3LjAnLCAnLXRuJywgJzgnLCAnLW1hJywgJzIwMCcsICctaW1hZScsICc8aW5maWxlLm1hZT4nLCAnLW9tYWUnLCAnPG91dGZpbGUubWFlPic=

>  <r_lp_tautomer_probability>  (275) 
1

>  <r_epik_Ionization_Penalty>  (275) 
4.67535e-07

>  <r_epik_Ionization_Penalty_Charging>  (275) 
4.67475e-07

>  <r_epik_Ionization_Penalty_Neutral>  (275) 
5.98244e-11

>  <r_epik_State_Penalty>  (275) 
-0

>  <r_epik_Charging_Adjusted_Penalty>  (275) 
4.67475e-07

>  <i_epik_Tot_Q>  (275) 
1

>  <i_epik_Tot_abs_Q>  (275) 
1

>  <s_epik_Chemistry_Notes>  (275) 
This compound has an imine and may undergo hydrolysis.

>  <s_lp_Force_Field>  (275) 
OPLS3e

>  <r_lp_Energy>  (275) 
120.649

>  <b_lp_Chiralities_Consistent>  (275) 
0

>  <s_lp_Variant>  (275) 
86:0-1

>  <s_i_glide_gridfile>  (275) 
pfpi4k_grid

>  <i_i_glide_lignum>  (275) 
39

>  <i_i_glide_rotatable_bonds>  (275) 
0

>  <r_i_docking_score>  (275) 
-3.44762

>  <r_i_glide_ligand_efficiency>  (275) 
-0.164172

>  <r_i_glide_ligand_efficiency_sa>  (275) 
-0.452939

>  <r_i_glide_ligand_efficiency_ln>  (275) 
-0.852417

>  <r_i_glide_gscore>  (275) 
-3.44762

>  <r_i_glide_lipo>  (275) 
-0.458976

>  <r_i_glide_hbond>  (275) 
0

>  <r_i_glide_metal>  (275) 
-0

>  <r_i_glide_rewards>  (275) 
-1.60369

>  <r_i_glide_evdw>  (275) 
-21.4659

>  <r_i_glide_ecoul>  (275) 
-1.8913

>  <r_i_glide_erotb>  (275) 
0

>  <r_i_glide_esite>  (275) 
-0.0279582

>  <r_i_glide_emodel>  (275) 
-27.929

>  <r_i_glide_energy>  (275) 
-23.3572

>  <r_i_glide_einternal>  (275) 
0

>  <r_i_glide_intrahb_reward>  (275) 
-0

>  <i_i_glide_confnum>  (275) 
2

>  <i_i_glide_posenum>  (275) 
11

>  <r_i_glide_eff_state_penalty>  (275) 
0

>  <ligand_id>  (275) 
86

>  <original_smiles>  (275) 
CC1=CC2C(C1)C1C3=NCC4(CCN3C14)C1C3C4C2C4C31

>  <smiles>  (275) 
[H]C1=C(C([H])([H])[H])C([H])([H])C2([H])C3([H])C4=[N+]([H])C([H])([H])C5(C([H])([H])C([H])([H])N4C35[H])C3([H])C4([H])C5([H])C([H])(C12[H])C5([H])C43[H]

$$$$
87:0:0
     RDKit          3D

 48 51  0  0  1  0  0  0  0  0999 V2000
   -2.1170    4.9455    3.2617 O   0  0  0  0  0  0  0  0  0  0  0  0
   -2.1697    3.7148    3.1351 C   0  0  0  0  0  0  0  0  0  0  0  0
   -3.1905    3.0987    2.5531 N   0  0  0  0  0  0  0  0  0  0  0  0
   -4.3411    3.6876    1.8789 C   0  0  0  0  0  0  0  0  0  0  0  0
   -4.3465    5.1881    1.5998 C   0  0  0  0  0  0  0  0  0  0  0  0
   -5.5565    6.0152    2.0230 C   0  0  0  0  0  0  0  0  0  0  0  0
   -5.2665    5.7935    0.5620 C   0  0  0  0  0  0  0  0  0  0  0  0
   -1.0415    2.9574    3.7951 C   0  0  2  0  0  0  0  0  0  0  0  0
   -1.4109    2.7332    5.2915 C   0  0  0  0  0  0  0  0  0  0  0  0
   -0.8155    3.8093    5.9705 O   0  0  0  0  0  0  0  0  0  0  0  0
    0.4623    3.9895    5.4037 C   0  0  0  0  0  0  0  0  0  0  0  0
    0.2639    3.8162    3.8814 C   0  0  1  0  0  0  0  0  0  0  0  0
    1.3398    3.0056    3.1657 C   0  0  0  0  0  0  0  0  0  0  0  0
    0.8583    1.6015    3.2370 N   0  0  2  0  0  0  0  0  0  0  0  0
    1.5642    0.6557    2.3449 C   0  0  0  0  0  0  0  0  0  0  0  0
    1.2825   -0.8000    2.7792 C   0  0  0  0  0  0  0  0  0  0  0  0
    2.1166   -1.7752    1.9497 C   0  0  0  0  0  0  0  0  0  0  0  0
    3.4990   -1.4662    2.0838 O   0  0  0  0  0  0  0  0  0  0  0  0
    3.8224   -0.1777    1.5755 C   0  0  0  0  0  0  0  0  0  0  0  0
    3.0943    0.8757    2.3945 C   0  0  0  0  0  0  0  0  0  0  0  0
   -0.6104    1.6767    3.0457 C   0  0  0  0  0  0  0  0  0  0  0  0
   -3.1837    2.0824    2.6005 H   0  0  0  0  0  0  0  0  0  0  0  0
   -4.4421    3.1436    0.9299 H   0  0  0  0  0  0  0  0  0  0  0  0
   -5.2251    3.4020    2.4441 H   0  0  0  0  0  0  0  0  0  0  0  0
   -3.3662    5.6433    1.5641 H   0  0  0  0  0  0  0  0  0  0  0  0
   -6.4355    5.5026    2.4586 H   0  0  0  0  0  0  0  0  0  0  0  0
   -5.3131    6.9701    2.4784 H   0  0  0  0  0  0  0  0  0  0  0  0
   -4.7790    6.5795   -0.0081 H   0  0  0  0  0  0  0  0  0  0  0  0
   -5.8882    5.1058   -0.0455 H   0  0  0  0  0  0  0  0  0  0  0  0
   -2.4979    2.7660    5.4616 H   0  0  0  0  0  0  0  0  0  0  0  0
   -1.0437    1.7585    5.6702 H   0  0  0  0  0  0  0  0  0  0  0  0
    0.8352    4.9982    5.6195 H   0  0  0  0  0  0  0  0  0  0  0  0
    1.1723    3.2356    5.8116 H   0  0  0  0  0  0  0  0  0  0  0  0
    0.1512    4.8004    3.4036 H   0  0  0  0  0  0  0  0  0  0  0  0
    1.3938    3.3466    2.1193 H   0  0  0  0  0  0  0  0  0  0  0  0
    2.3270    3.1620    3.6475 H   0  0  0  0  0  0  0  0  0  0  0  0
    1.2351    0.7989    1.3117 H   0  0  0  0  0  0  0  0  0  0  0  0
    1.5226   -0.9173    3.8349 H   0  0  0  0  0  0  0  0  0  0  0  0
    0.2211   -1.0279    2.6811 H   0  0  0  0  0  0  0  0  0  0  0  0
    1.9492   -2.7919    2.3047 H   0  0  0  0  0  0  0  0  0  0  0  0
    1.8123   -1.7498    0.9024 H   0  0  0  0  0  0  0  0  0  0  0  0
    4.8981   -0.0179    1.6527 H   0  0  0  0  0  0  0  0  0  0  0  0
    3.5572   -0.0930    0.5186 H   0  0  0  0  0  0  0  0  0  0  0  0
    3.3574    1.8596    1.9991 H   0  0  0  0  0  0  0  0  0  0  0  0
    3.4456    0.8542    3.4289 H   0  0  0  0  0  0  0  0  0  0  0  0
   -1.1087    0.7680    3.4172 H   0  0  0  0  0  0  0  0  0  0  0  0
   -0.8005    1.7673    1.9636 H   0  0  0  0  0  0  0  0  0  0  0  0
    1.0207    1.3225    4.2074 H   0  0  0  0  0  0  0  0  0  0  0  0
  1  2  2  0
  2  3  1  0
  8  2  1  6
  3  4  1  0
  3 22  1  0
  4  5  1  0
  4 23  1  0
  4 24  1  0
  5  7  1  0
  5  6  1  0
  5 25  1  0
  6  7  1  0
  6 26  1  0
  6 27  1  0
  7 28  1  0
  7 29  1  0
  8 12  1  0
  8 21  1  0
  8  9  1  0
  9 10  1  0
  9 30  1  0
  9 31  1  0
 10 11  1  0
 11 12  1  0
 11 32  1  0
 11 33  1  0
 12 13  1  0
 12 34  1  6
 13 14  1  0
 13 35  1  0
 13 36  1  0
 14 15  1  0
 14 21  1  0
 14 48  1  1
 15 20  1  0
 15 16  1  0
 15 37  1  0
 16 17  1  0
 16 38  1  0
 16 39  1  0
 17 18  1  0
 17 40  1  0
 17 41  1  0
 18 19  1  0
 19 20  1  0
 19 42  1  0
 19 43  1  0
 20 44  1  0
 20 45  1  0
 21 46  1  0
 21 47  1  0
M  CHG  1  14   1
M  END
>  <i_m_ct_stereo_status>  (276) 
1

>  <s_m_source_file>  (276) 
/var/tmp/pbs.5076255.sched01/tmpkd0wjm76/823hn9mkkz.sdf

>  <i_m_source_file_index>  (276) 
40

>  <i_lp_mmshare_version>  (276) 
48012

>  <i_f3d_flags>  (276) 
0

>  <s_epik_input>  (276) 
W0NIMl0xW0NIMl1bQ0hdMVtDSDJdW05IXUMoPU8pW0NAQF0yM1tDQEBIXShbQ0gyXU9bQ0gyXTIpW0NIMl1OKFtDSDJdMylbQ0hdNFtDSDJdW0NIMl1PW0NIMl1bQ0gyXTQ=

>  <s_epik_cmdline>  (276) 
J2VwaWtfcHl0aG9uJywgJy1waHQnLCAnMi4wJywgJy1waCcsICc3LjAnLCAnLXRuJywgJzgnLCAnLW1hJywgJzIwMCcsICctaW1hZScsICc8aW5maWxlLm1hZT4nLCAnLW9tYWUnLCAnPG91dGZpbGUubWFlPic=

>  <r_epik_Ionization_Penalty>  (276) 
0.0259704

>  <r_epik_Ionization_Penalty_Charging>  (276) 
0.0259704

>  <r_epik_Ionization_Penalty_Neutral>  (276) 
6.82435e-08

>  <r_epik_State_Penalty>  (276) 
0.0211729

>  <r_epik_Charging_Adjusted_Penalty>  (276) 
0.0471433

>  <i_epik_Tot_Q>  (276) 
1

>  <i_epik_Tot_abs_Q>  (276) 
1

>  <s_lp_Force_Field>  (276) 
OPLS3e

>  <r_lp_Energy>  (276) 
15.0316

>  <b_lp_Chiralities_Consistent>  (276) 
1

>  <s_lp_Variant>  (276) 
87:0-1

>  <s_i_glide_gridfile>  (276) 
pfpi4k_grid

>  <i_i_glide_lignum>  (276) 
40

>  <i_i_glide_rotatable_bonds>  (276) 
5

>  <r_i_docking_score>  (276) 
-4.60399

>  <r_i_glide_ligand_efficiency>  (276) 
-0.219238

>  <r_i_glide_ligand_efficiency_sa>  (276) 
-0.60486

>  <r_i_glide_ligand_efficiency_ln>  (276) 
-1.13833

>  <r_i_glide_gscore>  (276) 
-4.60399

>  <r_i_glide_lipo>  (276) 
-0.669779

>  <r_i_glide_hbond>  (276) 
-0.48

>  <r_i_glide_metal>  (276) 
-0

>  <r_i_glide_rewards>  (276) 
-1.39502

>  <r_i_glide_evdw>  (276) 
-19.0821

>  <r_i_glide_ecoul>  (276) 
-12.2068

>  <r_i_glide_erotb>  (276) 
0.839047

>  <r_i_glide_esite>  (276) 
-0.113119

>  <r_i_glide_emodel>  (276) 
-37.6991

>  <r_i_glide_energy>  (276) 
-31.2889

>  <r_i_glide_einternal>  (276) 
3.9637

>  <r_i_glide_intrahb_reward>  (276) 
-0

>  <i_i_glide_confnum>  (276) 
5

>  <i_i_glide_posenum>  (276) 
40

>  <r_i_glide_eff_state_penalty>  (276) 
0

>  <ligand_id>  (276) 
87

>  <original_smiles>  (276) 
O=C(NCC1CC1)C12COCC1CN(C1CCOCC1)C2

>  <smiles>  (276) 
[H]N(C(=O)C12C([H])([H])OC([H])([H])C1([H])C([H])([H])[N+]([H])(C1([H])C([H])([H])C([H])([H])OC([H])([H])C1([H])[H])C2([H])[H])C([H])([H])C1([H])C([H])([H])C1([H])[H]

$$$$
87:0:1
     RDKit          3D

 48 51  0  0  1  0  0  0  0  0999 V2000
   -2.4133    4.9420    2.8652 O   0  0  0  0  0  0  0  0  0  0  0  0
   -2.4901    3.7488    3.0786 C   0  0  0  0  0  0  0  0  0  0  0  0
   -3.5036    2.9504    2.6550 N   0  0  0  0  0  0  0  0  0  0  0  0
   -4.5825    3.3769    1.7551 C   0  0  0  0  0  0  0  0  0  0  0  0
   -5.2720    4.6933    2.0604 C   0  0  0  0  0  0  0  0  0  0  0  0
   -5.8688    5.5641    0.9755 C   0  0  0  0  0  0  0  0  0  0  0  0
   -4.6615    6.0440    1.7084 C   0  0  0  0  0  0  0  0  0  0  0  0
   -1.3777    3.1036    3.9247 C   0  0  2  0  0  0  0  0  0  0  0  0
   -1.6800    3.2738    5.4366 C   0  0  0  0  0  0  0  0  0  0  0  0
   -0.9833    4.4374    5.7932 O   0  0  0  0  0  0  0  0  0  0  0  0
    0.2587    4.4013    5.1570 C   0  0  0  0  0  0  0  0  0  0  0  0
   -0.0446    3.8832    3.7517 C   0  0  1  0  0  0  0  0  0  0  0  0
    0.9329    2.8680    3.2008 C   0  0  0  0  0  0  0  0  0  0  0  0
    0.4166    1.5594    3.6345 N   0  0  2  0  0  0  0  0  0  0  0  0
    1.0185    0.3860    2.9599 C   0  0  0  0  0  0  0  0  0  0  0  0
    0.6276   -0.9052    3.7134 C   0  0  0  0  0  0  0  0  0  0  0  0
    1.3488   -2.1058    3.1043 C   0  0  0  0  0  0  0  0  0  0  0  0
    2.7540   -1.9026    3.1451 O   0  0  0  0  0  0  0  0  0  0  0  0
    3.1689   -0.7885    2.3660 C   0  0  0  0  0  0  0  0  0  0  0  0
    2.5595    0.4851    2.9365 C   0  0  0  0  0  0  0  0  0  0  0  0
   -1.0504    1.6569    3.5128 C   0  0  0  0  0  0  0  0  0  0  0  0
   -3.4888    1.9625    2.8351 H   0  0  0  0  0  0  0  0  0  0  0  0
   -4.1778    3.4084    0.7580 H   0  0  0  0  0  0  0  0  0  0  0  0
   -5.3371    2.5854    1.7040 H   0  0  0  0  0  0  0  0  0  0  0  0
   -5.8866    4.6413    2.9531 H   0  0  0  0  0  0  0  0  0  0  0  0
   -5.6943    5.3262   -0.0729 H   0  0  0  0  0  0  0  0  0  0  0  0
   -6.7885    6.1056    1.1972 H   0  0  0  0  0  0  0  0  0  0  0  0
   -4.7582    6.8110    2.4698 H   0  0  0  0  0  0  0  0  0  0  0  0
   -3.7494    6.1073    1.1090 H   0  0  0  0  0  0  0  0  0  0  0  0
   -2.7330    3.4477    5.6720 H   0  0  0  0  0  0  0  0  0  0  0  0
   -1.3279    2.4185    6.0421 H   0  0  0  0  0  0  0  0  0  0  0  0
    0.6769    5.4066    5.1283 H   0  0  0  0  0  0  0  0  0  0  0  0
    0.9360    3.7310    5.7024 H   0  0  0  0  0  0  0  0  0  0  0  0
   -0.0007    4.7490    3.0843 H   0  0  0  0  0  0  0  0  0  0  0  0
    0.9142    2.9051    2.1142 H   0  0  0  0  0  0  0  0  0  0  0  0
    1.9370    3.0851    3.5680 H   0  0  0  0  0  0  0  0  0  0  0  0
    0.6678    0.3236    1.9262 H   0  0  0  0  0  0  0  0  0  0  0  0
    0.8921   -0.8280    4.7678 H   0  0  0  0  0  0  0  0  0  0  0  0
   -0.4481   -1.0799    3.6812 H   0  0  0  0  0  0  0  0  0  0  0  0
    1.1111   -3.0130    3.6593 H   0  0  0  0  0  0  0  0  0  0  0  0
    1.0227   -2.2550    2.0768 H   0  0  0  0  0  0  0  0  0  0  0  0
    4.2554   -0.7154    2.3975 H   0  0  0  0  0  0  0  0  0  0  0  0
    2.8811   -0.9149    1.3192 H   0  0  0  0  0  0  0  0  0  0  0  0
    2.8994    1.3176    2.3176 H   0  0  0  0  0  0  0  0  0  0  0  0
    2.9410    0.6566    3.9442 H   0  0  0  0  0  0  0  0  0  0  0  0
   -1.5702    0.9063    4.1199 H   0  0  0  0  0  0  0  0  0  0  0  0
   -1.2675    1.4786    2.4554 H   0  0  0  0  0  0  0  0  0  0  0  0
    0.6156    1.5300    4.6189 H   0  0  0  0  0  0  0  0  0  0  0  0
  1  2  2  0
  2  3  1  0
  8  2  1  6
  3  4  1  0
  3 22  1  0
  4  5  1  0
  4 23  1  0
  4 24  1  0
  5  7  1  0
  5  6  1  0
  5 25  1  0
  6  7  1  0
  6 26  1  0
  6 27  1  0
  7 28  1  0
  7 29  1  0
  8 12  1  0
  8 21  1  0
  8  9  1  0
  9 10  1  0
  9 30  1  0
  9 31  1  0
 10 11  1  0
 11 12  1  0
 11 32  1  0
 11 33  1  0
 12 13  1  0
 12 34  1  6
 13 14  1  0
 13 35  1  0
 13 36  1  0
 14 15  1  0
 14 21  1  0
 14 48  1  1
 15 20  1  0
 15 16  1  0
 15 37  1  0
 16 17  1  0
 16 38  1  0
 16 39  1  0
 17 18  1  0
 17 40  1  0
 17 41  1  0
 18 19  1  0
 19 20  1  0
 19 42  1  0
 19 43  1  0
 20 44  1  0
 20 45  1  0
 21 46  1  0
 21 47  1  0
M  CHG  1  14   1
M  END
>  <i_m_ct_stereo_status>  (277) 
1

>  <s_m_source_file>  (277) 
/var/tmp/pbs.5076255.sched01/tmpkd0wjm76/823hn9mkkz.sdf

>  <i_m_source_file_index>  (277) 
40

>  <i_lp_mmshare_version>  (277) 
48012

>  <i_f3d_flags>  (277) 
0

>  <s_epik_input>  (277) 
W0NIMl0xW0NIMl1bQ0hdMVtDSDJdW05IXUMoPU8pW0NAQF0yM1tDQEBIXShbQ0gyXU9bQ0gyXTIpW0NIMl1OKFtDSDJdMylbQ0hdNFtDSDJdW0NIMl1PW0NIMl1bQ0gyXTQ=

>  <s_epik_cmdline>  (277) 
J2VwaWtfcHl0aG9uJywgJy1waHQnLCAnMi4wJywgJy1waCcsICc3LjAnLCAnLXRuJywgJzgnLCAnLW1hJywgJzIwMCcsICctaW1hZScsICc8aW5maWxlLm1hZT4nLCAnLW9tYWUnLCAnPG91dGZpbGUubWFlPic=

>  <r_epik_Ionization_Penalty>  (277) 
0.0259704

>  <r_epik_Ionization_Penalty_Charging>  (277) 
0.0259704

>  <r_epik_Ionization_Penalty_Neutral>  (277) 
6.82435e-08

>  <r_epik_State_Penalty>  (277) 
0.0211729

>  <r_epik_Charging_Adjusted_Penalty>  (277) 
0.0471433

>  <i_epik_Tot_Q>  (277) 
1

>  <i_epik_Tot_abs_Q>  (277) 
1

>  <s_lp_Force_Field>  (277) 
OPLS3e

>  <r_lp_Energy>  (277) 
15.0316

>  <b_lp_Chiralities_Consistent>  (277) 
1

>  <s_lp_Variant>  (277) 
87:0-1

>  <s_i_glide_gridfile>  (277) 
pfpi4k_grid

>  <i_i_glide_lignum>  (277) 
40

>  <i_i_glide_rotatable_bonds>  (277) 
5

>  <r_i_docking_score>  (277) 
-4.31484

>  <r_i_glide_ligand_efficiency>  (277) 
-0.205469

>  <r_i_glide_ligand_efficiency_sa>  (277) 
-0.566872

>  <r_i_glide_ligand_efficiency_ln>  (277) 
-1.06684

>  <r_i_glide_gscore>  (277) 
-4.31484

>  <r_i_glide_lipo>  (277) 
-0.43035

>  <r_i_glide_hbond>  (277) 
-0.48

>  <r_i_glide_metal>  (277) 
-0

>  <r_i_glide_rewards>  (277) 
-1.39502

>  <r_i_glide_evdw>  (277) 
-20.368

>  <r_i_glide_ecoul>  (277) 
-11.4533

>  <r_i_glide_erotb>  (277) 
0.839047

>  <r_i_glide_esite>  (277) 
-0.112124

>  <r_i_glide_emodel>  (277) 
-39.5948

>  <r_i_glide_energy>  (277) 
-31.8213

>  <r_i_glide_einternal>  (277) 
1.55568

>  <r_i_glide_intrahb_reward>  (277) 
-0

>  <i_i_glide_confnum>  (277) 
5

>  <i_i_glide_posenum>  (277) 
16

>  <r_i_glide_eff_state_penalty>  (277) 
0

>  <ligand_id>  (277) 
87

>  <original_smiles>  (277) 
O=C(NCC1CC1)C12COCC1CN(C1CCOCC1)C2

>  <smiles>  (277) 
[H]N(C(=O)C12C([H])([H])OC([H])([H])C1([H])C([H])([H])[N+]([H])(C1([H])C([H])([H])C([H])([H])OC([H])([H])C1([H])[H])C2([H])[H])C([H])([H])C1([H])C([H])([H])C1([H])[H]

$$$$
87:0:2
     RDKit          3D

 48 51  0  0  1  0  0  0  0  0999 V2000
    4.6098   -3.4616    0.8896 O   0  0  0  0  0  0  0  0  0  0  0  0
    3.8013   -2.5536    0.7117 C   0  0  0  0  0  0  0  0  0  0  0  0
    3.0283   -2.4851   -0.3934 N   0  0  0  0  0  0  0  0  0  0  0  0
    3.0569   -3.4175   -1.5008 C   0  0  0  0  0  0  0  0  0  0  0  0
    4.0921   -3.1061   -2.5584 C   0  0  0  0  0  0  0  0  0  0  0  0
    3.7654   -2.1863   -3.7060 C   0  0  0  0  0  0  0  0  0  0  0  0
    3.9194   -3.6687   -3.9396 C   0  0  0  0  0  0  0  0  0  0  0  0
    3.6299   -1.4251    1.7589 C   0  0  2  0  0  0  0  0  0  0  0  0
    4.8668   -0.5142    1.7799 C   0  0  0  0  0  0  0  0  0  0  0  0
    5.6522   -0.9981    2.8498 O   0  0  0  0  0  0  0  0  0  0  0  0
    4.7756   -1.3353    3.9019 C   0  0  0  0  0  0  0  0  0  0  0  0
    3.5788   -1.9681    3.2036 C   0  0  1  0  0  0  0  0  0  0  0  0
    2.2464   -1.5048    3.7716 C   0  0  0  0  0  0  0  0  0  0  0  0
    1.8842   -0.2939    3.0044 N   0  0  2  0  0  0  0  0  0  0  0  0
    0.4773    0.1659    3.1298 C   0  0  0  0  0  0  0  0  0  0  0  0
    0.2477    1.4794    2.3560 C   0  0  0  0  0  0  0  0  0  0  0  0
   -1.1694    2.0071    2.5920 C   0  0  0  0  0  0  0  0  0  0  0  0
   -1.4034    2.1830    3.9865 O   0  0  0  0  0  0  0  0  0  0  0  0
   -1.3230    0.9652    4.7156 C   0  0  0  0  0  0  0  0  0  0  0  0
    0.0873    0.3838    4.6018 C   0  0  0  0  0  0  0  0  0  0  0  0
    2.3232   -0.6070    1.6327 C   0  0  0  0  0  0  0  0  0  0  0  0
    2.3527   -1.7358   -0.4822 H   0  0  0  0  0  0  0  0  0  0  0  0
    3.2486   -4.4156   -1.1141 H   0  0  0  0  0  0  0  0  0  0  0  0
    2.0588   -3.4293   -1.9523 H   0  0  0  0  0  0  0  0  0  0  0  0
    5.1147   -3.0660   -2.1836 H   0  0  0  0  0  0  0  0  0  0  0  0
    2.7583   -1.7782   -3.7634 H   0  0  0  0  0  0  0  0  0  0  0  0
    4.5547   -1.5434   -4.0838 H   0  0  0  0  0  0  0  0  0  0  0  0
    4.8132   -4.0153   -4.4492 H   0  0  0  0  0  0  0  0  0  0  0  0
    3.0136   -4.2390   -4.1303 H   0  0  0  0  0  0  0  0  0  0  0  0
    5.4728   -0.5568    0.8817 H   0  0  0  0  0  0  0  0  0  0  0  0
    4.6205    0.5320    1.9686 H   0  0  0  0  0  0  0  0  0  0  0  0
    5.2652   -2.0224    4.5809 H   0  0  0  0  0  0  0  0  0  0  0  0
    4.5240   -0.4217    4.4412 H   0  0  0  0  0  0  0  0  0  0  0  0
    3.6510   -3.0534    3.3048 H   0  0  0  0  0  0  0  0  0  0  0  0
    1.4917   -2.2626    3.5775 H   0  0  0  0  0  0  0  0  0  0  0  0
    2.2905   -1.3166    4.8388 H   0  0  0  0  0  0  0  0  0  0  0  0
   -0.1840   -0.5997    2.7198 H   0  0  0  0  0  0  0  0  0  0  0  0
    0.9667    2.2360    2.6736 H   0  0  0  0  0  0  0  0  0  0  0  0
    0.3871    1.3490    1.2824 H   0  0  0  0  0  0  0  0  0  0  0  0
   -1.3036    2.9653    2.0943 H   0  0  0  0  0  0  0  0  0  0  0  0
   -1.9092    1.3301    2.1611 H   0  0  0  0  0  0  0  0  0  0  0  0
   -1.5575    1.1681    5.7611 H   0  0  0  0  0  0  0  0  0  0  0  0
   -2.0707    0.2547    4.3525 H   0  0  0  0  0  0  0  0  0  0  0  0
    0.1120   -0.5483    5.1652 H   0  0  0  0  0  0  0  0  0  0  0  0
    0.7981    1.0616    5.0772 H   0  0  0  0  0  0  0  0  0  0  0  0
    2.4189    0.2805    1.0075 H   0  0  0  0  0  0  0  0  0  0  0  0
    1.5011   -1.2129    1.2727 H   0  0  0  0  0  0  0  0  0  0  0  0
    2.4919    0.4446    3.3328 H   0  0  0  0  0  0  0  0  0  0  0  0
  1  2  2  0
  2  3  1  0
  8  2  1  6
  3  4  1  0
  3 22  1  0
  4  5  1  0
  4 23  1  0
  4 24  1  0
  5  7  1  0
  5  6  1  0
  5 25  1  0
  6  7  1  0
  6 26  1  0
  6 27  1  0
  7 28  1  0
  7 29  1  0
  8 12  1  0
  8 21  1  0
  8  9  1  0
  9 10  1  0
  9 30  1  0
  9 31  1  0
 10 11  1  0
 11 12  1  0
 11 32  1  0
 11 33  1  0
 12 13  1  0
 12 34  1  6
 13 14  1  0
 13 35  1  0
 13 36  1  0
 14 15  1  0
 14 21  1  0
 14 48  1  1
 15 20  1  0
 15 16  1  0
 15 37  1  0
 16 17  1  0
 16 38  1  0
 16 39  1  0
 17 18  1  0
 17 40  1  0
 17 41  1  0
 18 19  1  0
 19 20  1  0
 19 42  1  0
 19 43  1  0
 20 44  1  0
 20 45  1  0
 21 46  1  0
 21 47  1  0
M  CHG  1  14   1
M  END
>  <i_m_ct_stereo_status>  (278) 
1

>  <s_m_source_file>  (278) 
/var/tmp/pbs.5076255.sched01/tmpkd0wjm76/823hn9mkkz.sdf

>  <i_m_source_file_index>  (278) 
40

>  <i_lp_mmshare_version>  (278) 
48012

>  <i_f3d_flags>  (278) 
0

>  <s_epik_input>  (278) 
W0NIMl0xW0NIMl1bQ0hdMVtDSDJdW05IXUMoPU8pW0NAQF0yM1tDQEBIXShbQ0gyXU9bQ0gyXTIpW0NIMl1OKFtDSDJdMylbQ0hdNFtDSDJdW0NIMl1PW0NIMl1bQ0gyXTQ=

>  <s_epik_cmdline>  (278) 
J2VwaWtfcHl0aG9uJywgJy1waHQnLCAnMi4wJywgJy1waCcsICc3LjAnLCAnLXRuJywgJzgnLCAnLW1hJywgJzIwMCcsICctaW1hZScsICc8aW5maWxlLm1hZT4nLCAnLW9tYWUnLCAnPG91dGZpbGUubWFlPic=

>  <r_epik_Ionization_Penalty>  (278) 
0.0259704

>  <r_epik_Ionization_Penalty_Charging>  (278) 
0.0259704

>  <r_epik_Ionization_Penalty_Neutral>  (278) 
6.82435e-08

>  <r_epik_State_Penalty>  (278) 
0.0211729

>  <r_epik_Charging_Adjusted_Penalty>  (278) 
0.0471433

>  <i_epik_Tot_Q>  (278) 
1

>  <i_epik_Tot_abs_Q>  (278) 
1

>  <s_lp_Force_Field>  (278) 
OPLS3e

>  <r_lp_Energy>  (278) 
15.0316

>  <b_lp_Chiralities_Consistent>  (278) 
1

>  <s_lp_Variant>  (278) 
87:0-1

>  <s_i_glide_gridfile>  (278) 
pfpi4k_grid

>  <i_i_glide_lignum>  (278) 
40

>  <i_i_glide_rotatable_bonds>  (278) 
5

>  <r_i_docking_score>  (278) 
-3.46553

>  <r_i_glide_ligand_efficiency>  (278) 
-0.165025

>  <r_i_glide_ligand_efficiency_sa>  (278) 
-0.455292

>  <r_i_glide_ligand_efficiency_ln>  (278) 
-0.856846

>  <r_i_glide_gscore>  (278) 
-3.46553

>  <r_i_glide_lipo>  (278) 
-0.478934

>  <r_i_glide_hbond>  (278) 
-0.16

>  <r_i_glide_metal>  (278) 
-0

>  <r_i_glide_rewards>  (278) 
-1.39502

>  <r_i_glide_evdw>  (278) 
-20.753

>  <r_i_glide_ecoul>  (278) 
-7.60752

>  <r_i_glide_erotb>  (278) 
0.839047

>  <r_i_glide_esite>  (278) 
-0.0918477

>  <r_i_glide_emodel>  (278) 
-35.8744

>  <r_i_glide_energy>  (278) 
-28.3605

>  <r_i_glide_einternal>  (278) 
0.458686

>  <r_i_glide_intrahb_reward>  (278) 
-0

>  <i_i_glide_confnum>  (278) 
1

>  <i_i_glide_posenum>  (278) 
26

>  <r_i_glide_eff_state_penalty>  (278) 
0

>  <ligand_id>  (278) 
87

>  <original_smiles>  (278) 
O=C(NCC1CC1)C12COCC1CN(C1CCOCC1)C2

>  <smiles>  (278) 
[H]N(C(=O)C12C([H])([H])OC([H])([H])C1([H])C([H])([H])[N+]([H])(C1([H])C([H])([H])C([H])([H])OC([H])([H])C1([H])[H])C2([H])[H])C([H])([H])C1([H])C([H])([H])C1([H])[H]

$$$$
88:0:0
     RDKit          3D

 51 55  0  0  1  0  0  0  0  0999 V2000
    0.2862   -9.8752    6.7976 C   0  0  0  0  0  0  0  0  0  0  0  0
    0.4679   -8.5377    7.3113 N   0  0  0  0  0  0  0  0  0  0  0  0
    0.0709   -8.2347    8.5712 N   0  0  0  0  0  0  0  0  0  0  0  0
    0.3268   -6.9826    8.7554 N   0  0  0  0  0  0  0  0  0  0  0  0
    0.9098   -6.4169    7.6345 N   0  0  0  0  0  0  0  0  0  0  0  0
    0.9766   -7.4159    6.7641 C   0  0  0  0  0  0  0  0  0  0  0  0
    1.5504   -7.3239    5.3638 C   0  0  2  0  0  0  0  0  0  0  0  0
    2.0841   -5.9921    5.0838 N   0  0  0  0  0  0  0  0  0  0  0  0
    2.7335   -5.8648    3.7831 C   0  0  0  0  0  0  0  0  0  0  0  0
    3.0170   -4.3801    3.4710 C   0  0  1  0  0  0  0  0  0  0  0  0
    1.7195   -3.5205    3.5544 C   0  0  0  0  0  0  0  0  0  0  0  0
    2.0302   -2.0530    3.2083 C   0  0  2  0  0  0  0  0  0  0  0  0
    2.5759   -1.9724    1.7701 C   0  0  0  0  0  0  0  0  0  0  0  0
    3.8750   -2.7972    1.6785 C   0  0  1  0  0  0  0  0  0  0  0  0
    4.9232   -2.2383    2.6612 C   0  0  0  0  0  0  0  0  0  0  0  0
    4.3716   -2.3327    4.0969 C   0  0  1  0  0  0  0  0  0  0  0  0
    3.0732   -1.5076    4.2073 C   0  0  0  0  0  0  0  0  0  0  0  0
    4.0764   -3.8047    4.4458 C   0  0  0  0  0  0  0  0  0  0  0  0
    3.5746   -4.2695    2.0271 C   0  0  0  0  0  0  0  0  0  0  0  0
    0.5371   -7.7573    4.3115 C   0  0  0  0  0  0  0  0  0  0  0  0
    0.5874   -9.0592    3.7731 C   0  0  0  0  0  0  0  0  0  0  0  0
   -0.3951   -9.4433    2.8462 C   0  0  0  0  0  0  0  0  0  0  0  0
   -1.3528   -8.4969    2.4502 C   0  0  0  0  0  0  0  0  0  0  0  0
   -1.3880   -7.2324    2.9204 N   0  0  0  0  0  0  0  0  0  0  0  0
   -0.4671   -6.8860    3.8472 C   0  0  0  0  0  0  0  0  0  0  0  0
    1.2546  -10.2734    6.4784 H   0  0  0  0  0  0  0  0  0  0  0  0
   -0.4164   -9.8592    5.9655 H   0  0  0  0  0  0  0  0  0  0  0  0
   -0.1560  -10.5226    7.5576 H   0  0  0  0  0  0  0  0  0  0  0  0
    2.3931   -8.0144    5.3368 H   0  0  0  0  0  0  0  0  0  0  0  0
    2.7025   -5.7171    5.8344 H   0  0  0  0  0  0  0  0  0  0  0  0
    3.6412   -6.4675    3.7659 H   0  0  0  0  0  0  0  0  0  0  0  0
    2.0900   -6.2611    2.9988 H   0  0  0  0  0  0  0  0  0  0  0  0
    0.9584   -3.9129    2.8794 H   0  0  0  0  0  0  0  0  0  0  0  0
    1.2787   -3.5491    4.5526 H   0  0  0  0  0  0  0  0  0  0  0  0
    1.1161   -1.4630    3.2792 H   0  0  0  0  0  0  0  0  0  0  0  0
    1.8371   -2.3608    1.0681 H   0  0  0  0  0  0  0  0  0  0  0  0
    2.7552   -0.9354    1.4848 H   0  0  0  0  0  0  0  0  0  0  0  0
    4.2660   -2.7419    0.6637 H   0  0  0  0  0  0  0  0  0  0  0  0
    5.8522   -2.8021    2.5787 H   0  0  0  0  0  0  0  0  0  0  0  0
    5.1625   -1.2033    2.4154 H   0  0  0  0  0  0  0  0  0  0  0  0
    5.1103   -1.9392    4.7947 H   0  0  0  0  0  0  0  0  0  0  0  0
    3.2770   -0.4544    4.0130 H   0  0  0  0  0  0  0  0  0  0  0  0
    2.6803   -1.5685    5.2232 H   0  0  0  0  0  0  0  0  0  0  0  0
    3.7300   -3.8647    5.4793 H   0  0  0  0  0  0  0  0  0  0  0  0
    4.9926   -4.3941    4.3922 H   0  0  0  0  0  0  0  0  0  0  0  0
    4.4817   -4.8670    1.9273 H   0  0  0  0  0  0  0  0  0  0  0  0
    2.8609   -4.6779    1.3093 H   0  0  0  0  0  0  0  0  0  0  0  0
    1.3459   -9.7629    4.0817 H   0  0  0  0  0  0  0  0  0  0  0  0
   -0.4217  -10.4491    2.4614 H   0  0  0  0  0  0  0  0  0  0  0  0
   -2.1220   -8.7639    1.7408 H   0  0  0  0  0  0  0  0  0  0  0  0
   -0.5399   -5.8733    4.2172 H   0  0  0  0  0  0  0  0  0  0  0  0
  1  2  1  0
  1 26  1  0
  1 27  1  0
  1 28  1  0
  2  6  1  0
  2  3  1  0
  3  4  2  0
  4  5  1  0
  5  6  2  0
  6  7  1  0
  7  8  1  0
  7 20  1  0
  7 29  1  1
  8  9  1  0
  8 30  1  0
 10  9  1  1
  9 31  1  0
  9 32  1  0
 10 18  1  0
 10 19  1  0
 10 11  1  0
 11 12  1  0
 11 33  1  0
 11 34  1  0
 12 17  1  0
 12 13  1  0
 12 35  1  6
 13 14  1  0
 13 36  1  0
 13 37  1  0
 14 15  1  0
 14 19  1  0
 14 38  1  6
 15 16  1  0
 15 39  1  0
 15 40  1  0
 16 17  1  0
 16 18  1  0
 16 41  1  1
 17 42  1  0
 17 43  1  0
 18 44  1  0
 18 45  1  0
 19 46  1  0
 19 47  1  0
 20 25  1  0
 20 21  2  0
 21 22  1  0
 21 48  1  0
 22 23  2  0
 22 49  1  0
 23 24  1  0
 23 50  1  0
 24 25  2  0
 25 51  1  0
M  END
>  <i_m_ct_stereo_status>  (279) 
1

>  <s_m_source_file>  (279) 
/var/tmp/pbs.5076255.sched01/tmpk7n3yjou/123nw9z_609.sdf

>  <i_m_source_file_index>  (279) 
1

>  <i_lp_mmshare_version>  (279) 
48012

>  <i_f3d_flags>  (279) 
0

>  <s_epik_input>  (279) 
W0NIM11uMW5ubmMxW0NAQEhdKGMyW2NIXVtjSF1bY0hdbltjSF0yKVtOSF1bQ0gyXUMzNFtDSDJdW0NAQEhdNVtDSDJdW0NASF0oW0NIMl00KVtDSDJdW0NAQEhdKFtDSDJdNSlbQ0gyXTM=

>  <s_epik_cmdline>  (279) 
J2VwaWtfcHl0aG9uJywgJy1waHQnLCAnMi4wJywgJy1waCcsICc3LjAnLCAnLXRuJywgJzgnLCAnLW1hJywgJzIwMCcsICctaW1hZScsICc8aW5maWxlLm1hZT4nLCAnLW9tYWUnLCAnPG91dGZpbGUubWFlPic=

>  <r_lp_tautomer_probability>  (279) 
1

>  <r_epik_Ionization_Penalty>  (279) 
0.173577

>  <r_epik_Ionization_Penalty_Charging>  (279) 
0

>  <r_epik_Ionization_Penalty_Neutral>  (279) 
0.173577

>  <r_epik_State_Penalty>  (279) 
0.160701

>  <r_epik_Charging_Adjusted_Penalty>  (279) 
0.160701

>  <i_epik_Tot_Q>  (279) 
0

>  <i_epik_Tot_abs_Q>  (279) 
0

>  <s_lp_Force_Field>  (279) 
OPLS3e

>  <r_lp_Energy>  (279) 
25.0833

>  <b_lp_Chiralities_Consistent>  (279) 
1

>  <s_lp_Variant>  (279) 
88:0-1

>  <s_i_glide_gridfile>  (279) 
pfpi4k_grid

>  <i_i_glide_lignum>  (279) 
1

>  <i_i_glide_rotatable_bonds>  (279) 
5

>  <r_i_docking_score>  (279) 
-2.67144

>  <r_i_glide_ligand_efficiency>  (279) 
-0.106858

>  <r_i_glide_ligand_efficiency_sa>  (279) 
-0.312454

>  <r_i_glide_ligand_efficiency_ln>  (279) 
-0.633211

>  <r_i_glide_gscore>  (279) 
-2.67144

>  <r_i_glide_lipo>  (279) 
-0.125747

>  <r_i_glide_hbond>  (279) 
-0.131603

>  <r_i_glide_metal>  (279) 
-0

>  <r_i_glide_rewards>  (279) 
-1.10148

>  <r_i_glide_evdw>  (279) 
-21.1404

>  <r_i_glide_ecoul>  (279) 
-5.21354

>  <r_i_glide_erotb>  (279) 
0.660407

>  <r_i_glide_esite>  (279) 
-0.133971

>  <r_i_glide_emodel>  (279) 
-30.4175

>  <r_i_glide_energy>  (279) 
-26.3539

>  <r_i_glide_einternal>  (279) 
1.5023

>  <r_i_glide_intrahb_reward>  (279) 
-0

>  <i_i_glide_confnum>  (279) 
4

>  <i_i_glide_posenum>  (279) 
13

>  <r_i_glide_eff_state_penalty>  (279) 
0

>  <ligand_id>  (279) 
88

>  <original_smiles>  (279) 
Cn1nnnc1C(NCC12CC3CC(CC(C3)C1)C2)c1cccnc1

>  <smiles>  (279) 
[H]c1nc([H])c(C([H])(c2nnnn2C([H])([H])[H])N([H])C([H])([H])C23C([H])([H])C4([H])C([H])([H])C([H])(C([H])([H])C([H])(C4([H])[H])C2([H])[H])C3([H])[H])c([H])c1[H]

$$$$
88:0:1
     RDKit          3D

 51 55  0  0  1  0  0  0  0  0999 V2000
   -1.8263    0.2303    4.5380 C   0  0  0  0  0  0  0  0  0  0  0  0
   -0.6316    0.4852    5.3097 N   0  0  0  0  0  0  0  0  0  0  0  0
   -0.5390    0.0821    6.5991 N   0  0  0  0  0  0  0  0  0  0  0  0
    0.6414    0.4341    7.0135 N   0  0  0  0  0  0  0  0  0  0  0  0
    1.3515    1.0784    6.0177 N   0  0  0  0  0  0  0  0  0  0  0  0
    0.5178    1.0883    4.9865 C   0  0  0  0  0  0  0  0  0  0  0  0
    0.8111    1.6448    3.6194 C   0  0  2  0  0  0  0  0  0  0  0  0
    1.9507    0.9842    2.9971 N   0  0  0  0  0  0  0  0  0  0  0  0
    1.7114   -0.4182    2.6849 C   0  0  0  0  0  0  0  0  0  0  0  0
    2.9824   -1.0500    2.0739 C   0  0  1  0  0  0  0  0  0  0  0  0
    4.1490   -1.0714    3.1003 C   0  0  0  0  0  0  0  0  0  0  0  0
    5.3901   -1.7347    2.4731 C   0  0  2  0  0  0  0  0  0  0  0  0
    5.8225   -0.9373    1.2267 C   0  0  0  0  0  0  0  0  0  0  0  0
    4.6844   -0.9503    0.1891 C   0  0  1  0  0  0  0  0  0  0  0  0
    4.3568   -2.4019   -0.2071 C   0  0  0  0  0  0  0  0  0  0  0  0
    3.9173   -3.1824    1.0481 C   0  0  1  0  0  0  0  0  0  0  0  0
    5.0559   -3.1886    2.0860 C   0  0  0  0  0  0  0  0  0  0  0  0
    2.6697   -2.5129    1.6639 C   0  0  0  0  0  0  0  0  0  0  0  0
    3.4401   -0.2830    0.8046 C   0  0  0  0  0  0  0  0  0  0  0  0
    0.9947    3.1575    3.6790 C   0  0  0  0  0  0  0  0  0  0  0  0
    2.2738    3.7604    3.6023 C   0  0  0  0  0  0  0  0  0  0  0  0
    2.3698    5.1579    3.6647 C   0  0  0  0  0  0  0  0  0  0  0  0
    1.1900    5.9067    3.8091 C   0  0  0  0  0  0  0  0  0  0  0  0
   -0.0391    5.3527    3.9141 N   0  0  0  0  0  0  0  0  0  0  0  0
   -0.1229    4.0092    3.8265 C   0  0  0  0  0  0  0  0  0  0  0  0
   -1.5812   -0.3964    3.6811 H   0  0  0  0  0  0  0  0  0  0  0  0
   -2.2392    1.1775    4.1863 H   0  0  0  0  0  0  0  0  0  0  0  0
   -2.5692   -0.2827    5.1489 H   0  0  0  0  0  0  0  0  0  0  0  0
   -0.0538    1.4661    2.9796 H   0  0  0  0  0  0  0  0  0  0  0  0
    2.7353    1.0412    3.6310 H   0  0  0  0  0  0  0  0  0  0  0  0
    1.4355   -0.9674    3.5873 H   0  0  0  0  0  0  0  0  0  0  0  0
    0.8721   -0.4940    1.9905 H   0  0  0  0  0  0  0  0  0  0  0  0
    4.4138   -0.0623    3.4205 H   0  0  0  0  0  0  0  0  0  0  0  0
    3.8538   -1.6121    4.0007 H   0  0  0  0  0  0  0  0  0  0  0  0
    6.2007   -1.7284    3.1980 H   0  0  0  0  0  0  0  0  0  0  0  0
    6.0394    0.0915    1.5070 H   0  0  0  0  0  0  0  0  0  0  0  0
    6.7399   -1.3509    0.8071 H   0  0  0  0  0  0  0  0  0  0  0  0
    4.9886   -0.3894   -0.6940 H   0  0  0  0  0  0  0  0  0  0  0  0
    3.5624   -2.4147   -0.9545 H   0  0  0  0  0  0  0  0  0  0  0  0
    5.2253   -2.8782   -0.6633 H   0  0  0  0  0  0  0  0  0  0  0  0
    3.6782   -4.2077    0.7677 H   0  0  0  0  0  0  0  0  0  0  0  0
    5.9349   -3.6925    1.6831 H   0  0  0  0  0  0  0  0  0  0  0  0
    4.7523   -3.7497    2.9710 H   0  0  0  0  0  0  0  0  0  0  0  0
    2.3283   -3.0833    2.5294 H   0  0  0  0  0  0  0  0  0  0  0  0
    1.8517   -2.5258    0.9426 H   0  0  0  0  0  0  0  0  0  0  0  0
    2.6251   -0.2617    0.0823 H   0  0  0  0  0  0  0  0  0  0  0  0
    3.6764    0.7591    1.0245 H   0  0  0  0  0  0  0  0  0  0  0  0
    3.1750    3.1765    3.4942 H   0  0  0  0  0  0  0  0  0  0  0  0
    3.3319    5.6415    3.5978 H   0  0  0  0  0  0  0  0  0  0  0  0
    1.2364    6.9811    3.8584 H   0  0  0  0  0  0  0  0  0  0  0  0
   -1.1248    3.6017    3.8775 H   0  0  0  0  0  0  0  0  0  0  0  0
  1  2  1  0
  1 26  1  0
  1 27  1  0
  1 28  1  0
  2  6  1  0
  2  3  1  0
  3  4  2  0
  4  5  1  0
  5  6  2  0
  6  7  1  0
  7  8  1  0
  7 20  1  0
  7 29  1  6
  8  9  1  0
  8 30  1  0
 10  9  1  1
  9 31  1  0
  9 32  1  0
 10 18  1  0
 10 19  1  0
 10 11  1  0
 11 12  1  0
 11 33  1  0
 11 34  1  0
 12 17  1  0
 12 13  1  0
 12 35  1  1
 13 14  1  0
 13 36  1  0
 13 37  1  0
 14 15  1  0
 14 19  1  0
 14 38  1  6
 15 16  1  0
 15 39  1  0
 15 40  1  0
 16 17  1  0
 16 18  1  0
 16 41  1  6
 17 42  1  0
 17 43  1  0
 18 44  1  0
 18 45  1  0
 19 46  1  0
 19 47  1  0
 20 25  1  0
 20 21  2  0
 21 22  1  0
 21 48  1  0
 22 23  2  0
 22 49  1  0
 23 24  1  0
 23 50  1  0
 24 25  2  0
 25 51  1  0
M  END
>  <i_m_ct_stereo_status>  (280) 
1

>  <s_m_source_file>  (280) 
/var/tmp/pbs.5076255.sched01/tmpk7n3yjou/123nw9z_609.sdf

>  <i_m_source_file_index>  (280) 
1

>  <i_lp_mmshare_version>  (280) 
48012

>  <i_f3d_flags>  (280) 
0

>  <s_epik_input>  (280) 
W0NIM11uMW5ubmMxW0NAQEhdKGMyW2NIXVtjSF1bY0hdbltjSF0yKVtOSF1bQ0gyXUMzNFtDSDJdW0NAQEhdNVtDSDJdW0NASF0oW0NIMl00KVtDSDJdW0NAQEhdKFtDSDJdNSlbQ0gyXTM=

>  <s_epik_cmdline>  (280) 
J2VwaWtfcHl0aG9uJywgJy1waHQnLCAnMi4wJywgJy1waCcsICc3LjAnLCAnLXRuJywgJzgnLCAnLW1hJywgJzIwMCcsICctaW1hZScsICc8aW5maWxlLm1hZT4nLCAnLW9tYWUnLCAnPG91dGZpbGUubWFlPic=

>  <r_lp_tautomer_probability>  (280) 
1

>  <r_epik_Ionization_Penalty>  (280) 
0.173577

>  <r_epik_Ionization_Penalty_Charging>  (280) 
0

>  <r_epik_Ionization_Penalty_Neutral>  (280) 
0.173577

>  <r_epik_State_Penalty>  (280) 
0.160701

>  <r_epik_Charging_Adjusted_Penalty>  (280) 
0.160701

>  <i_epik_Tot_Q>  (280) 
0

>  <i_epik_Tot_abs_Q>  (280) 
0

>  <s_lp_Force_Field>  (280) 
OPLS3e

>  <r_lp_Energy>  (280) 
25.0833

>  <b_lp_Chiralities_Consistent>  (280) 
1

>  <s_lp_Variant>  (280) 
88:0-1

>  <s_i_glide_gridfile>  (280) 
pfpi4k_grid

>  <i_i_glide_lignum>  (280) 
1

>  <i_i_glide_rotatable_bonds>  (280) 
5

>  <r_i_docking_score>  (280) 
-2.50245

>  <r_i_glide_ligand_efficiency>  (280) 
-0.100098

>  <r_i_glide_ligand_efficiency_sa>  (280) 
-0.292688

>  <r_i_glide_ligand_efficiency_ln>  (280) 
-0.593155

>  <r_i_glide_gscore>  (280) 
-2.50245

>  <r_i_glide_lipo>  (280) 
-0.299222

>  <r_i_glide_hbond>  (280) 
0

>  <r_i_glide_metal>  (280) 
-0

>  <r_i_glide_rewards>  (280) 
-1.10148

>  <r_i_glide_evdw>  (280) 
-21.9765

>  <r_i_glide_ecoul>  (280) 
-3.84001

>  <r_i_glide_erotb>  (280) 
0.660407

>  <r_i_glide_esite>  (280) 
-0.0873263

>  <r_i_glide_emodel>  (280) 
-29.1913

>  <r_i_glide_energy>  (280) 
-25.8165

>  <r_i_glide_einternal>  (280) 
2.76712

>  <r_i_glide_intrahb_reward>  (280) 
-0

>  <i_i_glide_confnum>  (280) 
3

>  <i_i_glide_posenum>  (280) 
3

>  <r_i_glide_eff_state_penalty>  (280) 
0

>  <ligand_id>  (280) 
88

>  <original_smiles>  (280) 
Cn1nnnc1C(NCC12CC3CC(CC(C3)C1)C2)c1cccnc1

>  <smiles>  (280) 
[H]c1nc([H])c(C([H])(c2nnnn2C([H])([H])[H])N([H])C([H])([H])C23C([H])([H])C4([H])C([H])([H])C([H])(C([H])([H])C([H])(C4([H])[H])C2([H])[H])C3([H])[H])c([H])c1[H]

$$$$
88:0:2
     RDKit          3D

 51 55  0  0  1  0  0  0  0  0999 V2000
    1.0419   -9.2158    7.0185 C   0  0  0  0  0  0  0  0  0  0  0  0
    0.6533   -7.8361    7.2671 N   0  0  0  0  0  0  0  0  0  0  0  0
    0.2174   -7.4468    8.4875 N   0  0  0  0  0  0  0  0  0  0  0  0
   -0.0548   -6.1786    8.4026 N   0  0  0  0  0  0  0  0  0  0  0  0
    0.1720   -5.7006    7.1263 N   0  0  0  0  0  0  0  0  0  0  0  0
    0.6180   -6.7630    6.4666 C   0  0  0  0  0  0  0  0  0  0  0  0
    1.0463   -6.7924    5.0241 C   0  0  2  0  0  0  0  0  0  0  0  0
    1.2451   -5.4639    4.4531 N   0  0  0  0  0  0  0  0  0  0  0  0
    2.5352   -4.8973    4.8381 C   0  0  0  0  0  0  0  0  0  0  0  0
    2.7978   -3.5735    4.0832 C   0  0  1  0  0  0  0  0  0  0  0  0
    4.1888   -3.0077    4.4872 C   0  0  0  0  0  0  0  0  0  0  0  0
    4.4733   -1.6927    3.7318 C   0  0  2  0  0  0  0  0  0  0  0  0
    3.3916   -0.6550    4.0929 C   0  0  0  0  0  0  0  0  0  0  0  0
    2.0133   -1.1965    3.6693 C   0  0  1  0  0  0  0  0  0  0  0  0
    2.0005   -1.4618    2.1486 C   0  0  0  0  0  0  0  0  0  0  0  0
    3.0871   -2.5005    1.8003 C   0  0  1  0  0  0  0  0  0  0  0  0
    4.4701   -1.9645    2.2135 C   0  0  0  0  0  0  0  0  0  0  0  0
    2.8034   -3.8159    2.5492 C   0  0  0  0  0  0  0  0  0  0  0  0
    1.7222   -2.5068    4.4273 C   0  0  0  0  0  0  0  0  0  0  0  0
    0.0722   -7.5931    4.1740 C   0  0  0  0  0  0  0  0  0  0  0  0
    0.4803   -8.7793    3.5306 C   0  0  0  0  0  0  0  0  0  0  0  0
   -0.4630   -9.4867    2.7685 C   0  0  0  0  0  0  0  0  0  0  0  0
   -1.7734   -8.9842    2.6722 C   0  0  0  0  0  0  0  0  0  0  0  0
   -2.1726   -7.8458    3.2718 N   0  0  0  0  0  0  0  0  0  0  0  0
   -1.2700   -7.1818    4.0187 C   0  0  0  0  0  0  0  0  0  0  0  0
    2.0864   -9.2630    6.7079 H   0  0  0  0  0  0  0  0  0  0  0  0
    0.4128   -9.6454    6.2381 H   0  0  0  0  0  0  0  0  0  0  0  0
    0.9160   -9.8140    7.9211 H   0  0  0  0  0  0  0  0  0  0  0  0
    1.9951   -7.3245    4.9799 H   0  0  0  0  0  0  0  0  0  0  0  0
    0.5810   -4.8522    4.9049 H   0  0  0  0  0  0  0  0  0  0  0  0
    2.5529   -4.7298    5.9166 H   0  0  0  0  0  0  0  0  0  0  0  0
    3.3340   -5.6062    4.6182 H   0  0  0  0  0  0  0  0  0  0  0  0
    4.2351   -2.8282    5.5625 H   0  0  0  0  0  0  0  0  0  0  0  0
    4.9750   -3.7306    4.2660 H   0  0  0  0  0  0  0  0  0  0  0  0
    5.4487   -1.3066    4.0238 H   0  0  0  0  0  0  0  0  0  0  0  0
    3.4015   -0.4673    5.1673 H   0  0  0  0  0  0  0  0  0  0  0  0
    3.5957    0.2994    3.6058 H   0  0  0  0  0  0  0  0  0  0  0  0
    1.2445   -0.4640    3.9127 H   0  0  0  0  0  0  0  0  0  0  0  0
    1.0211   -1.8240    1.8391 H   0  0  0  0  0  0  0  0  0  0  0  0
    2.1719   -0.5372    1.5951 H   0  0  0  0  0  0  0  0  0  0  0  0
    3.0752   -2.6870    0.7266 H   0  0  0  0  0  0  0  0  0  0  0  0
    4.7064   -1.0575    1.6563 H   0  0  0  0  0  0  0  0  0  0  0  0
    5.2422   -2.6938    1.9650 H   0  0  0  0  0  0  0  0  0  0  0  0
    3.5500   -4.5688    2.2904 H   0  0  0  0  0  0  0  0  0  0  0  0
    1.8433   -4.2086    2.2126 H   0  0  0  0  0  0  0  0  0  0  0  0
    0.7243   -2.8519    4.1537 H   0  0  0  0  0  0  0  0  0  0  0  0
    1.7023   -2.3217    5.5029 H   0  0  0  0  0  0  0  0  0  0  0  0
    1.4937   -9.1452    3.6224 H   0  0  0  0  0  0  0  0  0  0  0  0
   -0.1947  -10.4039    2.2662 H   0  0  0  0  0  0  0  0  0  0  0  0
   -2.5202   -9.5049    2.0949 H   0  0  0  0  0  0  0  0  0  0  0  0
   -1.6274   -6.2762    4.4874 H   0  0  0  0  0  0  0  0  0  0  0  0
  1  2  1  0
  1 26  1  0
  1 27  1  0
  1 28  1  0
  2  6  1  0
  2  3  1  0
  3  4  2  0
  4  5  1  0
  5  6  2  0
  6  7  1  0
  7  8  1  0
  7 20  1  0
  7 29  1  1
  8  9  1  0
  8 30  1  0
 10  9  1  1
  9 31  1  0
  9 32  1  0
 10 18  1  0
 10 19  1  0
 10 11  1  0
 11 12  1  0
 11 33  1  0
 11 34  1  0
 12 17  1  0
 12 13  1  0
 12 35  1  1
 13 14  1  0
 13 36  1  0
 13 37  1  0
 14 15  1  0
 14 19  1  0
 14 38  1  6
 15 16  1  0
 15 39  1  0
 15 40  1  0
 16 17  1  0
 16 18  1  0
 16 41  1  6
 17 42  1  0
 17 43  1  0
 18 44  1  0
 18 45  1  0
 19 46  1  0
 19 47  1  0
 20 25  1  0
 20 21  2  0
 21 22  1  0
 21 48  1  0
 22 23  2  0
 22 49  1  0
 23 24  1  0
 23 50  1  0
 24 25  2  0
 25 51  1  0
M  END
>  <i_m_ct_stereo_status>  (281) 
1

>  <s_m_source_file>  (281) 
/var/tmp/pbs.5076255.sched01/tmpk7n3yjou/123nw9z_609.sdf

>  <i_m_source_file_index>  (281) 
1

>  <i_lp_mmshare_version>  (281) 
48012

>  <i_f3d_flags>  (281) 
0

>  <s_epik_input>  (281) 
W0NIM11uMW5ubmMxW0NAQEhdKGMyW2NIXVtjSF1bY0hdbltjSF0yKVtOSF1bQ0gyXUMzNFtDSDJdW0NAQEhdNVtDSDJdW0NASF0oW0NIMl00KVtDSDJdW0NAQEhdKFtDSDJdNSlbQ0gyXTM=

>  <s_epik_cmdline>  (281) 
J2VwaWtfcHl0aG9uJywgJy1waHQnLCAnMi4wJywgJy1waCcsICc3LjAnLCAnLXRuJywgJzgnLCAnLW1hJywgJzIwMCcsICctaW1hZScsICc8aW5maWxlLm1hZT4nLCAnLW9tYWUnLCAnPG91dGZpbGUubWFlPic=

>  <r_lp_tautomer_probability>  (281) 
1

>  <r_epik_Ionization_Penalty>  (281) 
0.173577

>  <r_epik_Ionization_Penalty_Charging>  (281) 
0

>  <r_epik_Ionization_Penalty_Neutral>  (281) 
0.173577

>  <r_epik_State_Penalty>  (281) 
0.160701

>  <r_epik_Charging_Adjusted_Penalty>  (281) 
0.160701

>  <i_epik_Tot_Q>  (281) 
0

>  <i_epik_Tot_abs_Q>  (281) 
0

>  <s_lp_Force_Field>  (281) 
OPLS3e

>  <r_lp_Energy>  (281) 
25.0833

>  <b_lp_Chiralities_Consistent>  (281) 
1

>  <s_lp_Variant>  (281) 
88:0-1

>  <s_i_glide_gridfile>  (281) 
pfpi4k_grid

>  <i_i_glide_lignum>  (281) 
1

>  <i_i_glide_rotatable_bonds>  (281) 
5

>  <r_i_docking_score>  (281) 
-2.30046

>  <r_i_glide_ligand_efficiency>  (281) 
-0.0920183

>  <r_i_glide_ligand_efficiency_sa>  (281) 
-0.269063

>  <r_i_glide_ligand_efficiency_ln>  (281) 
-0.545277

>  <r_i_glide_gscore>  (281) 
-2.30046

>  <r_i_glide_lipo>  (281) 
-0.154496

>  <r_i_glide_hbond>  (281) 
0

>  <r_i_glide_metal>  (281) 
-0

>  <r_i_glide_rewards>  (281) 
-1.10148

>  <r_i_glide_evdw>  (281) 
-22.6023

>  <r_i_glide_ecoul>  (281) 
-3.25965

>  <r_i_glide_erotb>  (281) 
0.660407

>  <r_i_glide_esite>  (281) 
-0.0858277

>  <r_i_glide_emodel>  (281) 
-29.2659

>  <r_i_glide_energy>  (281) 
-25.862

>  <r_i_glide_einternal>  (281) 
1.94887

>  <r_i_glide_intrahb_reward>  (281) 
-0

>  <i_i_glide_confnum>  (281) 
4

>  <i_i_glide_posenum>  (281) 
16

>  <r_i_glide_eff_state_penalty>  (281) 
0

>  <ligand_id>  (281) 
88

>  <original_smiles>  (281) 
Cn1nnnc1C(NCC12CC3CC(CC(C3)C1)C2)c1cccnc1

>  <smiles>  (281) 
[H]c1nc([H])c(C([H])(c2nnnn2C([H])([H])[H])N([H])C([H])([H])C23C([H])([H])C4([H])C([H])([H])C([H])(C([H])([H])C([H])(C4([H])[H])C2([H])[H])C3([H])[H])c([H])c1[H]

$$$$
88:1:0
     RDKit          3D

 52 56  0  0  1  0  0  0  0  0999 V2000
   -8.7242   -6.9585  -10.8320 C   0  0  0  0  0  0  0  0  0  0  0  0
   -9.3904   -6.4045   -9.6630 N   0  0  0  0  0  0  0  0  0  0  0  0
  -10.5808   -5.8339   -9.8514 N   0  0  0  0  0  0  0  0  0  0  0  0
  -11.0560   -5.5504   -8.6961 N   0  0  0  0  0  0  0  0  0  0  0  0
  -10.1601   -5.8227   -7.7288 N   0  0  0  0  0  0  0  0  0  0  0  0
   -9.0908   -6.3544   -8.3347 C   0  0  0  0  0  0  0  0  0  0  0  0
   -7.7997   -6.8067   -7.6480 C   0  0  2  0  0  0  0  0  0  0  0  0
   -7.8979   -8.2970   -7.4827 N   0  0  0  0  0  0  0  0  0  0  0  0
   -8.2152   -9.0737   -8.7242 C   0  0  0  0  0  0  0  0  0  0  0  0
   -8.2782  -10.5747   -8.5604 C   0  0  1  0  0  0  0  0  0  0  0  0
   -8.7039  -11.2282   -9.9107 C   0  0  0  0  0  0  0  0  0  0  0  0
   -8.8065  -12.7485   -9.7270 C   0  0  2  0  0  0  0  0  0  0  0  0
   -9.8655  -13.0517   -8.6497 C   0  0  0  0  0  0  0  0  0  0  0  0
   -9.4392  -12.4018   -7.3216 C   0  0  1  0  0  0  0  0  0  0  0  0
   -8.0592  -12.9386   -6.8855 C   0  0  0  0  0  0  0  0  0  0  0  0
   -7.0030  -12.6374   -7.9697 C   0  0  1  0  0  0  0  0  0  0  0  0
   -7.4279  -13.2907   -9.3011 C   0  0  0  0  0  0  0  0  0  0  0  0
   -6.8915  -11.1187   -8.1559 C   0  0  0  0  0  0  0  0  0  0  0  0
   -9.3481  -10.8900   -7.4944 C   0  0  0  0  0  0  0  0  0  0  0  0
   -7.4061   -6.1314   -6.2929 C   0  0  0  0  0  0  0  0  0  0  0  0
   -8.2161   -5.1828   -5.6009 C   0  0  0  0  0  0  0  0  0  0  0  0
   -7.7574   -4.6500   -4.3909 C   0  0  0  0  0  0  0  0  0  0  0  0
   -6.5081   -5.0315   -3.9014 C   0  0  0  0  0  0  0  0  0  0  0  0
   -5.7129   -5.9162   -4.5355 N   0  0  0  0  0  0  0  0  0  0  0  0
   -6.1625   -6.4509   -5.6905 C   0  0  0  0  0  0  0  0  0  0  0  0
   -7.6435   -6.9636  -10.6969 H   0  0  0  0  0  0  0  0  0  0  0  0
   -8.9717   -6.3620  -11.7288 H   0  0  0  0  0  0  0  0  0  0  0  0
   -9.1067   -7.9817  -10.9494 H   0  0  0  0  0  0  0  0  0  0  0  0
   -6.9953   -6.5899   -8.3650 H   0  0  0  0  0  0  0  0  0  0  0  0
   -6.9931   -8.5960   -7.1392 H   0  0  0  0  0  0  0  0  0  0  0  0
   -9.2231   -8.8066   -9.0435 H   0  0  0  0  0  0  0  0  0  0  0  0
   -7.4778   -8.8427   -9.4947 H   0  0  0  0  0  0  0  0  0  0  0  0
   -9.6590  -10.8314  -10.2524 H   0  0  0  0  0  0  0  0  0  0  0  0
   -7.9996  -10.9942  -10.7079 H   0  0  0  0  0  0  0  0  0  0  0  0
   -9.1076  -13.2140  -10.6634 H   0  0  0  0  0  0  0  0  0  0  0  0
  -10.8387  -12.6647   -8.9562 H   0  0  0  0  0  0  0  0  0  0  0  0
   -9.9815  -14.1258   -8.5171 H   0  0  0  0  0  0  0  0  0  0  0  0
  -10.1908  -12.6008   -6.5646 H   0  0  0  0  0  0  0  0  0  0  0  0
   -7.7599  -12.4787   -5.9424 H   0  0  0  0  0  0  0  0  0  0  0  0
   -8.1150  -14.0121   -6.7221 H   0  0  0  0  0  0  0  0  0  0  0  0
   -6.0309  -13.0229   -7.6626 H   0  0  0  0  0  0  0  0  0  0  0  0
   -7.4641  -14.3719   -9.1857 H   0  0  0  0  0  0  0  0  0  0  0  0
   -6.6911  -13.0792  -10.0770 H   0  0  0  0  0  0  0  0  0  0  0  0
   -6.1561  -10.8811   -8.9307 H   0  0  0  0  0  0  0  0  0  0  0  0
   -6.5415  -10.6570   -7.2278 H   0  0  0  0  0  0  0  0  0  0  0  0
   -9.1114  -10.4247   -6.5347 H   0  0  0  0  0  0  0  0  0  0  0  0
  -10.3148  -10.4862   -7.8039 H   0  0  0  0  0  0  0  0  0  0  0  0
   -9.1833   -4.7823   -5.8890 H   0  0  0  0  0  0  0  0  0  0  0  0
   -8.3928   -3.9572   -3.8845 H   0  0  0  0  0  0  0  0  0  0  0  0
   -6.1894   -4.5929   -2.9623 H   0  0  0  0  0  0  0  0  0  0  0  0
   -5.4525   -7.1305   -6.1579 H   0  0  0  0  0  0  0  0  0  0  0  0
   -8.6076   -8.4891   -6.7792 H   0  0  0  0  0  0  0  0  0  0  0  0
  1  2  1  0
  1 26  1  0
  1 27  1  0
  1 28  1  0
  2  6  1  0
  2  3  1  0
  3  4  2  0
  4  5  1  0
  5  6  2  0
  6  7  1  0
  7  8  1  0
  7 20  1  0
  7 29  1  6
  8  9  1  0
  8 30  1  0
  8 52  1  0
 10  9  1  6
  9 31  1  0
  9 32  1  0
 10 18  1  0
 10 19  1  0
 10 11  1  0
 11 12  1  0
 11 33  1  0
 11 34  1  0
 12 17  1  0
 12 13  1  0
 12 35  1  6
 13 14  1  0
 13 36  1  0
 13 37  1  0
 14 15  1  0
 14 19  1  0
 14 38  1  1
 15 16  1  0
 15 39  1  0
 15 40  1  0
 16 17  1  0
 16 18  1  0
 16 41  1  1
 17 42  1  0
 17 43  1  0
 18 44  1  0
 18 45  1  0
 19 46  1  0
 19 47  1  0
 20 25  1  0
 20 21  2  0
 21 22  1  0
 21 48  1  0
 22 23  2  0
 22 49  1  0
 23 24  1  0
 23 50  1  0
 24 25  2  0
 25 51  1  0
M  CHG  1   8   1
M  END
>  <i_m_ct_stereo_status>  (282) 
1

>  <s_m_source_file>  (282) 
/var/tmp/pbs.5076255.sched01/tmpk7n3yjou/123nw9z_609.sdf

>  <i_m_source_file_index>  (282) 
2

>  <i_lp_mmshare_version>  (282) 
48012

>  <i_f3d_flags>  (282) 
0

>  <s_epik_input>  (282) 
W0NIM11uMW5ubmMxW0NAQEhdKGMyW2NIXVtjSF1bY0hdbltjSF0yKVtOSF1bQ0gyXUMzNFtDSDJdW0NAQEhdNVtDSDJdW0NASF0oW0NIMl00KVtDSDJdW0NAQEhdKFtDSDJdNSlbQ0gyXTM=

>  <s_epik_cmdline>  (282) 
J2VwaWtfcHl0aG9uJywgJy1waHQnLCAnMi4wJywgJy1waCcsICc3LjAnLCAnLXRuJywgJzgnLCAnLW1hJywgJzIwMCcsICctaW1hZScsICc8aW5maWxlLm1hZT4nLCAnLW9tYWUnLCAnPG91dGZpbGUubWFlPic=

>  <r_lp_tautomer_probability>  (282) 
1

>  <r_epik_Ionization_Penalty>  (282) 
0.819389

>  <r_epik_Ionization_Penalty_Charging>  (282) 
0.818777

>  <r_epik_Ionization_Penalty_Neutral>  (282) 
0.000611879

>  <r_epik_State_Penalty>  (282) 
0.851599

>  <r_epik_Charging_Adjusted_Penalty>  (282) 
1.67038

>  <i_epik_Tot_Q>  (282) 
1

>  <i_epik_Tot_abs_Q>  (282) 
1

>  <s_lp_Force_Field>  (282) 
OPLS3e

>  <r_lp_Energy>  (282) 
21.5887

>  <b_lp_Chiralities_Consistent>  (282) 
1

>  <s_lp_Variant>  (282) 
88:0-2

>  <s_i_glide_gridfile>  (282) 
pfpi4k_grid

>  <i_i_glide_lignum>  (282) 
2

>  <i_i_glide_rotatable_bonds>  (282) 
5

>  <r_i_docking_score>  (282) 
-5.79618

>  <r_i_glide_ligand_efficiency>  (282) 
-0.231847

>  <r_i_glide_ligand_efficiency_sa>  (282) 
-0.677925

>  <r_i_glide_ligand_efficiency_ln>  (282) 
-1.37387

>  <r_i_glide_gscore>  (282) 
-5.79618

>  <r_i_glide_lipo>  (282) 
-2.24403

>  <r_i_glide_hbond>  (282) 
0

>  <r_i_glide_metal>  (282) 
-0

>  <r_i_glide_rewards>  (282) 
-2.53762

>  <r_i_glide_evdw>  (282) 
-22.5676

>  <r_i_glide_ecoul>  (282) 
-2.71571

>  <r_i_glide_erotb>  (282) 
0.656936

>  <r_i_glide_esite>  (282) 
-0.135724

>  <r_i_glide_emodel>  (282) 
-30.4513

>  <r_i_glide_energy>  (282) 
-25.2833

>  <r_i_glide_einternal>  (282) 
4.2264

>  <r_i_glide_intrahb_reward>  (282) 
-0

>  <i_i_glide_confnum>  (282) 
5

>  <i_i_glide_posenum>  (282) 
30

>  <r_i_glide_eff_state_penalty>  (282) 
0

>  <ligand_id>  (282) 
88

>  <original_smiles>  (282) 
Cn1nnnc1C(NCC12CC3CC(CC(C3)C1)C2)c1cccnc1

>  <smiles>  (282) 
[H]c1nc([H])c(C([H])(c2nnnn2C([H])([H])[H])[N+]([H])([H])C([H])([H])C23C([H])([H])C4([H])C([H])([H])C([H])(C([H])([H])C([H])(C4([H])[H])C2([H])[H])C3([H])[H])c([H])c1[H]

$$$$
88:1:1
     RDKit          3D

 52 56  0  0  1  0  0  0  0  0999 V2000
    1.3458   -3.4921    4.0695 C   0  0  0  0  0  0  0  0  0  0  0  0
    2.5618   -2.6864    4.0225 N   0  0  0  0  0  0  0  0  0  0  0  0
    3.6324   -3.0182    4.7935 N   0  0  0  0  0  0  0  0  0  0  0  0
    4.5610   -2.1560    4.5124 N   0  0  0  0  0  0  0  0  0  0  0  0
    4.1501   -1.2539    3.5409 N   0  0  0  0  0  0  0  0  0  0  0  0
    2.8982   -1.6210    3.2883 C   0  0  0  0  0  0  0  0  0  0  0  0
    1.9888   -0.9822    2.2541 C   0  0  2  0  0  0  0  0  0  0  0  0
    2.6480   -1.1439    0.9275 N   0  0  0  0  0  0  0  0  0  0  0  0
    3.0708   -2.5154    0.5228 C   0  0  0  0  0  0  0  0  0  0  0  0
    3.7227   -2.5498   -0.8862 C   0  0  1  0  0  0  0  0  0  0  0  0
    4.9823   -1.6557   -0.8991 C   0  0  0  0  0  0  0  0  0  0  0  0
    5.5951   -1.7074   -2.2997 C   0  0  2  0  0  0  0  0  0  0  0  0
    4.5885   -1.1652   -3.3420 C   0  0  0  0  0  0  0  0  0  0  0  0
    3.3605   -2.0791   -3.3702 C   0  0  1  0  0  0  0  0  0  0  0  0
    3.7541   -3.5210   -3.7165 C   0  0  0  0  0  0  0  0  0  0  0  0
    4.7444   -4.0453   -2.6456 C   0  0  1  0  0  0  0  0  0  0  0  0
    6.0005   -3.1538   -2.6351 C   0  0  0  0  0  0  0  0  0  0  0  0
    4.1178   -4.0026   -1.2289 C   0  0  0  0  0  0  0  0  0  0  0  0
    2.7563   -2.0298   -1.9746 C   0  0  0  0  0  0  0  0  0  0  0  0
    1.6424    0.4671    2.5923 C   0  0  0  0  0  0  0  0  0  0  0  0
    2.6186    1.4929    2.5614 C   0  0  0  0  0  0  0  0  0  0  0  0
    2.2418    2.8024    2.8892 C   0  0  0  0  0  0  0  0  0  0  0  0
    0.9108    3.0465    3.2606 C   0  0  0  0  0  0  0  0  0  0  0  0
   -0.0313    2.0815    3.3064 N   0  0  0  0  0  0  0  0  0  0  0  0
    0.3318    0.8322    2.9669 C   0  0  0  0  0  0  0  0  0  0  0  0
    0.4711   -2.8804    3.8337 H   0  0  0  0  0  0  0  0  0  0  0  0
    1.2216   -3.8986    5.0684 H   0  0  0  0  0  0  0  0  0  0  0  0
    1.4247   -4.3118    3.3530 H   0  0  0  0  0  0  0  0  0  0  0  0
    1.0619   -1.5440    2.1988 H   0  0  0  0  0  0  0  0  0  0  0  0
    1.9594   -0.8305    0.2272 H   0  0  0  0  0  0  0  0  0  0  0  0
    3.7887   -2.9071    1.2488 H   0  0  0  0  0  0  0  0  0  0  0  0
    2.1831   -3.1548    0.5648 H   0  0  0  0  0  0  0  0  0  0  0  0
    4.7494   -0.6156   -0.6401 H   0  0  0  0  0  0  0  0  0  0  0  0
    5.6992   -2.0083   -0.1556 H   0  0  0  0  0  0  0  0  0  0  0  0
    6.4680   -1.0788   -2.2806 H   0  0  0  0  0  0  0  0  0  0  0  0
    4.3031   -0.1425   -3.0855 H   0  0  0  0  0  0  0  0  0  0  0  0
    5.0012   -1.1079   -4.3448 H   0  0  0  0  0  0  0  0  0  0  0  0
    2.6309   -1.7015   -4.0888 H   0  0  0  0  0  0  0  0  0  0  0  0
    2.8540   -4.1377   -3.7513 H   0  0  0  0  0  0  0  0  0  0  0  0
    4.2015   -3.5530   -4.7103 H   0  0  0  0  0  0  0  0  0  0  0  0
    5.0131   -5.0683   -2.8873 H   0  0  0  0  0  0  0  0  0  0  0  0
    6.5019   -3.1951   -3.5933 H   0  0  0  0  0  0  0  0  0  0  0  0
    6.7221   -3.5108   -1.8998 H   0  0  0  0  0  0  0  0  0  0  0  0
    4.8298   -4.3805   -0.4903 H   0  0  0  0  0  0  0  0  0  0  0  0
    3.2274   -4.6280   -1.1212 H   0  0  0  0  0  0  0  0  0  0  0  0
    1.8207   -2.5922   -1.9517 H   0  0  0  0  0  0  0  0  0  0  0  0
    2.5818   -0.9743   -1.7929 H   0  0  0  0  0  0  0  0  0  0  0  0
    3.6352    1.2740    2.2866 H   0  0  0  0  0  0  0  0  0  0  0  0
    2.9596    3.6071    2.8487 H   0  0  0  0  0  0  0  0  0  0  0  0
    0.5842    4.0457    3.4936 H   0  0  0  0  0  0  0  0  0  0  0  0
   -0.4495    0.0826    3.0101 H   0  0  0  0  0  0  0  0  0  0  0  0
    3.4478   -0.5209    0.8933 H   0  0  0  0  0  0  0  0  0  0  0  0
  1  2  1  0
  1 26  1  0
  1 27  1  0
  1 28  1  0
  2  6  1  0
  2  3  1  0
  3  4  2  0
  4  5  1  0
  5  6  2  0
  6  7  1  0
  7  8  1  0
  7 20  1  0
  7 29  1  6
  8  9  1  0
  8 30  1  0
  8 52  1  0
 10  9  1  1
  9 31  1  0
  9 32  1  0
 10 18  1  0
 10 19  1  0
 10 11  1  0
 11 12  1  0
 11 33  1  0
 11 34  1  0
 12 17  1  0
 12 13  1  0
 12 35  1  1
 13 14  1  0
 13 36  1  0
 13 37  1  0
 14 15  1  0
 14 19  1  0
 14 38  1  6
 15 16  1  0
 15 39  1  0
 15 40  1  0
 16 17  1  0
 16 18  1  0
 16 41  1  6
 17 42  1  0
 17 43  1  0
 18 44  1  0
 18 45  1  0
 19 46  1  0
 19 47  1  0
 20 25  1  0
 20 21  2  0
 21 22  1  0
 21 48  1  0
 22 23  2  0
 22 49  1  0
 23 24  1  0
 23 50  1  0
 24 25  2  0
 25 51  1  0
M  CHG  1   8   1
M  END
>  <i_m_ct_stereo_status>  (283) 
1

>  <s_m_source_file>  (283) 
/var/tmp/pbs.5076255.sched01/tmpk7n3yjou/123nw9z_609.sdf

>  <i_m_source_file_index>  (283) 
2

>  <i_lp_mmshare_version>  (283) 
48012

>  <i_f3d_flags>  (283) 
0

>  <s_epik_input>  (283) 
W0NIM11uMW5ubmMxW0NAQEhdKGMyW2NIXVtjSF1bY0hdbltjSF0yKVtOSF1bQ0gyXUMzNFtDSDJdW0NAQEhdNVtDSDJdW0NASF0oW0NIMl00KVtDSDJdW0NAQEhdKFtDSDJdNSlbQ0gyXTM=

>  <s_epik_cmdline>  (283) 
J2VwaWtfcHl0aG9uJywgJy1waHQnLCAnMi4wJywgJy1waCcsICc3LjAnLCAnLXRuJywgJzgnLCAnLW1hJywgJzIwMCcsICctaW1hZScsICc8aW5maWxlLm1hZT4nLCAnLW9tYWUnLCAnPG91dGZpbGUubWFlPic=

>  <r_lp_tautomer_probability>  (283) 
1

>  <r_epik_Ionization_Penalty>  (283) 
0.819389

>  <r_epik_Ionization_Penalty_Charging>  (283) 
0.818777

>  <r_epik_Ionization_Penalty_Neutral>  (283) 
0.000611879

>  <r_epik_State_Penalty>  (283) 
0.851599

>  <r_epik_Charging_Adjusted_Penalty>  (283) 
1.67038

>  <i_epik_Tot_Q>  (283) 
1

>  <i_epik_Tot_abs_Q>  (283) 
1

>  <s_lp_Force_Field>  (283) 
OPLS3e

>  <r_lp_Energy>  (283) 
21.5887

>  <b_lp_Chiralities_Consistent>  (283) 
1

>  <s_lp_Variant>  (283) 
88:0-2

>  <s_i_glide_gridfile>  (283) 
pfpi4k_grid

>  <i_i_glide_lignum>  (283) 
2

>  <i_i_glide_rotatable_bonds>  (283) 
5

>  <r_i_docking_score>  (283) 
-3.65225

>  <r_i_glide_ligand_efficiency>  (283) 
-0.14609

>  <r_i_glide_ligand_efficiency_sa>  (283) 
-0.42717

>  <r_i_glide_ligand_efficiency_ln>  (283) 
-0.865693

>  <r_i_glide_gscore>  (283) 
-3.65225

>  <r_i_glide_lipo>  (283) 
-0.612941

>  <r_i_glide_hbond>  (283) 
-0.2

>  <r_i_glide_metal>  (283) 
-0

>  <r_i_glide_rewards>  (283) 
-1.09498

>  <r_i_glide_evdw>  (283) 
-18.8613

>  <r_i_glide_ecoul>  (283) 
-9.30828

>  <r_i_glide_erotb>  (283) 
0.656936

>  <r_i_glide_esite>  (283) 
-0.0619592

>  <r_i_glide_emodel>  (283) 
-33.6031

>  <r_i_glide_energy>  (283) 
-28.1696

>  <r_i_glide_einternal>  (283) 
0.913702

>  <r_i_glide_intrahb_reward>  (283) 
-0

>  <i_i_glide_confnum>  (283) 
5

>  <i_i_glide_posenum>  (283) 
12

>  <r_i_glide_eff_state_penalty>  (283) 
0

>  <ligand_id>  (283) 
88

>  <original_smiles>  (283) 
Cn1nnnc1C(NCC12CC3CC(CC(C3)C1)C2)c1cccnc1

>  <smiles>  (283) 
[H]c1nc([H])c(C([H])(c2nnnn2C([H])([H])[H])[N+]([H])([H])C([H])([H])C23C([H])([H])C4([H])C([H])([H])C([H])(C([H])([H])C([H])(C4([H])[H])C2([H])[H])C3([H])[H])c([H])c1[H]

$$$$
88:1:2
     RDKit          3D

 52 56  0  0  1  0  0  0  0  0999 V2000
    3.7763    2.2246    5.6903 C   0  0  0  0  0  0  0  0  0  0  0  0
    3.1822    2.6329    4.4373 N   0  0  0  0  0  0  0  0  0  0  0  0
    3.1531    3.9422    4.0834 N   0  0  0  0  0  0  0  0  0  0  0  0
    2.5919    4.0043    2.9148 N   0  0  0  0  0  0  0  0  0  0  0  0
    2.2161    2.7475    2.4813 N   0  0  0  0  0  0  0  0  0  0  0  0
    2.6031    1.9355    3.4480 C   0  0  0  0  0  0  0  0  0  0  0  0
    2.4106    0.4385    3.4730 C   0  0  2  0  0  0  0  0  0  0  0  0
    2.7201   -0.0483    2.0992 N   0  0  0  0  0  0  0  0  0  0  0  0
    4.1431    0.0681    1.6822 C   0  0  0  0  0  0  0  0  0  0  0  0
    4.6598   -1.1714    0.9059 C   0  0  1  0  0  0  0  0  0  0  0  0
    3.9568   -1.2837   -0.4700 C   0  0  0  0  0  0  0  0  0  0  0  0
    4.4570   -2.5231   -1.2348 C   0  0  2  0  0  0  0  0  0  0  0  0
    4.1628   -3.7866   -0.4012 C   0  0  0  0  0  0  0  0  0  0  0  0
    4.9160   -3.6967    0.9419 C   0  0  1  0  0  0  0  0  0  0  0  0
    6.4302   -3.5699    0.6880 C   0  0  0  0  0  0  0  0  0  0  0  0
    6.7005   -2.2935   -0.1339 C   0  0  1  0  0  0  0  0  0  0  0  0
    5.9704   -2.3849   -1.4878 C   0  0  0  0  0  0  0  0  0  0  0  0
    6.1914   -1.0564    0.6449 C   0  0  0  0  0  0  0  0  0  0  0  0
    4.4156   -2.4685    1.7243 C   0  0  0  0  0  0  0  0  0  0  0  0
    1.0209    0.0003    3.9373 C   0  0  0  0  0  0  0  0  0  0  0  0
   -0.1298    0.7983    3.7400 C   0  0  0  0  0  0  0  0  0  0  0  0
   -1.3689    0.3455    4.2249 C   0  0  0  0  0  0  0  0  0  0  0  0
   -1.4235   -0.8954    4.8828 C   0  0  0  0  0  0  0  0  0  0  0  0
   -0.3416   -1.6699    5.0819 N   0  0  0  0  0  0  0  0  0  0  0  0
    0.8483   -1.2260    4.6239 C   0  0  0  0  0  0  0  0  0  0  0  0
    3.2801    1.3323    6.0731 H   0  0  0  0  0  0  0  0  0  0  0  0
    3.6724    3.0221    6.4242 H   0  0  0  0  0  0  0  0  0  0  0  0
    4.8353    2.0189    5.5350 H   0  0  0  0  0  0  0  0  0  0  0  0
    3.1332    0.0046    4.1601 H   0  0  0  0  0  0  0  0  0  0  0  0
    2.5107   -1.0341    2.0976 H   0  0  0  0  0  0  0  0  0  0  0  0
    4.2259    0.9530    1.0578 H   0  0  0  0  0  0  0  0  0  0  0  0
    4.7800    0.2230    2.5552 H   0  0  0  0  0  0  0  0  0  0  0  0
    2.8800   -1.3589   -0.3370 H   0  0  0  0  0  0  0  0  0  0  0  0
    4.1440   -0.3870   -1.0639 H   0  0  0  0  0  0  0  0  0  0  0  0
    3.9343   -2.5906   -2.1887 H   0  0  0  0  0  0  0  0  0  0  0  0
    3.0901   -3.8720   -0.2236 H   0  0  0  0  0  0  0  0  0  0  0  0
    4.4551   -4.6831   -0.9478 H   0  0  0  0  0  0  0  0  0  0  0  0
    4.7208   -4.5946    1.5275 H   0  0  0  0  0  0  0  0  0  0  0  0
    6.9703   -3.5322    1.6344 H   0  0  0  0  0  0  0  0  0  0  0  0
    6.7981   -4.4485    0.1579 H   0  0  0  0  0  0  0  0  0  0  0  0
    7.7725   -2.2030   -0.3054 H   0  0  0  0  0  0  0  0  0  0  0  0
    6.3430   -3.2276   -2.0706 H   0  0  0  0  0  0  0  0  0  0  0  0
    6.1618   -1.4905   -2.0784 H   0  0  0  0  0  0  0  0  0  0  0  0
    6.4136   -0.1442    0.0886 H   0  0  0  0  0  0  0  0  0  0  0  0
    6.7340   -0.9734    1.5890 H   0  0  0  0  0  0  0  0  0  0  0  0
    4.9237   -2.4062    2.6890 H   0  0  0  0  0  0  0  0  0  0  0  0
    3.3556   -2.6103    1.9403 H   0  0  0  0  0  0  0  0  0  0  0  0
   -0.0873    1.7505    3.2308 H   0  0  0  0  0  0  0  0  0  0  0  0
   -2.2609    0.9393    4.0848 H   0  0  0  0  0  0  0  0  0  0  0  0
   -2.3646   -1.2771    5.2522 H   0  0  0  0  0  0  0  0  0  0  0  0
    1.6890   -1.8748    4.8156 H   0  0  0  0  0  0  0  0  0  0  0  0
    2.1140    0.3974    1.4196 H   0  0  0  0  0  0  0  0  0  0  0  0
  1  2  1  0
  1 26  1  0
  1 27  1  0
  1 28  1  0
  2  6  1  0
  2  3  1  0
  3  4  2  0
  4  5  1  0
  5  6  2  0
  6  7  1  0
  7  8  1  0
  7 20  1  0
  7 29  1  1
  8  9  1  0
  8 30  1  0
  8 52  1  0
 10  9  1  1
  9 31  1  0
  9 32  1  0
 10 18  1  0
 10 19  1  0
 10 11  1  0
 11 12  1  0
 11 33  1  0
 11 34  1  0
 12 17  1  0
 12 13  1  0
 12 35  1  6
 13 14  1  0
 13 36  1  0
 13 37  1  0
 14 15  1  0
 14 19  1  0
 14 38  1  1
 15 16  1  0
 15 39  1  0
 15 40  1  0
 16 17  1  0
 16 18  1  0
 16 41  1  6
 17 42  1  0
 17 43  1  0
 18 44  1  0
 18 45  1  0
 19 46  1  0
 19 47  1  0
 20 25  1  0
 20 21  2  0
 21 22  1  0
 21 48  1  0
 22 23  2  0
 22 49  1  0
 23 24  1  0
 23 50  1  0
 24 25  2  0
 25 51  1  0
M  CHG  1   8   1
M  END
>  <i_m_ct_stereo_status>  (284) 
1

>  <s_m_source_file>  (284) 
/var/tmp/pbs.5076255.sched01/tmpk7n3yjou/123nw9z_609.sdf

>  <i_m_source_file_index>  (284) 
2

>  <i_lp_mmshare_version>  (284) 
48012

>  <i_f3d_flags>  (284) 
0

>  <s_epik_input>  (284) 
W0NIM11uMW5ubmMxW0NAQEhdKGMyW2NIXVtjSF1bY0hdbltjSF0yKVtOSF1bQ0gyXUMzNFtDSDJdW0NAQEhdNVtDSDJdW0NASF0oW0NIMl00KVtDSDJdW0NAQEhdKFtDSDJdNSlbQ0gyXTM=

>  <s_epik_cmdline>  (284) 
J2VwaWtfcHl0aG9uJywgJy1waHQnLCAnMi4wJywgJy1waCcsICc3LjAnLCAnLXRuJywgJzgnLCAnLW1hJywgJzIwMCcsICctaW1hZScsICc8aW5maWxlLm1hZT4nLCAnLW9tYWUnLCAnPG91dGZpbGUubWFlPic=

>  <r_lp_tautomer_probability>  (284) 
1

>  <r_epik_Ionization_Penalty>  (284) 
0.819389

>  <r_epik_Ionization_Penalty_Charging>  (284) 
0.818777

>  <r_epik_Ionization_Penalty_Neutral>  (284) 
0.000611879

>  <r_epik_State_Penalty>  (284) 
0.851599

>  <r_epik_Charging_Adjusted_Penalty>  (284) 
1.67038

>  <i_epik_Tot_Q>  (284) 
1

>  <i_epik_Tot_abs_Q>  (284) 
1

>  <s_lp_Force_Field>  (284) 
OPLS3e

>  <r_lp_Energy>  (284) 
21.5887

>  <b_lp_Chiralities_Consistent>  (284) 
1

>  <s_lp_Variant>  (284) 
88:0-2

>  <s_i_glide_gridfile>  (284) 
pfpi4k_grid

>  <i_i_glide_lignum>  (284) 
2

>  <i_i_glide_rotatable_bonds>  (284) 
5

>  <r_i_docking_score>  (284) 
-2.40956

>  <r_i_glide_ligand_efficiency>  (284) 
-0.0963823

>  <r_i_glide_ligand_efficiency_sa>  (284) 
-0.281823

>  <r_i_glide_ligand_efficiency_ln>  (284) 
-0.571137

>  <r_i_glide_gscore>  (284) 
-2.40956

>  <r_i_glide_lipo>  (284) 
-0.321084

>  <r_i_glide_hbond>  (284) 
0

>  <r_i_glide_metal>  (284) 
-0

>  <r_i_glide_rewards>  (284) 
-1.09461

>  <r_i_glide_evdw>  (284) 
-24.7671

>  <r_i_glide_ecoul>  (284) 
-1.78237

>  <r_i_glide_erotb>  (284) 
0.656936

>  <r_i_glide_esite>  (284) 
-0.145093

>  <r_i_glide_emodel>  (284) 
-29.2115

>  <r_i_glide_energy>  (284) 
-26.5495

>  <r_i_glide_einternal>  (284) 
2.85008

>  <r_i_glide_intrahb_reward>  (284) 
-0

>  <i_i_glide_confnum>  (284) 
5

>  <i_i_glide_posenum>  (284) 
33

>  <r_i_glide_eff_state_penalty>  (284) 
0

>  <ligand_id>  (284) 
88

>  <original_smiles>  (284) 
Cn1nnnc1C(NCC12CC3CC(CC(C3)C1)C2)c1cccnc1

>  <smiles>  (284) 
[H]c1nc([H])c(C([H])(c2nnnn2C([H])([H])[H])[N+]([H])([H])C([H])([H])C23C([H])([H])C4([H])C([H])([H])C([H])(C([H])([H])C([H])(C4([H])[H])C2([H])[H])C3([H])[H])c([H])c1[H]

$$$$
90:0:0
     RDKit          3D

 30 35  0  0  1  0  0  0  0  0999 V2000
    3.5860   -0.0581   -3.3005 O   0  0  0  0  0  0  0  0  0  0  0  0
    3.4098   -1.1819   -2.4594 C   0  0  2  0  0  0  0  0  0  0  0  0
    2.8959   -2.3523   -3.5406 C   0  0  0  0  0  0  0  0  0  0  0  0
    3.9181   -3.6807   -3.8723 C   0  0  0  0  0  0  0  0  0  0  0  0
    5.0052   -3.9756   -2.6117 C   0  0  1  0  0  0  0  0  0  0  0  0
    6.0575   -2.9776   -1.6823 C   0  0  2  0  0  0  0  0  0  0  0  0
    5.8882   -3.3661   -0.2125 C   0  0  1  0  0  0  0  0  0  0  0  0
    4.7044   -2.8383    0.6826 C   0  0  1  0  0  0  0  0  0  0  0  0
    3.8162   -1.6119    0.3636 C   0  0  0  0  0  0  0  0  0  0  0  0
    4.1736   -0.9660   -1.0064 C   0  0  1  0  0  0  0  0  0  0  0  0
    5.5255   -1.4862   -1.5674 C   0  0  1  0  0  0  0  0  0  0  0  0
    4.4880   -2.0601   -2.2682 C   0  0  1  0  0  0  0  0  0  0  0  0
    4.0810   -3.5260   -1.6597 C   0  0  2  0  0  0  0  0  0  0  0  0
    4.5492   -3.9227   -0.2964 C   0  0  1  0  0  0  0  0  0  0  0  0
    2.9716    0.6067   -3.0085 H   0  0  0  0  0  0  0  0  0  0  0  0
    1.9340   -2.7312   -3.1824 H   0  0  0  0  0  0  0  0  0  0  0  0
    2.6253   -1.8933   -4.4850 H   0  0  0  0  0  0  0  0  0  0  0  0
    3.2812   -4.5545   -4.0481 H   0  0  0  0  0  0  0  0  0  0  0  0
    4.4917   -3.5218   -4.7871 H   0  0  0  0  0  0  0  0  0  0  0  0
    5.1952   -5.0396   -2.4971 H   0  0  0  0  0  0  0  0  0  0  0  0
    7.0993   -3.0542   -1.9883 H   0  0  0  0  0  0  0  0  0  0  0  0
    6.6553   -4.0061    0.2303 H   0  0  0  0  0  0  0  0  0  0  0  0
    4.6995   -3.1342    1.7243 H   0  0  0  0  0  0  0  0  0  0  0  0
    2.7685   -1.9232    0.3836 H   0  0  0  0  0  0  0  0  0  0  0  0
    3.9321   -0.8723    1.1570 H   0  0  0  0  0  0  0  0  0  0  0  0
    4.2709    0.1117   -0.8421 H   0  0  0  0  0  0  0  0  0  0  0  0
    6.0664   -0.7322   -2.1336 H   0  0  0  0  0  0  0  0  0  0  0  0
    5.0099   -1.8653   -3.2510 H   0  0  0  0  0  0  0  0  0  0  0  0
    3.0470   -3.8812   -1.7246 H   0  0  0  0  0  0  0  0  0  0  0  0
    4.3972   -4.9572    0.0222 H   0  0  0  0  0  0  0  0  0  0  0  0
  2  1  1  6
  1 15  1  0
  2 10  1  0
  2 12  1  0
  2  3  1  0
  3  4  1  0
  3 16  1  0
  3 17  1  0
  4  5  1  0
  4 18  1  0
  4 19  1  0
  5 13  1  0
  5  6  1  0
  5 20  1  1
  6 11  1  0
  6  7  1  0
  6 21  1  6
  7 14  1  0
  7  8  1  0
  7 22  1  1
  8 14  1  0
  8  9  1  0
  8 23  1  1
  9 10  1  0
  9 24  1  0
  9 25  1  0
 10 11  1  0
 10 26  1  1
 11 12  1  0
 11 27  1  6
 12 13  1  0
 12 28  1  6
 13 14  1  0
 13 29  1  6
 14 30  1  1
M  END
>  <i_m_ct_stereo_status>  (285) 
1

>  <s_m_source_file>  (285) 
/var/tmp/pbs.5076255.sched01/tmpk7n3yjou/123nw9z_609.sdf

>  <i_m_source_file_index>  (285) 
4

>  <i_lp_mmshare_version>  (285) 
48012

>  <i_f3d_flags>  (285) 
2

>  <s_epik_input>  (285) 
W09IXVtDQEBdMTJbQ0BASF0zW0NASF00W0NAQEhdNVtDSF0oW0NIMl1bQ0gyXTEpW0NAQEhdKFtDQEBIXTI0KVtDQEhdNltDQEBIXTVbQ0BIXTZbQ0gyXTM=

>  <s_epik_cmdline>  (285) 
J2VwaWtfcHl0aG9uJywgJy1waHQnLCAnMi4wJywgJy1waCcsICc3LjAnLCAnLXRuJywgJzgnLCAnLW1hJywgJzIwMCcsICctaW1hZScsICc8aW5maWxlLm1hZT4nLCAnLW9tYWUnLCAnPG91dGZpbGUubWFlPic=

>  <r_lp_tautomer_probability>  (285) 
1

>  <r_epik_Ionization_Penalty>  (285) 
5.48459e-06

>  <r_epik_Ionization_Penalty_Charging>  (285) 
0

>  <r_epik_Ionization_Penalty_Neutral>  (285) 
5.48459e-06

>  <r_epik_State_Penalty>  (285) 
-0

>  <r_epik_Charging_Adjusted_Penalty>  (285) 
0

>  <i_epik_Tot_Q>  (285) 
0

>  <i_epik_Tot_abs_Q>  (285) 
0

>  <s_lp_Force_Field>  (285) 
OPLS3e

>  <r_lp_Energy>  (285) 
334.797

>  <b_lp_Chiralities_Consistent>  (285) 
0

>  <s_lp_Variant>  (285) 
90:0-1

>  <s_i_glide_gridfile>  (285) 
pfpi4k_grid

>  <i_i_glide_lignum>  (285) 
4

>  <i_i_glide_rotatable_bonds>  (285) 
1

>  <r_i_docking_score>  (285) 
-4.17477

>  <r_i_glide_ligand_efficiency>  (285) 
-0.298198

>  <r_i_glide_ligand_efficiency_sa>  (285) 
-0.7187

>  <r_i_glide_ligand_efficiency_ln>  (285) 
-1.14721

>  <r_i_glide_gscore>  (285) 
-4.17477

>  <r_i_glide_lipo>  (285) 
-0.402852

>  <r_i_glide_hbond>  (285) 
-0.32

>  <r_i_glide_metal>  (285) 
-0

>  <r_i_glide_rewards>  (285) 
-2.12546

>  <r_i_glide_evdw>  (285) 
-15.3771

>  <r_i_glide_ecoul>  (285) 
-3.71738

>  <r_i_glide_erotb>  (285) 
0

>  <r_i_glide_esite>  (285) 
0

>  <r_i_glide_emodel>  (285) 
-23.8651

>  <r_i_glide_energy>  (285) 
-19.0944

>  <r_i_glide_einternal>  (285) 
0.765912

>  <r_i_glide_intrahb_reward>  (285) 
-0

>  <i_i_glide_confnum>  (285) 
2

>  <i_i_glide_posenum>  (285) 
3

>  <r_i_glide_eff_state_penalty>  (285) 
0

>  <ligand_id>  (285) 
90

>  <original_smiles>  (285) 
OC12CCC3C4C5C6CC1C4C2C3C65

>  <smiles>  (285) 
[H]OC12C([H])([H])C([H])([H])C3([H])C4([H])C5([H])C6([H])C([H])([H])C1([H])C4([H])C2([H])C3([H])C65[H]

$$$$
90:0:1
     RDKit          3D

 30 35  0  0  1  0  0  0  0  0999 V2000
    7.5191   -3.6263    0.2570 O   0  0  0  0  0  0  0  0  0  0  0  0
    6.2556   -3.8649   -0.3391 C   0  0  2  0  0  0  0  0  0  0  0  0
    5.3324   -4.4874    0.9149 C   0  0  0  0  0  0  0  0  0  0  0  0
    4.0046   -3.5843    1.5108 C   0  0  0  0  0  0  0  0  0  0  0  0
    3.4065   -2.4808    0.3758 C   0  0  1  0  0  0  0  0  0  0  0  0
    4.1595   -1.3542   -0.6911 C   0  0  2  0  0  0  0  0  0  0  0  0
    3.5205   -1.5218   -2.0750 C   0  0  1  0  0  0  0  0  0  0  0  0
    3.9534   -2.6477   -3.0789 C   0  0  1  0  0  0  0  0  0  0  0  0
    5.2723   -3.4544   -3.0014 C   0  0  0  0  0  0  0  0  0  0  0  0
    6.1532   -3.0627   -1.7770 C   0  0  1  0  0  0  0  0  0  0  0  0
    5.6478   -1.7568   -1.0834 C   0  0  1  0  0  0  0  0  0  0  0  0
    5.2780   -2.8506   -0.3258 C   0  0  1  0  0  0  0  0  0  0  0  0
    3.7426   -3.3561   -0.6664 C   0  0  2  0  0  0  0  0  0  0  0  0
    3.0786   -2.8988   -1.9315 C   0  0  1  0  0  0  0  0  0  0  0  0
    8.1196   -3.4697   -0.4534 H   0  0  0  0  0  0  0  0  0  0  0  0
    4.9745   -5.4712    0.5940 H   0  0  0  0  0  0  0  0  0  0  0  0
    5.9795   -4.7435    1.7574 H   0  0  0  0  0  0  0  0  0  0  0  0
    3.2114   -4.2902    1.7965 H   0  0  0  0  0  0  0  0  0  0  0  0
    4.2966   -3.0540    2.4289 H   0  0  0  0  0  0  0  0  0  0  0  0
    2.3329   -2.3215    0.4786 H   0  0  0  0  0  0  0  0  0  0  0  0
    4.0739   -0.3196   -0.3488 H   0  0  0  0  0  0  0  0  0  0  0  0
    2.7590   -0.7986   -2.3660 H   0  0  0  0  0  0  0  0  0  0  0  0
    3.4743   -2.6612   -4.0533 H   0  0  0  0  0  0  0  0  0  0  0  0
    5.0277   -4.5166   -2.9931 H   0  0  0  0  0  0  0  0  0  0  0  0
    5.8437   -3.2950   -3.9137 H   0  0  0  0  0  0  0  0  0  0  0  0
    7.1717   -2.8962   -2.1444 H   0  0  0  0  0  0  0  0  0  0  0  0
    6.4388   -1.1435   -0.6434 H   0  0  0  0  0  0  0  0  0  0  0  0
    5.6029   -2.3358    0.6275 H   0  0  0  0  0  0  0  0  0  0  0  0
    3.4664   -4.4097   -0.5716 H   0  0  0  0  0  0  0  0  0  0  0  0
    2.0166   -3.1183   -2.0605 H   0  0  0  0  0  0  0  0  0  0  0  0
  2  1  1  1
  1 15  1  0
  2 10  1  0
  2 12  1  0
  2  3  1  0
  3  4  1  0
  3 16  1  0
  3 17  1  0
  4  5  1  0
  4 18  1  0
  4 19  1  0
  5 13  1  0
  5  6  1  0
  5 20  1  1
  6 11  1  0
  6  7  1  0
  6 21  1  1
  7 14  1  0
  7  8  1  0
  7 22  1  6
  8 14  1  0
  8  9  1  0
  8 23  1  6
  9 10  1  0
  9 24  1  0
  9 25  1  0
 10 11  1  0
 10 26  1  6
 11 12  1  0
 11 27  1  1
 12 13  1  0
 12 28  1  1
 13 14  1  0
 13 29  1  1
 14 30  1  6
M  END
>  <i_m_ct_stereo_status>  (286) 
1

>  <s_m_source_file>  (286) 
/var/tmp/pbs.5076255.sched01/tmpk7n3yjou/123nw9z_609.sdf

>  <i_m_source_file_index>  (286) 
4

>  <i_lp_mmshare_version>  (286) 
48012

>  <i_f3d_flags>  (286) 
2

>  <s_epik_input>  (286) 
W09IXVtDQEBdMTJbQ0BASF0zW0NASF00W0NAQEhdNVtDSF0oW0NIMl1bQ0gyXTEpW0NAQEhdKFtDQEBIXTI0KVtDQEhdNltDQEBIXTVbQ0BIXTZbQ0gyXTM=

>  <s_epik_cmdline>  (286) 
J2VwaWtfcHl0aG9uJywgJy1waHQnLCAnMi4wJywgJy1waCcsICc3LjAnLCAnLXRuJywgJzgnLCAnLW1hJywgJzIwMCcsICctaW1hZScsICc8aW5maWxlLm1hZT4nLCAnLW9tYWUnLCAnPG91dGZpbGUubWFlPic=

>  <r_lp_tautomer_probability>  (286) 
1

>  <r_epik_Ionization_Penalty>  (286) 
5.48459e-06

>  <r_epik_Ionization_Penalty_Charging>  (286) 
0

>  <r_epik_Ionization_Penalty_Neutral>  (286) 
5.48459e-06

>  <r_epik_State_Penalty>  (286) 
-0

>  <r_epik_Charging_Adjusted_Penalty>  (286) 
0

>  <i_epik_Tot_Q>  (286) 
0

>  <i_epik_Tot_abs_Q>  (286) 
0

>  <s_lp_Force_Field>  (286) 
OPLS3e

>  <r_lp_Energy>  (286) 
334.797

>  <b_lp_Chiralities_Consistent>  (286) 
0

>  <s_lp_Variant>  (286) 
90:0-1

>  <s_i_glide_gridfile>  (286) 
pfpi4k_grid

>  <i_i_glide_lignum>  (286) 
4

>  <i_i_glide_rotatable_bonds>  (286) 
1

>  <r_i_docking_score>  (286) 
-3.86734

>  <r_i_glide_ligand_efficiency>  (286) 
-0.276239

>  <r_i_glide_ligand_efficiency_sa>  (286) 
-0.665774

>  <r_i_glide_ligand_efficiency_ln>  (286) 
-1.06273

>  <r_i_glide_gscore>  (286) 
-3.86734

>  <r_i_glide_lipo>  (286) 
-0.607819

>  <r_i_glide_hbond>  (286) 
0

>  <r_i_glide_metal>  (286) 
-0

>  <r_i_glide_rewards>  (286) 
-2.12546

>  <r_i_glide_evdw>  (286) 
-20.417

>  <r_i_glide_ecoul>  (286) 
-0.754725

>  <r_i_glide_erotb>  (286) 
0

>  <r_i_glide_esite>  (286) 
0

>  <r_i_glide_emodel>  (286) 
-25.8875

>  <r_i_glide_energy>  (286) 
-21.1717

>  <r_i_glide_einternal>  (286) 
0.372984

>  <r_i_glide_intrahb_reward>  (286) 
-0

>  <i_i_glide_confnum>  (286) 
1

>  <i_i_glide_posenum>  (286) 
28

>  <r_i_glide_eff_state_penalty>  (286) 
0

>  <ligand_id>  (286) 
90

>  <original_smiles>  (286) 
OC12CCC3C4C5C6CC1C4C2C3C65

>  <smiles>  (286) 
[H]OC12C([H])([H])C([H])([H])C3([H])C4([H])C5([H])C6([H])C([H])([H])C1([H])C4([H])C2([H])C3([H])C65[H]

$$$$
90:0:2
     RDKit          3D

 30 35  0  0  1  0  0  0  0  0999 V2000
    5.7368   -5.0231    0.0785 O   0  0  0  0  0  0  0  0  0  0  0  0
    4.7399   -4.2757   -0.6031 C   0  0  2  0  0  0  0  0  0  0  0  0
    3.5518   -4.0605    0.5498 C   0  0  0  0  0  0  0  0  0  0  0  0
    3.1988   -2.4810    1.1178 C   0  0  0  0  0  0  0  0  0  0  0  0
    3.6674   -1.2684    0.0371 C   0  0  1  0  0  0  0  0  0  0  0  0
    5.0791   -1.0089   -0.9062 C   0  0  2  0  0  0  0  0  0  0  0  0
    4.6294   -0.6725   -2.3324 C   0  0  1  0  0  0  0  0  0  0  0  0
    4.2459   -1.7742   -3.3952 C   0  0  1  0  0  0  0  0  0  0  0  0
    4.5969   -3.2762   -3.2989 C   0  0  0  0  0  0  0  0  0  0  0  0
    5.3617   -3.6183   -1.9858 C   0  0  1  0  0  0  0  0  0  0  0  0
    5.8698   -2.3403   -1.2384 C   0  0  1  0  0  0  0  0  0  0  0  0
    4.7863   -2.8670   -0.5741 C   0  0  1  0  0  0  0  0  0  0  0  0
    3.3908   -2.1340   -1.0371 C   0  0  2  0  0  0  0  0  0  0  0  0
    3.3606   -1.3512   -2.3135 C   0  0  1  0  0  0  0  0  0  0  0  0
    5.8823   -4.5964    0.9016 H   0  0  0  0  0  0  0  0  0  0  0  0
    2.6324   -4.4895    0.1411 H   0  0  0  0  0  0  0  0  0  0  0  0
    3.7355   -4.6962    1.4160 H   0  0  0  0  0  0  0  0  0  0  0  0
    2.1190   -2.4087    1.2964 H   0  0  0  0  0  0  0  0  0  0  0  0
    3.6793   -2.3119    2.0856 H   0  0  0  0  0  0  0  0  0  0  0  0
    3.0004   -0.4051    0.0790 H   0  0  0  0  0  0  0  0  0  0  0  0
    5.7255   -0.2362   -0.4924 H   0  0  0  0  0  0  0  0  0  0  0  0
    4.6057    0.3758   -2.6398 H   0  0  0  0  0  0  0  0  0  0  0  0
    3.9761   -1.4322   -4.3859 H   0  0  0  0  0  0  0  0  0  0  0  0
    3.6689   -3.8463   -3.3787 H   0  0  0  0  0  0  0  0  0  0  0  0
    5.2065   -3.5518   -4.1612 H   0  0  0  0  0  0  0  0  0  0  0  0
    6.2298   -4.2084   -2.2549 H   0  0  0  0  0  0  0  0  0  0  0  0
    6.8286   -2.4800   -0.7286 H   0  0  0  0  0  0  0  0  0  0  0  0
    5.2938   -2.7238    0.4293 H   0  0  0  0  0  0  0  0  0  0  0  0
    2.4441   -2.6798   -1.0346 H   0  0  0  0  0  0  0  0  0  0  0  0
    2.4754   -0.7445   -2.5212 H   0  0  0  0  0  0  0  0  0  0  0  0
  2  1  1  1
  1 15  1  0
  2 10  1  0
  2 12  1  0
  2  3  1  0
  3  4  1  0
  3 16  1  0
  3 17  1  0
  4  5  1  0
  4 18  1  0
  4 19  1  0
  5 13  1  0
  5  6  1  0
  5 20  1  6
  6 11  1  0
  6  7  1  0
  6 21  1  1
  7 14  1  0
  7  8  1  0
  7 22  1  6
  8 14  1  0
  8  9  1  0
  8 23  1  6
  9 10  1  0
  9 24  1  0
  9 25  1  0
 10 11  1  0
 10 26  1  6
 11 12  1  0
 11 27  1  1
 12 13  1  0
 12 28  1  1
 13 14  1  0
 13 29  1  1
 14 30  1  6
M  END
>  <i_m_ct_stereo_status>  (287) 
1

>  <s_m_source_file>  (287) 
/var/tmp/pbs.5076255.sched01/tmpk7n3yjou/123nw9z_609.sdf

>  <i_m_source_file_index>  (287) 
4

>  <i_lp_mmshare_version>  (287) 
48012

>  <i_f3d_flags>  (287) 
2

>  <s_epik_input>  (287) 
W09IXVtDQEBdMTJbQ0BASF0zW0NASF00W0NAQEhdNVtDSF0oW0NIMl1bQ0gyXTEpW0NAQEhdKFtDQEBIXTI0KVtDQEhdNltDQEBIXTVbQ0BIXTZbQ0gyXTM=

>  <s_epik_cmdline>  (287) 
J2VwaWtfcHl0aG9uJywgJy1waHQnLCAnMi4wJywgJy1waCcsICc3LjAnLCAnLXRuJywgJzgnLCAnLW1hJywgJzIwMCcsICctaW1hZScsICc8aW5maWxlLm1hZT4nLCAnLW9tYWUnLCAnPG91dGZpbGUubWFlPic=

>  <r_lp_tautomer_probability>  (287) 
1

>  <r_epik_Ionization_Penalty>  (287) 
5.48459e-06

>  <r_epik_Ionization_Penalty_Charging>  (287) 
0

>  <r_epik_Ionization_Penalty_Neutral>  (287) 
5.48459e-06

>  <r_epik_State_Penalty>  (287) 
-0

>  <r_epik_Charging_Adjusted_Penalty>  (287) 
0

>  <i_epik_Tot_Q>  (287) 
0

>  <i_epik_Tot_abs_Q>  (287) 
0

>  <s_lp_Force_Field>  (287) 
OPLS3e

>  <r_lp_Energy>  (287) 
334.797

>  <b_lp_Chiralities_Consistent>  (287) 
0

>  <s_lp_Variant>  (287) 
90:0-1

>  <s_i_glide_gridfile>  (287) 
pfpi4k_grid

>  <i_i_glide_lignum>  (287) 
4

>  <i_i_glide_rotatable_bonds>  (287) 
1

>  <r_i_docking_score>  (287) 
-3.60742

>  <r_i_glide_ligand_efficiency>  (287) 
-0.257673

>  <r_i_glide_ligand_efficiency_sa>  (287) 
-0.621028

>  <r_i_glide_ligand_efficiency_ln>  (287) 
-0.991305

>  <r_i_glide_gscore>  (287) 
-3.60742

>  <r_i_glide_lipo>  (287) 
-0.428351

>  <r_i_glide_hbond>  (287) 
0

>  <r_i_glide_metal>  (287) 
-0

>  <r_i_glide_rewards>  (287) 
-2.12546

>  <r_i_glide_evdw>  (287) 
-18.8177

>  <r_i_glide_ecoul>  (287) 
-0.751456

>  <r_i_glide_erotb>  (287) 
0

>  <r_i_glide_esite>  (287) 
0

>  <r_i_glide_emodel>  (287) 
-24.104

>  <r_i_glide_energy>  (287) 
-19.5692

>  <r_i_glide_einternal>  (287) 
0.0166611

>  <r_i_glide_intrahb_reward>  (287) 
-0

>  <i_i_glide_confnum>  (287) 
1

>  <i_i_glide_posenum>  (287) 
9

>  <r_i_glide_eff_state_penalty>  (287) 
0

>  <ligand_id>  (287) 
90

>  <original_smiles>  (287) 
OC12CCC3C4C5C6CC1C4C2C3C65

>  <smiles>  (287) 
[H]OC12C([H])([H])C([H])([H])C3([H])C4([H])C5([H])C6([H])C([H])([H])C1([H])C4([H])C2([H])C3([H])C65[H]

$$$$
91:0:0
     RDKit          3D

 39 41  0  0  1  0  0  0  0  0999 V2000
    2.5298   -3.1055    3.1384 C   0  0  0  0  0  0  0  0  0  0  0  0
    3.6172   -2.7765    2.1016 C   0  0  1  0  0  0  0  0  0  0  0  0
    4.6345   -1.7663    2.6902 C   0  0  0  0  0  0  0  0  0  0  0  0
    5.7158   -1.4276    1.6415 C   0  0  1  0  0  0  0  0  0  0  0  0
    6.4751   -2.7083    1.2361 C   0  0  0  0  0  0  0  0  0  0  0  0
    5.4781   -3.7313    0.6830 C   0  0  1  0  0  0  0  0  0  0  0  0
    4.3747   -4.0656    1.7048 C   0  0  0  0  0  0  0  0  0  0  0  0
    4.8510   -3.1427   -0.5648 C   0  0  0  0  0  0  0  0  0  0  0  0
    4.0646   -1.8348   -0.2368 C   0  0  2  0  0  0  0  0  0  0  0  0
    3.4242   -1.2277   -1.4481 N   0  0  0  0  0  0  0  0  0  0  0  0
    3.5448   -1.9246   -2.7338 C   0  0  2  0  0  0  0  0  0  0  0  0
    3.6692   -0.6547   -4.0209 S   0  0  0  0  0  0  0  0  0  0  0  0
    2.3493   -2.8795   -2.9457 C   0  0  0  0  0  0  0  0  0  0  0  0
    2.6909   -3.8389   -3.9191 O   0  0  0  0  0  0  0  0  0  0  0  0
    5.0473   -0.8119    0.3867 C   0  0  0  0  0  0  0  0  0  0  0  0
    2.9851   -2.1557    0.8248 C   0  0  0  0  0  0  0  0  0  0  0  0
    1.9784   -2.2132    3.4394 H   0  0  0  0  0  0  0  0  0  0  0  0
    2.9640   -3.5432    4.0383 H   0  0  0  0  0  0  0  0  0  0  0  0
    1.8076   -3.8214    2.7436 H   0  0  0  0  0  0  0  0  0  0  0  0
    4.1257   -0.8516    3.0038 H   0  0  0  0  0  0  0  0  0  0  0  0
    5.1073   -2.1780    3.5823 H   0  0  0  0  0  0  0  0  0  0  0  0
    6.4195   -0.7117    2.0725 H   0  0  0  0  0  0  0  0  0  0  0  0
    7.2325   -2.4715    0.4908 H   0  0  0  0  0  0  0  0  0  0  0  0
    7.0068   -3.1588    2.0566 H   0  0  0  0  0  0  0  0  0  0  0  0
    6.0071   -4.6482    0.4177 H   0  0  0  0  0  0  0  0  0  0  0  0
    4.8095   -4.5529    2.5792 H   0  0  0  0  0  0  0  0  0  0  0  0
    3.6800   -4.7809    1.2623 H   0  0  0  0  0  0  0  0  0  0  0  0
    5.6530   -2.9465   -1.2800 H   0  0  0  0  0  0  0  0  0  0  0  0
    4.2106   -3.9111   -1.0017 H   0  0  0  0  0  0  0  0  0  0  0  0
    2.4211   -1.0733   -1.2374 H   0  0  0  0  0  0  0  0  0  0  0  0
    4.4794   -2.4532   -2.8523 H   0  0  0  0  0  0  0  0  0  0  0  0
    2.1316   -3.4364   -2.0256 H   0  0  0  0  0  0  0  0  0  0  0  0
    1.4235   -2.3491   -3.1989 H   0  0  0  0  0  0  0  0  0  0  0  0
    2.7009   -4.6973   -3.5142 H   0  0  0  0  0  0  0  0  0  0  0  0
    4.5302    0.1142    0.6624 H   0  0  0  0  0  0  0  0  0  0  0  0
    5.8152   -0.5250   -0.3326 H   0  0  0  0  0  0  0  0  0  0  0  0
    2.2392   -2.8399    0.4119 H   0  0  0  0  0  0  0  0  0  0  0  0
    2.4339   -1.2461    1.0944 H   0  0  0  0  0  0  0  0  0  0  0  0
    3.8021   -0.2995   -1.5890 H   0  0  0  0  0  0  0  0  0  0  0  0
  2  1  1  1
  1 17  1  0
  1 18  1  0
  1 19  1  0
  2  7  1  0
  2 16  1  0
  2  3  1  0
  3  4  1  0
  3 20  1  0
  3 21  1  0
  4 15  1  0
  4  5  1  0
  4 22  1  1
  5  6  1  0
  5 23  1  0
  5 24  1  0
  6  7  1  0
  6  8  1  0
  6 25  1  6
  7 26  1  0
  7 27  1  0
  8  9  1  0
  8 28  1  0
  8 29  1  0
  9 10  1  6
  9 15  1  0
  9 16  1  0
 10 11  1  0
 10 30  1  0
 10 39  1  0
 11 12  1  0
 11 13  1  0
 11 31  1  1
 13 14  1  0
 13 32  1  0
 13 33  1  0
 14 34  1  0
 15 35  1  0
 15 36  1  0
 16 37  1  0
 16 38  1  0
M  CHG  2  10   1  12  -1
M  END
>  <i_m_ct_stereo_status>  (288) 
1

>  <s_m_source_file>  (288) 
/var/tmp/pbs.5076255.sched01/tmpk7n3yjou/123nw9z_609.sdf

>  <i_m_source_file_index>  (288) 
5

>  <i_lp_mmshare_version>  (288) 
48012

>  <i_f3d_flags>  (288) 
0

>  <s_epik_input>  (288) 
W0NIM11bQ0BAXTEyW0NIMl1bQ0BIXTNbQ0gyXVtDQEBIXShbQ0gyXTEpW0NIMl1bQ0BdKFtDSDJdMykoW0NIMl0yKVtOSF1bQ0BIXShbU0hdKVtDSDJdW09IXQ==

>  <s_epik_cmdline>  (288) 
J2VwaWtfcHl0aG9uJywgJy1waHQnLCAnMi4wJywgJy1waCcsICc3LjAnLCAnLXRuJywgJzgnLCAnLW1hJywgJzIwMCcsICctaW1hZScsICc8aW5maWxlLm1hZT4nLCAnLW9tYWUnLCAnPG91dGZpbGUubWFlPic=

>  <r_epik_Ionization_Penalty>  (288) 
0.124785

>  <r_epik_Ionization_Penalty_Charging>  (288) 
0.124785

>  <r_epik_Ionization_Penalty_Neutral>  (288) 
7.20493e-08

>  <r_epik_State_Penalty>  (288) 
0.126302

>  <r_epik_Charging_Adjusted_Penalty>  (288) 
0.251087

>  <i_epik_Tot_Q>  (288) 
0

>  <i_epik_Tot_abs_Q>  (288) 
2

>  <s_epik_Chemistry_Notes>  (288) 
This compound contains an acetal/aminal-like group ( X-CH(R)-Y where X, Y are N, S, or O) that may be acid/base labile, releasing an aldehyde.

>  <s_lp_Force_Field>  (288) 
OPLS3e

>  <r_lp_Energy>  (288) 
9.1431

>  <b_lp_Chiralities_Consistent>  (288) 
1

>  <s_lp_Variant>  (288) 
91:0-1

>  <s_i_glide_gridfile>  (288) 
pfpi4k_grid

>  <i_i_glide_lignum>  (288) 
5

>  <i_i_glide_rotatable_bonds>  (288) 
4

>  <r_i_docking_score>  (288) 
-4.21848

>  <r_i_glide_ligand_efficiency>  (288) 
-0.263655

>  <r_i_glide_ligand_efficiency_sa>  (288) 
-0.66437

>  <r_i_glide_ligand_efficiency_ln>  (288) 
-1.11819

>  <r_i_glide_gscore>  (288) 
-4.21848

>  <r_i_glide_lipo>  (288) 
-0.588673

>  <r_i_glide_hbond>  (288) 
-0.52

>  <r_i_glide_metal>  (288) 
-0

>  <r_i_glide_rewards>  (288) 
-1.76322

>  <r_i_glide_evdw>  (288) 
-12.3978

>  <r_i_glide_ecoul>  (288) 
-10.1494

>  <r_i_glide_erotb>  (288) 
0.891878

>  <r_i_glide_esite>  (288) 
-0.0961698

>  <r_i_glide_emodel>  (288) 
-23.8946

>  <r_i_glide_energy>  (288) 
-22.5472

>  <r_i_glide_einternal>  (288) 
14.7681

>  <r_i_glide_intrahb_reward>  (288) 
-0

>  <i_i_glide_confnum>  (288) 
3

>  <i_i_glide_posenum>  (288) 
1

>  <r_i_glide_eff_state_penalty>  (288) 
0

>  <ligand_id>  (288) 
91

>  <original_smiles>  (288) 
CC12CC3CC(C1)CC(NC(S)CO)(C3)C2

>  <smiles>  (288) 
[H]OC([H])([H])C([H])([S-])[N+]([H])([H])C12C([H])([H])C3([H])C([H])([H])C([H])(C([H])([H])C(C([H])([H])[H])(C3([H])[H])C1([H])[H])C2([H])[H]

$$$$
91:0:1
     RDKit          3D

 39 41  0  0  1  0  0  0  0  0999 V2000
    1.0982   -2.0997    3.8119 C   0  0  0  0  0  0  0  0  0  0  0  0
    2.4434   -1.7666    3.1434 C   0  0  1  0  0  0  0  0  0  0  0  0
    2.9561   -0.3904    3.6302 C   0  0  0  0  0  0  0  0  0  0  0  0
    4.2970   -0.0515    2.9478 C   0  0  1  0  0  0  0  0  0  0  0  0
    5.3449   -1.1164    3.3192 C   0  0  0  0  0  0  0  0  0  0  0  0
    4.8415   -2.4953    2.8690 C   0  0  1  0  0  0  0  0  0  0  0  0
    3.4903   -2.8444    3.5062 C   0  0  0  0  0  0  0  0  0  0  0  0
    4.6752   -2.4872    1.3464 C   0  0  0  0  0  0  0  0  0  0  0  0
    3.6317   -1.4050    0.9064 C   0  0  2  0  0  0  0  0  0  0  0  0
    3.4187   -1.3484   -0.5765 N   0  0  0  0  0  0  0  0  0  0  0  0
    4.0695   -2.3352   -1.4682 C   0  0  2  0  0  0  0  0  0  0  0  0
    5.7903   -1.8085   -1.6796 S   0  0  0  0  0  0  0  0  0  0  0  0
    3.3725   -2.3879   -2.8317 C   0  0  0  0  0  0  0  0  0  0  0  0
    3.8841   -3.4556   -3.6112 O   0  0  0  0  0  0  0  0  0  0  0  0
    4.1057   -0.0207    1.4093 C   0  0  0  0  0  0  0  0  0  0  0  0
    2.2801   -1.7157    1.5979 C   0  0  0  0  0  0  0  0  0  0  0  0
    0.3365   -1.3523    3.5830 H   0  0  0  0  0  0  0  0  0  0  0  0
    1.2012   -2.1411    4.8988 H   0  0  0  0  0  0  0  0  0  0  0  0
    0.7174   -3.0685    3.4845 H   0  0  0  0  0  0  0  0  0  0  0  0
    2.2262    0.3935    3.4152 H   0  0  0  0  0  0  0  0  0  0  0  0
    3.0941   -0.3992    4.7150 H   0  0  0  0  0  0  0  0  0  0  0  0
    4.6318    0.9240    3.3010 H   0  0  0  0  0  0  0  0  0  0  0  0
    6.2908   -0.8847    2.8292 H   0  0  0  0  0  0  0  0  0  0  0  0
    5.5358   -1.1125    4.3941 H   0  0  0  0  0  0  0  0  0  0  0  0
    5.5751   -3.2567    3.1217 H   0  0  0  0  0  0  0  0  0  0  0  0
    3.6069   -2.9398    4.5886 H   0  0  0  0  0  0  0  0  0  0  0  0
    3.1588   -3.8175    3.1420 H   0  0  0  0  0  0  0  0  0  0  0  0
    5.6673   -2.2982    0.9321 H   0  0  0  0  0  0  0  0  0  0  0  0
    4.3653   -3.4903    1.0536 H   0  0  0  0  0  0  0  0  0  0  0  0
    2.4013   -1.3755   -0.7193 H   0  0  0  0  0  0  0  0  0  0  0  0
    4.0306   -3.3405   -1.0398 H   0  0  0  0  0  0  0  0  0  0  0  0
    2.3098   -2.5510   -2.6838 H   0  0  0  0  0  0  0  0  0  0  0  0
    3.5089   -1.4432   -3.3654 H   0  0  0  0  0  0  0  0  0  0  0  0
    3.7096   -4.2781   -3.1621 H   0  0  0  0  0  0  0  0  0  0  0  0
    3.3822    0.7586    1.1578 H   0  0  0  0  0  0  0  0  0  0  0  0
    5.0385    0.2685    0.9201 H   0  0  0  0  0  0  0  0  0  0  0  0
    1.8859   -2.6610    1.2337 H   0  0  0  0  0  0  0  0  0  0  0  0
    1.5414   -0.9553    1.3358 H   0  0  0  0  0  0  0  0  0  0  0  0
    3.7109   -0.4368   -0.8956 H   0  0  0  0  0  0  0  0  0  0  0  0
  2  1  1  1
  1 17  1  0
  1 18  1  0
  1 19  1  0
  2  7  1  0
  2 16  1  0
  2  3  1  0
  3  4  1  0
  3 20  1  0
  3 21  1  0
  4 15  1  0
  4  5  1  0
  4 22  1  1
  5  6  1  0
  5 23  1  0
  5 24  1  0
  6  7  1  0
  6  8  1  0
  6 25  1  6
  7 26  1  0
  7 27  1  0
  8  9  1  0
  8 28  1  0
  8 29  1  0
  9 10  1  6
  9 15  1  0
  9 16  1  0
 10 11  1  0
 10 30  1  0
 10 39  1  0
 11 12  1  0
 11 13  1  0
 11 31  1  1
 13 14  1  0
 13 32  1  0
 13 33  1  0
 14 34  1  0
 15 35  1  0
 15 36  1  0
 16 37  1  0
 16 38  1  0
M  CHG  2  10   1  12  -1
M  END
>  <i_m_ct_stereo_status>  (289) 
1

>  <s_m_source_file>  (289) 
/var/tmp/pbs.5076255.sched01/tmpk7n3yjou/123nw9z_609.sdf

>  <i_m_source_file_index>  (289) 
5

>  <i_lp_mmshare_version>  (289) 
48012

>  <i_f3d_flags>  (289) 
0

>  <s_epik_input>  (289) 
W0NIM11bQ0BAXTEyW0NIMl1bQ0BIXTNbQ0gyXVtDQEBIXShbQ0gyXTEpW0NIMl1bQ0BdKFtDSDJdMykoW0NIMl0yKVtOSF1bQ0BIXShbU0hdKVtDSDJdW09IXQ==

>  <s_epik_cmdline>  (289) 
J2VwaWtfcHl0aG9uJywgJy1waHQnLCAnMi4wJywgJy1waCcsICc3LjAnLCAnLXRuJywgJzgnLCAnLW1hJywgJzIwMCcsICctaW1hZScsICc8aW5maWxlLm1hZT4nLCAnLW9tYWUnLCAnPG91dGZpbGUubWFlPic=

>  <r_epik_Ionization_Penalty>  (289) 
0.124785

>  <r_epik_Ionization_Penalty_Charging>  (289) 
0.124785

>  <r_epik_Ionization_Penalty_Neutral>  (289) 
7.20493e-08

>  <r_epik_State_Penalty>  (289) 
0.126302

>  <r_epik_Charging_Adjusted_Penalty>  (289) 
0.251087

>  <i_epik_Tot_Q>  (289) 
0

>  <i_epik_Tot_abs_Q>  (289) 
2

>  <s_epik_Chemistry_Notes>  (289) 
This compound contains an acetal/aminal-like group ( X-CH(R)-Y where X, Y are N, S, or O) that may be acid/base labile, releasing an aldehyde.

>  <s_lp_Force_Field>  (289) 
OPLS3e

>  <r_lp_Energy>  (289) 
9.1431

>  <b_lp_Chiralities_Consistent>  (289) 
1

>  <s_lp_Variant>  (289) 
91:0-1

>  <s_i_glide_gridfile>  (289) 
pfpi4k_grid

>  <i_i_glide_lignum>  (289) 
5

>  <i_i_glide_rotatable_bonds>  (289) 
4

>  <r_i_docking_score>  (289) 
-4.01046

>  <r_i_glide_ligand_efficiency>  (289) 
-0.250654

>  <r_i_glide_ligand_efficiency_sa>  (289) 
-0.631607

>  <r_i_glide_ligand_efficiency_ln>  (289) 
-1.06305

>  <r_i_glide_gscore>  (289) 
-4.01046

>  <r_i_glide_lipo>  (289) 
-0.274818

>  <r_i_glide_hbond>  (289) 
-0.569491

>  <r_i_glide_metal>  (289) 
-0

>  <r_i_glide_rewards>  (289) 
-1.76322

>  <r_i_glide_evdw>  (289) 
-13.2846

>  <r_i_glide_ecoul>  (289) 
-10.2038

>  <r_i_glide_erotb>  (289) 
0.891878

>  <r_i_glide_esite>  (289) 
-0.1

>  <r_i_glide_emodel>  (289) 
-26.1205

>  <r_i_glide_energy>  (289) 
-23.4884

>  <r_i_glide_einternal>  (289) 
12.5161

>  <r_i_glide_intrahb_reward>  (289) 
-0

>  <i_i_glide_confnum>  (289) 
3

>  <i_i_glide_posenum>  (289) 
17

>  <r_i_glide_eff_state_penalty>  (289) 
0

>  <ligand_id>  (289) 
91

>  <original_smiles>  (289) 
CC12CC3CC(C1)CC(NC(S)CO)(C3)C2

>  <smiles>  (289) 
[H]OC([H])([H])C([H])([S-])[N+]([H])([H])C12C([H])([H])C3([H])C([H])([H])C([H])(C([H])([H])C(C([H])([H])[H])(C3([H])[H])C1([H])[H])C2([H])[H]

$$$$
91:1:0
     RDKit          3D

 40 42  0  0  1  0  0  0  0  0999 V2000
    3.9466   -0.5157    2.6897 C   0  0  0  0  0  0  0  0  0  0  0  0
    4.3794   -1.4988    1.5889 C   0  0  1  0  0  0  0  0  0  0  0  0
    5.7038   -1.0034    0.9681 C   0  0  0  0  0  0  0  0  0  0  0  0
    6.1543   -1.9865   -0.1275 C   0  0  1  0  0  0  0  0  0  0  0  0
    6.3753   -3.4093    0.4324 C   0  0  0  0  0  0  0  0  0  0  0  0
    5.0574   -3.8944    1.0604 C   0  0  1  0  0  0  0  0  0  0  0  0
    4.6126   -2.9133    2.1690 C   0  0  0  0  0  0  0  0  0  0  0  0
    3.9405   -3.9811   -0.0133 C   0  0  0  0  0  0  0  0  0  0  0  0
    3.7519   -2.5614   -0.6541 C   0  0  2  0  0  0  0  0  0  0  0  0
    2.6852   -2.6795   -1.7007 N   0  0  0  0  0  0  0  0  0  0  0  0
    2.8793   -2.3644   -3.1217 C   0  0  2  0  0  0  0  0  0  0  0  0
    4.0613   -3.5255   -3.9008 S   0  0  0  0  0  0  0  0  0  0  0  0
    3.1774   -0.8633   -3.4571 C   0  0  0  0  0  0  0  0  0  0  0  0
    3.3126   -0.6672   -4.8586 O   0  0  0  0  0  0  0  0  0  0  0  0
    5.0964   -2.0304   -1.2013 C   0  0  0  0  0  0  0  0  0  0  0  0
    3.2703   -1.6149    0.4936 C   0  0  0  0  0  0  0  0  0  0  0  0
    3.7763    0.4807    2.2841 H   0  0  0  0  0  0  0  0  0  0  0  0
    4.7265   -0.4359    3.4495 H   0  0  0  0  0  0  0  0  0  0  0  0
    3.0333   -0.8492    3.1742 H   0  0  0  0  0  0  0  0  0  0  0  0
    5.5564   -0.0194    0.5024 H   0  0  0  0  0  0  0  0  0  0  0  0
    6.5055   -0.8822    1.7079 H   0  0  0  0  0  0  0  0  0  0  0  0
    7.0588   -1.6452   -0.5945 H   0  0  0  0  0  0  0  0  0  0  0  0
    6.6601   -4.0681   -0.3966 H   0  0  0  0  0  0  0  0  0  0  0  0
    7.2128   -3.3998    1.1463 H   0  0  0  0  0  0  0  0  0  0  0  0
    5.2213   -4.8900    1.4861 H   0  0  0  0  0  0  0  0  0  0  0  0
    5.3810   -2.8776    2.9436 H   0  0  0  0  0  0  0  0  0  0  0  0
    3.7009   -3.2799    2.6301 H   0  0  0  0  0  0  0  0  0  0  0  0
    4.2199   -4.6987   -0.7887 H   0  0  0  0  0  0  0  0  0  0  0  0
    3.0211   -4.3628    0.4417 H   0  0  0  0  0  0  0  0  0  0  0  0
    2.2314   -3.5761   -1.6214 H   0  0  0  0  0  0  0  0  0  0  0  0
    1.9375   -2.6501   -3.6184 H   0  0  0  0  0  0  0  0  0  0  0  0
    3.8226   -4.6568   -3.1859 H   0  0  0  0  0  0  0  0  0  0  0  0
    2.3606   -0.2632   -3.0275 H   0  0  0  0  0  0  0  0  0  0  0  0
    4.1281   -0.4627   -3.0740 H   0  0  0  0  0  0  0  0  0  0  0  0
    2.5197   -0.8938   -5.3247 H   0  0  0  0  0  0  0  0  0  0  0  0
    5.0134   -0.9591   -1.4634 H   0  0  0  0  0  0  0  0  0  0  0  0
    5.5376   -2.6667   -1.9689 H   0  0  0  0  0  0  0  0  0  0  0  0
    2.3301   -1.9325    0.9454 H   0  0  0  0  0  0  0  0  0  0  0  0
    3.0644   -0.6264    0.0767 H   0  0  0  0  0  0  0  0  0  0  0  0
    1.9493   -2.0008   -1.4185 H   0  0  0  0  0  0  0  0  0  0  0  0
  2  1  1  1
  1 17  1  0
  1 18  1  0
  1 19  1  0
  2  7  1  0
  2 16  1  0
  2  3  1  0
  3  4  1  0
  3 20  1  0
  3 21  1  0
  4 15  1  0
  4  5  1  0
  4 22  1  6
  5  6  1  0
  5 23  1  0
  5 24  1  0
  6  7  1  0
  6  8  1  0
  6 25  1  1
  7 26  1  0
  7 27  1  0
  8  9  1  0
  8 28  1  0
  8 29  1  0
  9 10  1  6
  9 15  1  0
  9 16  1  0
 10 11  1  0
 10 30  1  0
 10 40  1  0
 11 12  1  0
 11 13  1  0
 11 31  1  6
 12 32  1  0
 13 14  1  0
 13 33  1  0
 13 34  1  0
 14 35  1  0
 15 36  1  0
 15 37  1  0
 16 38  1  0
 16 39  1  0
M  CHG  1  10   1
M  END
>  <i_m_ct_stereo_status>  (290) 
1

>  <s_m_source_file>  (290) 
/var/tmp/pbs.5076255.sched01/tmpk7n3yjou/123nw9z_609.sdf

>  <i_m_source_file_index>  (290) 
6

>  <i_lp_mmshare_version>  (290) 
48012

>  <i_f3d_flags>  (290) 
0

>  <s_epik_input>  (290) 
W0NIM11bQ0BAXTEyW0NIMl1bQ0BIXTNbQ0gyXVtDQEBIXShbQ0gyXTEpW0NIMl1bQ0BdKFtDSDJdMykoW0NIMl0yKVtOSF1bQ0BIXShbU0hdKVtDSDJdW09IXQ==

>  <s_epik_cmdline>  (290) 
J2VwaWtfcHl0aG9uJywgJy1waHQnLCAnMi4wJywgJy1waCcsICc3LjAnLCAnLXRuJywgJzgnLCAnLW1hJywgJzIwMCcsICctaW1hZScsICc8aW5maWxlLm1hZT4nLCAnLW9tYWUnLCAnPG91dGZpbGUubWFlPic=

>  <r_epik_Ionization_Penalty>  (290) 
1.05941

>  <r_epik_Ionization_Penalty_Charging>  (290) 
0.0748881

>  <r_epik_Ionization_Penalty_Neutral>  (290) 
0.984522

>  <r_epik_State_Penalty>  (290) 
1.04378

>  <r_epik_Charging_Adjusted_Penalty>  (290) 
1.11866

>  <i_epik_Tot_Q>  (290) 
1

>  <i_epik_Tot_abs_Q>  (290) 
1

>  <s_epik_Chemistry_Notes>  (290) 
This compound contains an acetal/aminal-like group ( X-CH(R)-Y where X, Y are N, S, or O) that may be acid/base labile, releasing an aldehyde.

>  <s_lp_Force_Field>  (290) 
OPLS3e

>  <r_lp_Energy>  (290) 
11.9169

>  <b_lp_Chiralities_Consistent>  (290) 
1

>  <s_lp_Variant>  (290) 
91:0-2

>  <s_i_glide_gridfile>  (290) 
pfpi4k_grid

>  <i_i_glide_lignum>  (290) 
6

>  <i_i_glide_rotatable_bonds>  (290) 
5

>  <r_i_docking_score>  (290) 
-5.18229

>  <r_i_glide_ligand_efficiency>  (290) 
-0.323893

>  <r_i_glide_ligand_efficiency_sa>  (290) 
-0.81616

>  <r_i_glide_ligand_efficiency_ln>  (290) 
-1.37367

>  <r_i_glide_gscore>  (290) 
-5.18229

>  <r_i_glide_lipo>  (290) 
-0.548532

>  <r_i_glide_hbond>  (290) 
-0.842746

>  <r_i_glide_metal>  (290) 
-0

>  <r_i_glide_rewards>  (290) 
-1.79014

>  <r_i_glide_evdw>  (290) 
-19.2595

>  <r_i_glide_ecoul>  (290) 
-12.5357

>  <r_i_glide_erotb>  (290) 
0.885555

>  <r_i_glide_esite>  (290) 
-0.0430925

>  <r_i_glide_emodel>  (290) 
-37.0179

>  <r_i_glide_energy>  (290) 
-31.7952

>  <r_i_glide_einternal>  (290) 
11.6228

>  <r_i_glide_intrahb_reward>  (290) 
-0

>  <i_i_glide_confnum>  (290) 
1

>  <i_i_glide_posenum>  (290) 
25

>  <r_i_glide_eff_state_penalty>  (290) 
0

>  <ligand_id>  (290) 
91

>  <original_smiles>  (290) 
CC12CC3CC(C1)CC(NC(S)CO)(C3)C2

>  <smiles>  (290) 
[H]OC([H])([H])C([H])(S[H])[N+]([H])([H])C12C([H])([H])C3([H])C([H])([H])C([H])(C([H])([H])C(C([H])([H])[H])(C3([H])[H])C1([H])[H])C2([H])[H]

$$$$
91:1:1
     RDKit          3D

 40 42  0  0  1  0  0  0  0  0999 V2000
    2.3681   -2.3247    2.2797 C   0  0  0  0  0  0  0  0  0  0  0  0
    3.5370   -2.7277    1.3584 C   0  0  1  0  0  0  0  0  0  0  0  0
    4.8797   -2.6297    2.0979 C   0  0  0  0  0  0  0  0  0  0  0  0
    6.0391   -3.0054    1.1486 C   0  0  1  0  0  0  0  0  0  0  0  0
    5.8685   -4.4683    0.6902 C   0  0  0  0  0  0  0  0  0  0  0  0
    4.5308   -4.5827   -0.0556 C   0  0  1  0  0  0  0  0  0  0  0  0
    3.3536   -4.1801    0.8484 C   0  0  0  0  0  0  0  0  0  0  0  0
    4.5063   -3.6757   -1.2906 C   0  0  0  0  0  0  0  0  0  0  0  0
    4.6910   -2.1842   -0.8654 C   0  0  2  0  0  0  0  0  0  0  0  0
    4.7005   -1.2849   -2.0738 N   0  0  0  0  0  0  0  0  0  0  0  0
    3.4958   -1.0326   -2.8874 C   0  0  2  0  0  0  0  0  0  0  0  0
    2.9908   -2.5004   -3.8404 S   0  0  0  0  0  0  0  0  0  0  0  0
    3.8085   -0.0058   -3.9961 C   0  0  0  0  0  0  0  0  0  0  0  0
    2.6400    0.3313   -4.7159 O   0  0  0  0  0  0  0  0  0  0  0  0
    6.0305   -2.0501   -0.0781 C   0  0  0  0  0  0  0  0  0  0  0  0
    3.5652   -1.7853    0.1263 C   0  0  0  0  0  0  0  0  0  0  0  0
    2.4772   -1.3049    2.6505 H   0  0  0  0  0  0  0  0  0  0  0  0
    2.2926   -2.9879    3.1410 H   0  0  0  0  0  0  0  0  0  0  0  0
    1.4107   -2.3588    1.7522 H   0  0  0  0  0  0  0  0  0  0  0  0
    5.0306   -1.6189    2.4808 H   0  0  0  0  0  0  0  0  0  0  0  0
    4.8761   -3.3000    2.9561 H   0  0  0  0  0  0  0  0  0  0  0  0
    6.9832   -2.9263    1.6849 H   0  0  0  0  0  0  0  0  0  0  0  0
    6.6838   -4.7537    0.0247 H   0  0  0  0  0  0  0  0  0  0  0  0
    5.8892   -5.1566    1.5413 H   0  0  0  0  0  0  0  0  0  0  0  0
    4.4047   -5.6066   -0.3966 H   0  0  0  0  0  0  0  0  0  0  0  0
    3.2592   -4.8788    1.6757 H   0  0  0  0  0  0  0  0  0  0  0  0
    2.4324   -4.2521    0.2720 H   0  0  0  0  0  0  0  0  0  0  0  0
    5.3246   -3.9682   -1.9556 H   0  0  0  0  0  0  0  0  0  0  0  0
    3.5484   -3.8731   -1.7692 H   0  0  0  0  0  0  0  0  0  0  0  0
    4.9433   -0.3756   -1.7039 H   0  0  0  0  0  0  0  0  0  0  0  0
    2.6678   -0.6509   -2.2791 H   0  0  0  0  0  0  0  0  0  0  0  0
    1.7869   -2.0163   -4.1363 H   0  0  0  0  0  0  0  0  0  0  0  0
    4.2174    0.9239   -3.5919 H   0  0  0  0  0  0  0  0  0  0  0  0
    4.5321   -0.4452   -4.6792 H   0  0  0  0  0  0  0  0  0  0  0  0
    2.0885    0.8412   -4.1619 H   0  0  0  0  0  0  0  0  0  0  0  0
    6.2023   -1.0237    0.2743 H   0  0  0  0  0  0  0  0  0  0  0  0
    6.8803   -2.2881   -0.7151 H   0  0  0  0  0  0  0  0  0  0  0  0
    2.6197   -1.8720   -0.3574 H   0  0  0  0  0  0  0  0  0  0  0  0
    3.6688   -0.7423    0.4534 H   0  0  0  0  0  0  0  0  0  0  0  0
    5.4393   -1.5875   -2.6897 H   0  0  0  0  0  0  0  0  0  0  0  0
  2  1  1  1
  1 17  1  0
  1 18  1  0
  1 19  1  0
  2  7  1  0
  2 16  1  0
  2  3  1  0
  3  4  1  0
  3 20  1  0
  3 21  1  0
  4 15  1  0
  4  5  1  0
  4 22  1  1
  5  6  1  0
  5 23  1  0
  5 24  1  0
  6  7  1  0
  6  8  1  0
  6 25  1  6
  7 26  1  0
  7 27  1  0
  8  9  1  0
  8 28  1  0
  8 29  1  0
  9 10  1  6
  9 15  1  0
  9 16  1  0
 10 11  1  0
 10 30  1  0
 10 40  1  0
 11 12  1  0
 11 13  1  0
 11 31  1  1
 12 32  1  0
 13 14  1  0
 13 33  1  0
 13 34  1  0
 14 35  1  0
 15 36  1  0
 15 37  1  0
 16 38  1  0
 16 39  1  0
M  CHG  1  10   1
M  END
>  <i_m_ct_stereo_status>  (291) 
1

>  <s_m_source_file>  (291) 
/var/tmp/pbs.5076255.sched01/tmpk7n3yjou/123nw9z_609.sdf

>  <i_m_source_file_index>  (291) 
6

>  <i_lp_mmshare_version>  (291) 
48012

>  <i_f3d_flags>  (291) 
0

>  <s_epik_input>  (291) 
W0NIM11bQ0BAXTEyW0NIMl1bQ0BIXTNbQ0gyXVtDQEBIXShbQ0gyXTEpW0NIMl1bQ0BdKFtDSDJdMykoW0NIMl0yKVtOSF1bQ0BIXShbU0hdKVtDSDJdW09IXQ==

>  <s_epik_cmdline>  (291) 
J2VwaWtfcHl0aG9uJywgJy1waHQnLCAnMi4wJywgJy1waCcsICc3LjAnLCAnLXRuJywgJzgnLCAnLW1hJywgJzIwMCcsICctaW1hZScsICc8aW5maWxlLm1hZT4nLCAnLW9tYWUnLCAnPG91dGZpbGUubWFlPic=

>  <r_epik_Ionization_Penalty>  (291) 
1.05941

>  <r_epik_Ionization_Penalty_Charging>  (291) 
0.0748881

>  <r_epik_Ionization_Penalty_Neutral>  (291) 
0.984522

>  <r_epik_State_Penalty>  (291) 
1.04378

>  <r_epik_Charging_Adjusted_Penalty>  (291) 
1.11866

>  <i_epik_Tot_Q>  (291) 
1

>  <i_epik_Tot_abs_Q>  (291) 
1

>  <s_epik_Chemistry_Notes>  (291) 
This compound contains an acetal/aminal-like group ( X-CH(R)-Y where X, Y are N, S, or O) that may be acid/base labile, releasing an aldehyde.

>  <s_lp_Force_Field>  (291) 
OPLS3e

>  <r_lp_Energy>  (291) 
11.9169

>  <b_lp_Chiralities_Consistent>  (291) 
1

>  <s_lp_Variant>  (291) 
91:0-2

>  <s_i_glide_gridfile>  (291) 
pfpi4k_grid

>  <i_i_glide_lignum>  (291) 
6

>  <i_i_glide_rotatable_bonds>  (291) 
5

>  <r_i_docking_score>  (291) 
-3.42046

>  <r_i_glide_ligand_efficiency>  (291) 
-0.213779

>  <r_i_glide_ligand_efficiency_sa>  (291) 
-0.538688

>  <r_i_glide_ligand_efficiency_ln>  (291) 
-0.90666

>  <r_i_glide_gscore>  (291) 
-3.42046

>  <r_i_glide_lipo>  (291) 
-0.370916

>  <r_i_glide_hbond>  (291) 
-0.212798

>  <r_i_glide_metal>  (291) 
-0

>  <r_i_glide_rewards>  (291) 
-1.96587

>  <r_i_glide_evdw>  (291) 
-20.7902

>  <r_i_glide_ecoul>  (291) 
-4.48667

>  <r_i_glide_erotb>  (291) 
0.885555

>  <r_i_glide_esite>  (291) 
-0.0439137

>  <r_i_glide_emodel>  (291) 
-32.3715

>  <r_i_glide_energy>  (291) 
-25.2768

>  <r_i_glide_einternal>  (291) 
0.237902

>  <r_i_glide_intrahb_reward>  (291) 
-0

>  <i_i_glide_confnum>  (291) 
1

>  <i_i_glide_posenum>  (291) 
1

>  <r_i_glide_eff_state_penalty>  (291) 
0

>  <ligand_id>  (291) 
91

>  <original_smiles>  (291) 
CC12CC3CC(C1)CC(NC(S)CO)(C3)C2

>  <smiles>  (291) 
[H]OC([H])([H])C([H])(S[H])[N+]([H])([H])C12C([H])([H])C3([H])C([H])([H])C([H])(C([H])([H])C(C([H])([H])[H])(C3([H])[H])C1([H])[H])C2([H])[H]

$$$$
91:2:0
     RDKit          3D

 39 41  0  0  1  0  0  0  0  0999 V2000
    3.9968   -1.8729   -2.6622 C   0  0  0  0  0  0  0  0  0  0  0  0
    4.3179   -2.2709   -1.2127 C   0  0  1  0  0  0  0  0  0  0  0  0
    3.3706   -3.4085   -0.7573 C   0  0  0  0  0  0  0  0  0  0  0  0
    3.7177   -3.8471    0.6910 C   0  0  1  0  0  0  0  0  0  0  0  0
    5.1866   -4.3141    0.7720 C   0  0  0  0  0  0  0  0  0  0  0  0
    6.0982   -3.1379    0.3573 C   0  0  1  0  0  0  0  0  0  0  0  0
    5.7883   -2.7330   -1.0974 C   0  0  0  0  0  0  0  0  0  0  0  0
    5.8664   -1.9220    1.2923 C   0  0  0  0  0  0  0  0  0  0  0  0
    4.3717   -1.4705    1.2094 C   0  0  2  0  0  0  0  0  0  0  0  0
    4.1729   -0.2995    2.0976 N   0  0  0  0  0  0  0  0  0  0  0  0
    2.9135    0.4718    1.9615 C   0  0  2  0  0  0  0  0  0  0  0  0
    2.6990    1.6042    3.3713 S   0  0  0  0  0  0  0  0  0  0  0  0
    1.6678   -0.4110    1.9324 C   0  0  0  0  0  0  0  0  0  0  0  0
    0.4657    0.2635    1.6987 O   0  0  0  0  0  0  0  0  0  0  0  0
    3.5116   -2.6908    1.6621 C   0  0  0  0  0  0  0  0  0  0  0  0
    4.1109   -1.0657   -0.2754 C   0  0  0  0  0  0  0  0  0  0  0  0
    2.9554   -1.5552   -2.7640 H   0  0  0  0  0  0  0  0  0  0  0  0
    4.1559   -2.7094   -3.3455 H   0  0  0  0  0  0  0  0  0  0  0  0
    4.6278   -1.0452   -2.9896 H   0  0  0  0  0  0  0  0  0  0  0  0
    2.3304   -3.0724   -0.8075 H   0  0  0  0  0  0  0  0  0  0  0  0
    3.4373   -4.2541   -1.4451 H   0  0  0  0  0  0  0  0  0  0  0  0
    3.0507   -4.6629    0.9816 H   0  0  0  0  0  0  0  0  0  0  0  0
    5.3932   -4.6211    1.8010 H   0  0  0  0  0  0  0  0  0  0  0  0
    5.3341   -5.1945    0.1316 H   0  0  0  0  0  0  0  0  0  0  0  0
    7.1318   -3.4625    0.4362 H   0  0  0  0  0  0  0  0  0  0  0  0
    5.9845   -3.5605   -1.7798 H   0  0  0  0  0  0  0  0  0  0  0  0
    6.4495   -1.9224   -1.3991 H   0  0  0  0  0  0  0  0  0  0  0  0
    6.1142   -2.1957    2.3192 H   0  0  0  0  0  0  0  0  0  0  0  0
    6.5558   -1.1097    1.0179 H   0  0  0  0  0  0  0  0  0  0  0  0
    4.9486    0.3345    2.0322 H   0  0  0  0  0  0  0  0  0  0  0  0
    2.9504    1.0710    1.0523 H   0  0  0  0  0  0  0  0  0  0  0  0
    1.5826    2.1545    2.8799 H   0  0  0  0  0  0  0  0  0  0  0  0
    1.7461   -1.0279    1.0505 H   0  0  0  0  0  0  0  0  0  0  0  0
    1.6192   -1.0779    2.8021 H   0  0  0  0  0  0  0  0  0  0  0  0
    0.3911    0.3433    0.7524 H   0  0  0  0  0  0  0  0  0  0  0  0
    2.4514   -2.5948    1.6309 H   0  0  0  0  0  0  0  0  0  0  0  0
    3.7779   -2.9582    2.6867 H   0  0  0  0  0  0  0  0  0  0  0  0
    4.7602   -0.2393   -0.5885 H   0  0  0  0  0  0  0  0  0  0  0  0
    3.0991   -0.6966   -0.4387 H   0  0  0  0  0  0  0  0  0  0  0  0
  2  1  1  6
  1 17  1  0
  1 18  1  0
  1 19  1  0
  2  7  1  0
  2 16  1  0
  2  3  1  0
  3  4  1  0
  3 20  1  0
  3 21  1  0
  4 15  1  0
  4  5  1  0
  4 22  1  1
  5  6  1  0
  5 23  1  0
  5 24  1  0
  6  7  1  0
  6  8  1  0
  6 25  1  6
  7 26  1  0
  7 27  1  0
  8  9  1  0
  8 28  1  0
  8 29  1  0
  9 10  1  1
  9 15  1  0
  9 16  1  0
 10 11  1  0
 10 30  1  0
 11 12  1  0
 11 13  1  0
 11 31  1  6
 12 32  1  0
 13 14  1  0
 13 33  1  0
 13 34  1  0
 14 35  1  0
 15 36  1  0
 15 37  1  0
 16 38  1  0
 16 39  1  0
M  END
>  <i_m_ct_stereo_status>  (292) 
1

>  <s_m_source_file>  (292) 
/var/tmp/pbs.5076255.sched01/tmpk7n3yjou/123nw9z_609.sdf

>  <i_m_source_file_index>  (292) 
7

>  <i_lp_mmshare_version>  (292) 
48012

>  <i_f3d_flags>  (292) 
0

>  <s_epik_input>  (292) 
W0NIM11bQ0BAXTEyW0NIMl1bQ0BIXTNbQ0gyXVtDQEBIXShbQ0gyXTEpW0NIMl1bQ0BdKFtDSDJdMykoW0NIMl0yKVtOSF1bQ0BIXShbU0hdKVtDSDJdW09IXQ==

>  <s_epik_cmdline>  (292) 
J2VwaWtfcHl0aG9uJywgJy1waHQnLCAnMi4wJywgJy1waCcsICc3LjAnLCAnLXRuJywgJzgnLCAnLW1hJywgJzIwMCcsICctaW1hZScsICc8aW5maWxlLm1hZT4nLCAnLW9tYWUnLCAnPG91dGZpbGUubWFlPic=

>  <r_epik_Ionization_Penalty>  (292) 
1.26287

>  <r_epik_Ionization_Penalty_Charging>  (292) 
0

>  <r_epik_Ionization_Penalty_Neutral>  (292) 
1.26287

>  <r_epik_State_Penalty>  (292) 
2.31106

>  <r_epik_Charging_Adjusted_Penalty>  (292) 
2.31106

>  <i_epik_Tot_Q>  (292) 
0

>  <i_epik_Tot_abs_Q>  (292) 
0

>  <s_epik_Chemistry_Notes>  (292) 
This compound contains an acetal/aminal-like group ( X-CH(R)-Y where X, Y are N, S, or O) that may be acid/base labile, releasing an aldehyde.

>  <s_lp_Force_Field>  (292) 
OPLS3e

>  <r_lp_Energy>  (292) 
5.83954

>  <b_lp_Chiralities_Consistent>  (292) 
1

>  <s_lp_Variant>  (292) 
91:0-3

>  <s_i_glide_gridfile>  (292) 
pfpi4k_grid

>  <i_i_glide_lignum>  (292) 
7

>  <i_i_glide_rotatable_bonds>  (292) 
5

>  <r_i_docking_score>  (292) 
-2.43076

>  <r_i_glide_ligand_efficiency>  (292) 
-0.151923

>  <r_i_glide_ligand_efficiency_sa>  (292) 
-0.382821

>  <r_i_glide_ligand_efficiency_ln>  (292) 
-0.644322

>  <r_i_glide_gscore>  (292) 
-2.43076

>  <r_i_glide_lipo>  (292) 
-0.377651

>  <r_i_glide_hbond>  (292) 
-0.246682

>  <r_i_glide_metal>  (292) 
-0

>  <r_i_glide_rewards>  (292) 
-1.76322

>  <r_i_glide_evdw>  (292) 
-14.4881

>  <r_i_glide_ecoul>  (292) 
-1.31271

>  <r_i_glide_erotb>  (292) 
0.891878

>  <r_i_glide_esite>  (292) 
-0.0137737

>  <r_i_glide_emodel>  (292) 
-15.884

>  <r_i_glide_energy>  (292) 
-15.8008

>  <r_i_glide_einternal>  (292) 
0.84701

>  <r_i_glide_intrahb_reward>  (292) 
-0

>  <i_i_glide_confnum>  (292) 
4

>  <i_i_glide_posenum>  (292) 
12

>  <r_i_glide_eff_state_penalty>  (292) 
0

>  <ligand_id>  (292) 
91

>  <original_smiles>  (292) 
CC12CC3CC(C1)CC(NC(S)CO)(C3)C2

>  <smiles>  (292) 
[H]OC([H])([H])C([H])(S[H])N([H])C12C([H])([H])C3([H])C([H])([H])C([H])(C1([H])[H])C([H])([H])C(C([H])([H])[H])(C3([H])[H])C2([H])[H]

$$$$
92:0:0
     RDKit          3D

 35 38  0  0  1  0  0  0  0  0999 V2000
    7.3191   -6.2836    2.2276 C   0  0  0  0  0  0  0  0  0  0  0  0
    6.8995   -5.6123    0.9056 C   0  0  2  0  0  0  0  0  0  0  0  0
    7.5009   -4.2099    0.7755 C   0  0  0  0  0  0  0  0  0  0  0  0
    6.7812   -3.0606    0.8659 C   0  0  0  0  0  0  0  0  0  0  0  0
    5.2765   -3.0112    1.1461 C   0  0  0  0  0  0  0  0  0  0  0  0
    4.8532   -4.3845    1.6560 C   0  0  2  0  0  0  0  0  0  0  0  0
    5.3788   -5.4567    0.7244 C   0  0  2  0  0  0  0  0  0  0  0  0
    4.3933   -6.5879    0.9474 C   0  0  0  0  0  0  0  0  0  0  0  0
    4.6190   -7.7518    0.6199 O   0  0  0  0  0  0  0  0  0  0  0  0
    3.2644   -6.0968    1.4947 N   0  0  0  0  0  0  0  0  0  0  0  0
    2.0796   -6.8497    1.7061 C   0  0  0  0  0  0  0  0  0  0  0  0
    0.9188   -6.4010    1.2716 N   0  0  0  0  0  0  0  0  0  0  0  0
   -0.3006   -7.4661    1.6869 S   0  0  0  0  0  0  0  0  0  0  0  0
    0.7475   -8.6192    2.4900 C   0  0  0  0  0  0  0  0  0  0  0  0
    0.4403   -9.8359    3.1166 C   0  0  0  0  0  0  0  0  0  0  0  0
    1.4591  -10.6036    3.7035 C   0  0  0  0  0  0  0  0  0  0  0  0
    2.7860  -10.1342    3.6670 C   0  0  0  0  0  0  0  0  0  0  0  0
    3.0846   -8.9066    3.0496 C   0  0  0  0  0  0  0  0  0  0  0  0
    2.0827   -8.1176    2.4264 C   0  0  0  0  0  0  0  0  0  0  0  0
    3.4017   -4.7919    1.8129 C   0  0  0  0  0  0  0  0  0  0  0  0
    2.5443   -4.0280    2.2610 O   0  0  0  0  0  0  0  0  0  0  0  0
    8.4033   -6.3542    2.3065 H   0  0  0  0  0  0  0  0  0  0  0  0
    6.9201   -7.2946    2.3027 H   0  0  0  0  0  0  0  0  0  0  0  0
    6.9761   -5.7352    3.1041 H   0  0  0  0  0  0  0  0  0  0  0  0
    7.2798   -6.2136    0.0811 H   0  0  0  0  0  0  0  0  0  0  0  0
    8.5620   -4.1598    0.5837 H   0  0  0  0  0  0  0  0  0  0  0  0
    7.2809   -2.1099    0.7484 H   0  0  0  0  0  0  0  0  0  0  0  0
    5.0742   -2.2624    1.9095 H   0  0  0  0  0  0  0  0  0  0  0  0
    4.7316   -2.7306    0.2442 H   0  0  0  0  0  0  0  0  0  0  0  0
    5.1937   -5.1662   -0.3145 H   0  0  0  0  0  0  0  0  0  0  0  0
   -0.5804  -10.1783    3.1436 H   0  0  0  0  0  0  0  0  0  0  0  0
    1.2304  -11.5482    4.1839 H   0  0  0  0  0  0  0  0  0  0  0  0
    3.5813  -10.7167    4.1099 H   0  0  0  0  0  0  0  0  0  0  0  0
    4.1092   -8.5715    3.0464 H   0  0  0  0  0  0  0  0  0  0  0  0
    5.2590   -4.4947    2.6627 H   0  0  0  0  0  0  0  0  0  0  0  0
  1  2  1  0
  1 22  1  0
  1 23  1  0
  1 24  1  0
  2  3  1  0
  2 25  1  6
  2  7  1  0
  3  4  2  0
  3 26  1  0
  4  5  1  0
  4 27  1  0
  5 28  1  0
  5 29  1  0
  5  6  1  0
  6  7  1  0
  6 35  1  1
  6 20  1  0
  7  8  1  0
  7 30  1  6
  8  9  2  0
  8 10  1  0
 10 20  1  0
 10 11  1  0
 11 19  1  0
 11 12  2  0
 12 13  1  0
 13 14  1  0
 14 19  2  0
 14 15  1  0
 15 16  2  0
 15 31  1  0
 16 17  1  0
 16 32  1  0
 17 18  2  0
 17 33  1  0
 18 19  1  0
 18 34  1  0
 20 21  2  0
M  END
>  <i_m_ct_stereo_status>  (293) 
1

>  <s_m_source_file>  (293) 
/var/tmp/pbs.5076255.sched01/tmpk7n3yjou/123nw9z_609.sdf

>  <i_m_source_file_index>  (293) 
8

>  <i_lp_mmshare_version>  (293) 
48012

>  <i_f3d_flags>  (293) 
0

>  <s_epik_input>  (293) 
W0NIMl0xW0NIXT1bQ0hdW0NAQEhdKFtDSDNdKWMoYzEyKWMoW09IXSluKGMyW09IXSktYyhuczMpYyhjMzQpW2NIXVtjSF1bY0hdW2NIXTQ=

>  <s_epik_cmdline>  (293) 
J2VwaWtfcHl0aG9uJywgJy1waHQnLCAnMi4wJywgJy1waCcsICc3LjAnLCAnLXRuJywgJzgnLCAnLW1hJywgJzIwMCcsICctaW1hZScsICc8aW5maWxlLm1hZT4nLCAnLW9tYWUnLCAnPG91dGZpbGUubWFlPic=

>  <r_lp_tautomer_probability>  (293) 
1

>  <r_epik_Ionization_Penalty>  (293) 
3.92338e-08

>  <r_epik_Ionization_Penalty_Charging>  (293) 
0

>  <r_epik_Ionization_Penalty_Neutral>  (293) 
3.92338e-08

>  <r_epik_State_Penalty>  (293) 
-0

>  <r_epik_Charging_Adjusted_Penalty>  (293) 
0

>  <i_epik_Tot_Q>  (293) 
0

>  <i_epik_Tot_abs_Q>  (293) 
0

>  <s_lp_Force_Field>  (293) 
OPLS3e

>  <r_lp_Energy>  (293) 
29.0784

>  <b_lp_Chiralities_Consistent>  (293) 
1

>  <s_lp_Variant>  (293) 
92:0-1

>  <s_i_glide_gridfile>  (293) 
pfpi4k_grid

>  <i_i_glide_lignum>  (293) 
8

>  <i_i_glide_rotatable_bonds>  (293) 
1

>  <r_i_docking_score>  (293) 
-3.70171

>  <r_i_glide_ligand_efficiency>  (293) 
-0.176272

>  <r_i_glide_ligand_efficiency_sa>  (293) 
-0.486321

>  <r_i_glide_ligand_efficiency_ln>  (293) 
-0.915241

>  <r_i_glide_gscore>  (293) 
-3.70171

>  <r_i_glide_lipo>  (293) 
-0.561728

>  <r_i_glide_hbond>  (293) 
-0.138221

>  <r_i_glide_metal>  (293) 
-0

>  <r_i_glide_rewards>  (293) 
-1.57912

>  <r_i_glide_evdw>  (293) 
-26.9349

>  <r_i_glide_ecoul>  (293) 
-1.88023

>  <r_i_glide_erotb>  (293) 
0.206133

>  <r_i_glide_esite>  (293) 
0

>  <r_i_glide_emodel>  (293) 
-35.7296

>  <r_i_glide_energy>  (293) 
-28.8151

>  <r_i_glide_einternal>  (293) 
0.507607

>  <r_i_glide_intrahb_reward>  (293) 
-0

>  <i_i_glide_confnum>  (293) 
1

>  <i_i_glide_posenum>  (293) 
38

>  <r_i_glide_eff_state_penalty>  (293) 
0

>  <ligand_id>  (293) 
92

>  <original_smiles>  (293) 
CC1C=CCc2c1c(O)n(-c1nsc3ccccc13)c2O

>  <smiles>  (293) 
[H]C1=C([H])C([H])(C([H])([H])[H])C2([H])C(=O)N(c3nsc4c([H])c([H])c([H])c([H])c34)C(=O)C2([H])C1([H])[H]

$$$$
92:0:1
     RDKit          3D

 35 38  0  0  1  0  0  0  0  0999 V2000
    5.5527   -2.8419    2.0908 C   0  0  0  0  0  0  0  0  0  0  0  0
    5.7131   -3.3253    0.6353 C   0  0  2  0  0  0  0  0  0  0  0  0
    5.3947   -2.2039   -0.3561 C   0  0  0  0  0  0  0  0  0  0  0  0
    4.2847   -2.1744   -1.1384 C   0  0  0  0  0  0  0  0  0  0  0  0
    3.1875   -3.2416   -1.1088 C   0  0  0  0  0  0  0  0  0  0  0  0
    3.3736   -4.0718    0.1634 C   0  0  2  0  0  0  0  0  0  0  0  0
    4.8186   -4.5158    0.2662 C   0  0  2  0  0  0  0  0  0  0  0  0
    4.7121   -5.7560    1.1375 C   0  0  0  0  0  0  0  0  0  0  0  0
    5.6643   -6.2141    1.7700 O   0  0  0  0  0  0  0  0  0  0  0  0
    3.4464   -6.2235    1.0910 N   0  0  0  0  0  0  0  0  0  0  0  0
    3.0289   -7.4574    1.6533 C   0  0  0  0  0  0  0  0  0  0  0  0
    3.6947   -8.5652    1.3982 N   0  0  0  0  0  0  0  0  0  0  0  0
    2.9779   -9.8535    2.1938 S   0  0  0  0  0  0  0  0  0  0  0  0
    1.6923   -8.9150    2.9127 C   0  0  0  0  0  0  0  0  0  0  0  0
    0.6377   -9.3166    3.7487 C   0  0  0  0  0  0  0  0  0  0  0  0
   -0.2866   -8.3694    4.2197 C   0  0  0  0  0  0  0  0  0  0  0  0
   -0.1417   -7.0180    3.8546 C   0  0  0  0  0  0  0  0  0  0  0  0
    0.9211   -6.6219    3.0238 C   0  0  0  0  0  0  0  0  0  0  0  0
    1.8629   -7.5553    2.5173 C   0  0  0  0  0  0  0  0  0  0  0  0
    2.6391   -5.3758    0.4251 C   0  0  0  0  0  0  0  0  0  0  0  0
    1.4648   -5.5647    0.1009 O   0  0  0  0  0  0  0  0  0  0  0  0
    6.1986   -1.9901    2.2973 H   0  0  0  0  0  0  0  0  0  0  0  0
    5.8125   -3.6249    2.8029 H   0  0  0  0  0  0  0  0  0  0  0  0
    4.5359   -2.5250    2.3213 H   0  0  0  0  0  0  0  0  0  0  0  0
    6.7482   -3.6264    0.4785 H   0  0  0  0  0  0  0  0  0  0  0  0
    6.1229   -1.4083   -0.4244 H   0  0  0  0  0  0  0  0  0  0  0  0
    4.1380   -1.3534   -1.8238 H   0  0  0  0  0  0  0  0  0  0  0  0
    2.2178   -2.7471   -1.0847 H   0  0  0  0  0  0  0  0  0  0  0  0
    3.2342   -3.8535   -2.0061 H   0  0  0  0  0  0  0  0  0  0  0  0
    5.1474   -4.9028   -0.7041 H   0  0  0  0  0  0  0  0  0  0  0  0
    0.5461  -10.3517    4.0281 H   0  0  0  0  0  0  0  0  0  0  0  0
   -1.0980   -8.6832    4.8634 H   0  0  0  0  0  0  0  0  0  0  0  0
   -0.8420   -6.2782    4.2161 H   0  0  0  0  0  0  0  0  0  0  0  0
    1.0203   -5.5812    2.7703 H   0  0  0  0  0  0  0  0  0  0  0  0
    3.0846   -3.4366    1.0027 H   0  0  0  0  0  0  0  0  0  0  0  0
  1  2  1  0
  1 22  1  0
  1 23  1  0
  1 24  1  0
  2  3  1  0
  2 25  1  1
  2  7  1  0
  3  4  2  0
  3 26  1  0
  4  5  1  0
  4 27  1  0
  5 28  1  0
  5 29  1  0
  5  6  1  0
  6  7  1  0
  6 35  1  1
  6 20  1  0
  7  8  1  0
  7 30  1  6
  8  9  2  0
  8 10  1  0
 10 20  1  0
 10 11  1  0
 11 19  1  0
 11 12  2  0
 12 13  1  0
 13 14  1  0
 14 19  2  0
 14 15  1  0
 15 16  2  0
 15 31  1  0
 16 17  1  0
 16 32  1  0
 17 18  2  0
 17 33  1  0
 18 19  1  0
 18 34  1  0
 20 21  2  0
M  END
>  <i_m_ct_stereo_status>  (294) 
1

>  <s_m_source_file>  (294) 
/var/tmp/pbs.5076255.sched01/tmpk7n3yjou/123nw9z_609.sdf

>  <i_m_source_file_index>  (294) 
8

>  <i_lp_mmshare_version>  (294) 
48012

>  <i_f3d_flags>  (294) 
0

>  <s_epik_input>  (294) 
W0NIMl0xW0NIXT1bQ0hdW0NAQEhdKFtDSDNdKWMoYzEyKWMoW09IXSluKGMyW09IXSktYyhuczMpYyhjMzQpW2NIXVtjSF1bY0hdW2NIXTQ=

>  <s_epik_cmdline>  (294) 
J2VwaWtfcHl0aG9uJywgJy1waHQnLCAnMi4wJywgJy1waCcsICc3LjAnLCAnLXRuJywgJzgnLCAnLW1hJywgJzIwMCcsICctaW1hZScsICc8aW5maWxlLm1hZT4nLCAnLW9tYWUnLCAnPG91dGZpbGUubWFlPic=

>  <r_lp_tautomer_probability>  (294) 
1

>  <r_epik_Ionization_Penalty>  (294) 
3.92338e-08

>  <r_epik_Ionization_Penalty_Charging>  (294) 
0

>  <r_epik_Ionization_Penalty_Neutral>  (294) 
3.92338e-08

>  <r_epik_State_Penalty>  (294) 
-0

>  <r_epik_Charging_Adjusted_Penalty>  (294) 
0

>  <i_epik_Tot_Q>  (294) 
0

>  <i_epik_Tot_abs_Q>  (294) 
0

>  <s_lp_Force_Field>  (294) 
OPLS3e

>  <r_lp_Energy>  (294) 
29.0784

>  <b_lp_Chiralities_Consistent>  (294) 
1

>  <s_lp_Variant>  (294) 
92:0-1

>  <s_i_glide_gridfile>  (294) 
pfpi4k_grid

>  <i_i_glide_lignum>  (294) 
8

>  <i_i_glide_rotatable_bonds>  (294) 
1

>  <r_i_docking_score>  (294) 
-3.69497

>  <r_i_glide_ligand_efficiency>  (294) 
-0.175951

>  <r_i_glide_ligand_efficiency_sa>  (294) 
-0.485436

>  <r_i_glide_ligand_efficiency_ln>  (294) 
-0.913575

>  <r_i_glide_gscore>  (294) 
-3.69497

>  <r_i_glide_lipo>  (294) 
-0.241049

>  <r_i_glide_hbond>  (294) 
-0.122865

>  <r_i_glide_metal>  (294) 
-0

>  <r_i_glide_rewards>  (294) 
-1.51744

>  <r_i_glide_evdw>  (294) 
-25.7285

>  <r_i_glide_ecoul>  (294) 
-4.58658

>  <r_i_glide_erotb>  (294) 
0.206133

>  <r_i_glide_esite>  (294) 
-0.0453389

>  <r_i_glide_emodel>  (294) 
-37.3615

>  <r_i_glide_energy>  (294) 
-30.315

>  <r_i_glide_einternal>  (294) 
0.164179

>  <r_i_glide_intrahb_reward>  (294) 
-0

>  <i_i_glide_confnum>  (294) 
1

>  <i_i_glide_posenum>  (294) 
40

>  <r_i_glide_eff_state_penalty>  (294) 
0

>  <ligand_id>  (294) 
92

>  <original_smiles>  (294) 
CC1C=CCc2c1c(O)n(-c1nsc3ccccc13)c2O

>  <smiles>  (294) 
[H]C1=C([H])C([H])(C([H])([H])[H])C2([H])C(=O)N(c3nsc4c([H])c([H])c([H])c([H])c34)C(=O)C2([H])C1([H])[H]

$$$$
92:0:2
     RDKit          3D

 35 38  0  0  1  0  0  0  0  0999 V2000
    2.7248  -10.3238    2.7664 C   0  0  0  0  0  0  0  0  0  0  0  0
    1.9191   -9.3787    3.6752 C   0  0  2  0  0  0  0  0  0  0  0  0
    0.4553   -9.8175    3.7720 C   0  0  0  0  0  0  0  0  0  0  0  0
   -0.5807   -9.1508    3.2007 C   0  0  0  0  0  0  0  0  0  0  0  0
   -0.4246   -7.8887    2.3527 C   0  0  0  0  0  0  0  0  0  0  0  0
    1.0506   -7.7678    1.9787 C   0  0  2  0  0  0  0  0  0  0  0  0
    1.9185   -7.9157    3.2116 C   0  0  2  0  0  0  0  0  0  0  0  0
    3.1891   -7.1936    2.7881 C   0  0  0  0  0  0  0  0  0  0  0  0
    4.2673   -7.3229    3.3676 O   0  0  0  0  0  0  0  0  0  0  0  0
    2.9036   -6.3712    1.7585 N   0  0  0  0  0  0  0  0  0  0  0  0
    3.8242   -5.4502    1.2118 C   0  0  0  0  0  0  0  0  0  0  0  0
    4.9043   -5.8643    0.5807 N   0  0  0  0  0  0  0  0  0  0  0  0
    5.8048   -4.5403    0.0822 S   0  0  0  0  0  0  0  0  0  0  0  0
    4.7133   -3.3391    0.7346 C   0  0  0  0  0  0  0  0  0  0  0  0
    4.7922   -1.9374    0.7146 C   0  0  0  0  0  0  0  0  0  0  0  0
    3.7808   -1.1697    1.3184 C   0  0  0  0  0  0  0  0  0  0  0  0
    2.6992   -1.8164    1.9453 C   0  0  0  0  0  0  0  0  0  0  0  0
    2.6303   -3.2202    1.9681 C   0  0  0  0  0  0  0  0  0  0  0  0
    3.6274   -4.0218    1.3566 C   0  0  0  0  0  0  0  0  0  0  0  0
    1.6460   -6.5454    1.3154 C   0  0  0  0  0  0  0  0  0  0  0  0
    1.0378   -5.8694    0.4832 O   0  0  0  0  0  0  0  0  0  0  0  0
    2.6780  -11.3535    3.1200 H   0  0  0  0  0  0  0  0  0  0  0  0
    3.7750  -10.0395    2.7176 H   0  0  0  0  0  0  0  0  0  0  0  0
    2.3525  -10.3231    1.7429 H   0  0  0  0  0  0  0  0  0  0  0  0
    2.3405   -9.4162    4.6796 H   0  0  0  0  0  0  0  0  0  0  0  0
    0.2541  -10.7051    4.3575 H   0  0  0  0  0  0  0  0  0  0  0  0
   -1.5853   -9.5229    3.3390 H   0  0  0  0  0  0  0  0  0  0  0  0
   -1.0220   -7.9892    1.4491 H   0  0  0  0  0  0  0  0  0  0  0  0
   -0.7770   -7.0224    2.9086 H   0  0  0  0  0  0  0  0  0  0  0  0
    1.5007   -7.3074    4.0202 H   0  0  0  0  0  0  0  0  0  0  0  0
    5.6255   -1.4580    0.2330 H   0  0  0  0  0  0  0  0  0  0  0  0
    3.8288   -0.0895    1.2964 H   0  0  0  0  0  0  0  0  0  0  0  0
    1.9133   -1.2318    2.4037 H   0  0  0  0  0  0  0  0  0  0  0  0
    1.7963   -3.6985    2.4550 H   0  0  0  0  0  0  0  0  0  0  0  0
    1.2604   -8.5578    1.2610 H   0  0  0  0  0  0  0  0  0  0  0  0
  1  2  1  0
  1 22  1  0
  1 23  1  0
  1 24  1  0
  2  3  1  0
  2 25  1  1
  2  7  1  0
  3  4  2  0
  3 26  1  0
  4  5  1  0
  4 27  1  0
  5 28  1  0
  5 29  1  0
  5  6  1  0
  6  7  1  0
  6 35  1  6
  6 20  1  0
  7  8  1  0
  7 30  1  1
  8  9  2  0
  8 10  1  0
 10 20  1  0
 10 11  1  0
 11 19  1  0
 11 12  2  0
 12 13  1  0
 13 14  1  0
 14 19  2  0
 14 15  1  0
 15 16  2  0
 15 31  1  0
 16 17  1  0
 16 32  1  0
 17 18  2  0
 17 33  1  0
 18 19  1  0
 18 34  1  0
 20 21  2  0
M  END
>  <i_m_ct_stereo_status>  (295) 
1

>  <s_m_source_file>  (295) 
/var/tmp/pbs.5076255.sched01/tmpk7n3yjou/123nw9z_609.sdf

>  <i_m_source_file_index>  (295) 
8

>  <i_lp_mmshare_version>  (295) 
48012

>  <i_f3d_flags>  (295) 
0

>  <s_epik_input>  (295) 
W0NIMl0xW0NIXT1bQ0hdW0NAQEhdKFtDSDNdKWMoYzEyKWMoW09IXSluKGMyW09IXSktYyhuczMpYyhjMzQpW2NIXVtjSF1bY0hdW2NIXTQ=

>  <s_epik_cmdline>  (295) 
J2VwaWtfcHl0aG9uJywgJy1waHQnLCAnMi4wJywgJy1waCcsICc3LjAnLCAnLXRuJywgJzgnLCAnLW1hJywgJzIwMCcsICctaW1hZScsICc8aW5maWxlLm1hZT4nLCAnLW9tYWUnLCAnPG91dGZpbGUubWFlPic=

>  <r_lp_tautomer_probability>  (295) 
1

>  <r_epik_Ionization_Penalty>  (295) 
3.92338e-08

>  <r_epik_Ionization_Penalty_Charging>  (295) 
0

>  <r_epik_Ionization_Penalty_Neutral>  (295) 
3.92338e-08

>  <r_epik_State_Penalty>  (295) 
-0

>  <r_epik_Charging_Adjusted_Penalty>  (295) 
0

>  <i_epik_Tot_Q>  (295) 
0

>  <i_epik_Tot_abs_Q>  (295) 
0

>  <s_lp_Force_Field>  (295) 
OPLS3e

>  <r_lp_Energy>  (295) 
29.0784

>  <b_lp_Chiralities_Consistent>  (295) 
1

>  <s_lp_Variant>  (295) 
92:0-1

>  <s_i_glide_gridfile>  (295) 
pfpi4k_grid

>  <i_i_glide_lignum>  (295) 
8

>  <i_i_glide_rotatable_bonds>  (295) 
1

>  <r_i_docking_score>  (295) 
-3.41893

>  <r_i_glide_ligand_efficiency>  (295) 
-0.162806

>  <r_i_glide_ligand_efficiency_sa>  (295) 
-0.44917

>  <r_i_glide_ligand_efficiency_ln>  (295) 
-0.845324

>  <r_i_glide_gscore>  (295) 
-3.41893

>  <r_i_glide_lipo>  (295) 
-0.145235

>  <r_i_glide_hbond>  (295) 
-0.16

>  <r_i_glide_metal>  (295) 
-0

>  <r_i_glide_rewards>  (295) 
-1.39224

>  <r_i_glide_evdw>  (295) 
-24.1807

>  <r_i_glide_ecoul>  (295) 
-4.46936

>  <r_i_glide_erotb>  (295) 
0.206133

>  <r_i_glide_esite>  (295) 
-0.0481532

>  <r_i_glide_emodel>  (295) 
-35.0791

>  <r_i_glide_energy>  (295) 
-28.65

>  <r_i_glide_einternal>  (295) 
0.26468

>  <r_i_glide_intrahb_reward>  (295) 
-0

>  <i_i_glide_confnum>  (295) 
3

>  <i_i_glide_posenum>  (295) 
12

>  <r_i_glide_eff_state_penalty>  (295) 
0

>  <ligand_id>  (295) 
92

>  <original_smiles>  (295) 
CC1C=CCc2c1c(O)n(-c1nsc3ccccc13)c2O

>  <smiles>  (295) 
[H]C1=C([H])C([H])(C([H])([H])[H])C2([H])C(=O)N(c3nsc4c([H])c([H])c([H])c([H])c34)C(=O)C2([H])C1([H])[H]

$$$$
92:1:0
     RDKit          3D

 35 38  0  0  1  0  0  0  0  0999 V2000
   -4.0711  -11.6169   -7.7503 C   0  0  0  0  0  0  0  0  0  0  0  0
   -5.4677  -12.2637   -7.6599 C   0  0  2  0  0  0  0  0  0  0  0  0
   -6.0216  -12.4982   -9.0528 C   0  0  0  0  0  0  0  0  0  0  0  0
   -7.3179  -12.7482   -9.2718 C   0  0  0  0  0  0  0  0  0  0  0  0
   -8.3120  -12.8331   -8.1330 C   0  0  0  0  0  0  0  0  0  0  0  0
   -7.9973  -11.8443   -6.9843 C   0  0  1  0  0  0  0  0  0  0  0  0
   -6.4952  -11.5410   -6.7279 C   0  0  2  0  0  0  0  0  0  0  0  0
   -6.4699  -10.0146   -6.8570 C   0  0  0  0  0  0  0  0  0  0  0  0
   -5.4404   -9.3632   -6.6498 O   0  0  0  0  0  0  0  0  0  0  0  0
   -7.6628   -9.5077   -7.1744 N   0  0  0  0  0  0  0  0  0  0  0  0
   -7.8905   -8.1092   -7.4135 C   0  0  0  0  0  0  0  0  0  0  0  0
   -8.5259   -7.6973   -8.4946 N   0  0  0  0  0  0  0  0  0  0  0  0
   -8.6756   -6.0479   -8.4837 S   0  0  0  0  0  0  0  0  0  0  0  0
   -7.7927   -5.8094   -6.9879 C   0  0  0  0  0  0  0  0  0  0  0  0
   -7.4759   -4.6315   -6.2932 C   0  0  0  0  0  0  0  0  0  0  0  0
   -6.7307   -4.6720   -5.0937 C   0  0  0  0  0  0  0  0  0  0  0  0
   -6.3281   -5.9197   -4.5878 C   0  0  0  0  0  0  0  0  0  0  0  0
   -6.6677   -7.0909   -5.2814 C   0  0  0  0  0  0  0  0  0  0  0  0
   -7.3998   -7.0835   -6.4949 C   0  0  0  0  0  0  0  0  0  0  0  0
   -8.5962  -10.4714   -7.2726 C   0  0  0  0  0  0  0  0  0  0  0  0
   -9.7956  -10.3298   -7.5220 O   0  0  0  0  0  0  0  0  0  0  0  0
   -3.3244  -12.2279   -8.2521 H   0  0  0  0  0  0  0  0  0  0  0  0
   -3.6889  -11.3520   -6.7698 H   0  0  0  0  0  0  0  0  0  0  0  0
   -4.1368  -10.6818   -8.3099 H   0  0  0  0  0  0  0  0  0  0  0  0
   -5.3073  -13.2566   -7.2337 H   0  0  0  0  0  0  0  0  0  0  0  0
   -5.3295  -12.4961   -9.8848 H   0  0  0  0  0  0  0  0  0  0  0  0
   -7.6798  -12.9378  -10.2724 H   0  0  0  0  0  0  0  0  0  0  0  0
   -9.3094  -12.6540   -8.5379 H   0  0  0  0  0  0  0  0  0  0  0  0
   -8.3186  -13.8598   -7.7671 H   0  0  0  0  0  0  0  0  0  0  0  0
   -6.2349  -11.7867   -5.6994 H   0  0  0  0  0  0  0  0  0  0  0  0
   -7.8001   -3.6922   -6.6984 H   0  0  0  0  0  0  0  0  0  0  0  0
   -6.4754   -3.7647   -4.5686 H   0  0  0  0  0  0  0  0  0  0  0  0
   -5.7730   -5.9923   -3.6682 H   0  0  0  0  0  0  0  0  0  0  0  0
   -6.3492   -8.0176   -4.8369 H   0  0  0  0  0  0  0  0  0  0  0  0
   -8.4649  -12.2044   -6.0719 H   0  0  0  0  0  0  0  0  0  0  0  0
  1  2  1  0
  1 22  1  0
  1 23  1  0
  1 24  1  0
  2  3  1  0
  2 25  1  1
  2  7  1  0
  3  4  2  0
  3 26  1  0
  4  5  1  0
  4 27  1  0
  5 28  1  0
  5 29  1  0
  5  6  1  0
  6  7  1  0
  6 35  1  1
  6 20  1  0
  7  8  1  0
  7 30  1  1
  8  9  2  0
  8 10  1  0
 10 20  1  0
 10 11  1  0
 11 19  1  0
 11 12  2  0
 12 13  1  0
 13 14  1  0
 14 19  2  0
 14 15  1  0
 15 16  2  0
 15 31  1  0
 16 17  1  0
 16 32  1  0
 17 18  2  0
 17 33  1  0
 18 19  1  0
 18 34  1  0
 20 21  2  0
M  END
>  <i_m_ct_stereo_status>  (296) 
1

>  <s_m_source_file>  (296) 
/var/tmp/pbs.5076255.sched01/tmpk7n3yjou/123nw9z_609.sdf

>  <i_m_source_file_index>  (296) 
9

>  <i_lp_mmshare_version>  (296) 
48012

>  <i_f3d_flags>  (296) 
0

>  <s_epik_input>  (296) 
W0NIMl0xW0NIXT1bQ0hdW0NAQEhdKFtDSDNdKWMoYzEyKWMoW09IXSluKGMyW09IXSktYyhuczMpYyhjMzQpW2NIXVtjSF1bY0hdW2NIXTQ=

>  <s_epik_cmdline>  (296) 
J2VwaWtfcHl0aG9uJywgJy1waHQnLCAnMi4wJywgJy1waCcsICc3LjAnLCAnLXRuJywgJzgnLCAnLW1hJywgJzIwMCcsICctaW1hZScsICc8aW5maWxlLm1hZT4nLCAnLW9tYWUnLCAnPG91dGZpbGUubWFlPic=

>  <r_lp_tautomer_probability>  (296) 
1

>  <r_epik_Ionization_Penalty>  (296) 
3.92338e-08

>  <r_epik_Ionization_Penalty_Charging>  (296) 
0

>  <r_epik_Ionization_Penalty_Neutral>  (296) 
3.92338e-08

>  <r_epik_State_Penalty>  (296) 
-0

>  <r_epik_Charging_Adjusted_Penalty>  (296) 
0

>  <i_epik_Tot_Q>  (296) 
0

>  <i_epik_Tot_abs_Q>  (296) 
0

>  <s_lp_Force_Field>  (296) 
OPLS3e

>  <r_lp_Energy>  (296) 
27.3812

>  <b_lp_Chiralities_Consistent>  (296) 
1

>  <s_lp_Variant>  (296) 
92:0-2

>  <s_i_glide_gridfile>  (296) 
pfpi4k_grid

>  <i_i_glide_lignum>  (296) 
9

>  <i_i_glide_rotatable_bonds>  (296) 
1

>  <r_i_docking_score>  (296) 
-5.61334

>  <r_i_glide_ligand_efficiency>  (296) 
-0.267302

>  <r_i_glide_ligand_efficiency_sa>  (296) 
-0.737465

>  <r_i_glide_ligand_efficiency_ln>  (296) 
-1.38789

>  <r_i_glide_gscore>  (296) 
-5.61334

>  <r_i_glide_lipo>  (296) 
-2.17438

>  <r_i_glide_hbond>  (296) 
0

>  <r_i_glide_metal>  (296) 
-0

>  <r_i_glide_rewards>  (296) 
-2.34872

>  <r_i_glide_evdw>  (296) 
-30.5927

>  <r_i_glide_ecoul>  (296) 
1.55503

>  <r_i_glide_erotb>  (296) 
0.206133

>  <r_i_glide_esite>  (296) 
0

>  <r_i_glide_emodel>  (296) 
-40.3037

>  <r_i_glide_energy>  (296) 
-29.0376

>  <r_i_glide_einternal>  (296) 
0.315352

>  <r_i_glide_intrahb_reward>  (296) 
-0

>  <i_i_glide_confnum>  (296) 
5

>  <i_i_glide_posenum>  (296) 
5

>  <r_i_glide_eff_state_penalty>  (296) 
0

>  <ligand_id>  (296) 
92

>  <original_smiles>  (296) 
CC1C=CCc2c1c(O)n(-c1nsc3ccccc13)c2O

>  <smiles>  (296) 
[H]C1=C([H])C([H])(C([H])([H])[H])C2([H])C(=O)N(c3nsc4c([H])c([H])c([H])c([H])c34)C(=O)C2([H])C1([H])[H]

$$$$
92:1:1
     RDKit          3D

 35 38  0  0  1  0  0  0  0  0999 V2000
    1.1529   -0.5257    5.1175 C   0  0  0  0  0  0  0  0  0  0  0  0
    0.2493   -0.4241    3.8663 C   0  0  2  0  0  0  0  0  0  0  0  0
    1.1159   -0.0618    2.6749 C   0  0  0  0  0  0  0  0  0  0  0  0
    1.3570    1.2168    2.3449 C   0  0  0  0  0  0  0  0  0  0  0  0
    0.7558    2.3596    3.1305 C   0  0  0  0  0  0  0  0  0  0  0  0
   -0.6820    2.0360    3.5962 C   0  0  1  0  0  0  0  0  0  0  0  0
   -0.9580    0.5600    3.9758 C   0  0  2  0  0  0  0  0  0  0  0  0
   -1.5451    0.6874    5.3789 C   0  0  0  0  0  0  0  0  0  0  0  0
   -1.9783   -0.2786    6.0157 O   0  0  0  0  0  0  0  0  0  0  0  0
   -1.5455    1.9541    5.7980 N   0  0  0  0  0  0  0  0  0  0  0  0
   -1.9821    2.3521    7.0818 C   0  0  0  0  0  0  0  0  0  0  0  0
   -3.1432    2.9414    7.2274 N   0  0  0  0  0  0  0  0  0  0  0  0
   -3.3857    3.3339    8.8537 S   0  0  0  0  0  0  0  0  0  0  0  0
   -1.8755    2.6297    9.4002 C   0  0  0  0  0  0  0  0  0  0  0  0
   -1.3498    2.5419   10.6984 C   0  0  0  0  0  0  0  0  0  0  0  0
   -0.1157    1.9118   10.9124 C   0  0  0  0  0  0  0  0  0  0  0  0
    0.5908    1.3847    9.8186 C   0  0  0  0  0  0  0  0  0  0  0  0
    0.0622    1.4836    8.5186 C   0  0  0  0  0  0  0  0  0  0  0  0
   -1.1856    2.1021    8.2703 C   0  0  0  0  0  0  0  0  0  0  0  0
   -1.0879    2.7989    4.8579 C   0  0  0  0  0  0  0  0  0  0  0  0
   -0.9808    4.0198    4.9671 O   0  0  0  0  0  0  0  0  0  0  0  0
    1.9329   -1.2774    4.9806 H   0  0  0  0  0  0  0  0  0  0  0  0
    0.6207   -0.8033    6.0279 H   0  0  0  0  0  0  0  0  0  0  0  0
    1.6479    0.4267    5.3060 H   0  0  0  0  0  0  0  0  0  0  0  0
   -0.1643   -1.4101    3.6643 H   0  0  0  0  0  0  0  0  0  0  0  0
    1.5924   -0.8620    2.1249 H   0  0  0  0  0  0  0  0  0  0  0  0
    2.0368    1.4625    1.5407 H   0  0  0  0  0  0  0  0  0  0  0  0
    1.4176    2.5891    3.9646 H   0  0  0  0  0  0  0  0  0  0  0  0
    0.7427    3.2405    2.4939 H   0  0  0  0  0  0  0  0  0  0  0  0
   -1.7630    0.1973    3.3307 H   0  0  0  0  0  0  0  0  0  0  0  0
   -1.9027    2.9446   11.5334 H   0  0  0  0  0  0  0  0  0  0  0  0
    0.2834    1.8346   11.9166 H   0  0  0  0  0  0  0  0  0  0  0  0
    1.5486    0.9039    9.9784 H   0  0  0  0  0  0  0  0  0  0  0  0
    0.6233    1.0782    7.6916 H   0  0  0  0  0  0  0  0  0  0  0  0
   -1.3743    2.3301    2.8061 H   0  0  0  0  0  0  0  0  0  0  0  0
  1  2  1  0
  1 22  1  0
  1 23  1  0
  1 24  1  0
  2  3  1  0
  2 25  1  6
  2  7  1  0
  3  4  2  0
  3 26  1  0
  4  5  1  0
  4 27  1  0
  5 28  1  0
  5 29  1  0
  5  6  1  0
  6  7  1  0
  6 35  1  6
  6 20  1  0
  7  8  1  0
  7 30  1  6
  8  9  2  0
  8 10  1  0
 10 20  1  0
 10 11  1  0
 11 19  1  0
 11 12  2  0
 12 13  1  0
 13 14  1  0
 14 19  2  0
 14 15  1  0
 15 16  2  0
 15 31  1  0
 16 17  1  0
 16 32  1  0
 17 18  2  0
 17 33  1  0
 18 19  1  0
 18 34  1  0
 20 21  2  0
M  END
>  <i_m_ct_stereo_status>  (297) 
1

>  <s_m_source_file>  (297) 
/var/tmp/pbs.5076255.sched01/tmpk7n3yjou/123nw9z_609.sdf

>  <i_m_source_file_index>  (297) 
9

>  <i_lp_mmshare_version>  (297) 
48012

>  <i_f3d_flags>  (297) 
0

>  <s_epik_input>  (297) 
W0NIMl0xW0NIXT1bQ0hdW0NAQEhdKFtDSDNdKWMoYzEyKWMoW09IXSluKGMyW09IXSktYyhuczMpYyhjMzQpW2NIXVtjSF1bY0hdW2NIXTQ=

>  <s_epik_cmdline>  (297) 
J2VwaWtfcHl0aG9uJywgJy1waHQnLCAnMi4wJywgJy1waCcsICc3LjAnLCAnLXRuJywgJzgnLCAnLW1hJywgJzIwMCcsICctaW1hZScsICc8aW5maWxlLm1hZT4nLCAnLW9tYWUnLCAnPG91dGZpbGUubWFlPic=

>  <r_lp_tautomer_probability>  (297) 
1

>  <r_epik_Ionization_Penalty>  (297) 
3.92338e-08

>  <r_epik_Ionization_Penalty_Charging>  (297) 
0

>  <r_epik_Ionization_Penalty_Neutral>  (297) 
3.92338e-08

>  <r_epik_State_Penalty>  (297) 
-0

>  <r_epik_Charging_Adjusted_Penalty>  (297) 
0

>  <i_epik_Tot_Q>  (297) 
0

>  <i_epik_Tot_abs_Q>  (297) 
0

>  <s_lp_Force_Field>  (297) 
OPLS3e

>  <r_lp_Energy>  (297) 
27.3812

>  <b_lp_Chiralities_Consistent>  (297) 
1

>  <s_lp_Variant>  (297) 
92:0-2

>  <s_i_glide_gridfile>  (297) 
pfpi4k_grid

>  <i_i_glide_lignum>  (297) 
9

>  <i_i_glide_rotatable_bonds>  (297) 
1

>  <r_i_docking_score>  (297) 
-3.60826

>  <r_i_glide_ligand_efficiency>  (297) 
-0.171822

>  <r_i_glide_ligand_efficiency_sa>  (297) 
-0.474043

>  <r_i_glide_ligand_efficiency_ln>  (297) 
-0.892134

>  <r_i_glide_gscore>  (297) 
-3.60826

>  <r_i_glide_lipo>  (297) 
-0.0277976

>  <r_i_glide_hbond>  (297) 
-0.143034

>  <r_i_glide_metal>  (297) 
-0

>  <r_i_glide_rewards>  (297) 
-1.37481

>  <r_i_glide_evdw>  (297) 
-24.6813

>  <r_i_glide_ecoul>  (297) 
-6.49196

>  <r_i_glide_erotb>  (297) 
0.206133

>  <r_i_glide_esite>  (297) 
-0.0608875

>  <r_i_glide_emodel>  (297) 
-38.6697

>  <r_i_glide_energy>  (297) 
-31.1732

>  <r_i_glide_einternal>  (297) 
0.311343

>  <r_i_glide_intrahb_reward>  (297) 
-0

>  <i_i_glide_confnum>  (297) 
2

>  <i_i_glide_posenum>  (297) 
1

>  <r_i_glide_eff_state_penalty>  (297) 
0

>  <ligand_id>  (297) 
92

>  <original_smiles>  (297) 
CC1C=CCc2c1c(O)n(-c1nsc3ccccc13)c2O

>  <smiles>  (297) 
[H]C1=C([H])C([H])(C([H])([H])[H])C2([H])C(=O)N(c3nsc4c([H])c([H])c([H])c([H])c34)C(=O)C2([H])C1([H])[H]

$$$$
92:1:2
     RDKit          3D

 35 38  0  0  1  0  0  0  0  0999 V2000
    2.4727   -1.7092    1.8828 C   0  0  0  0  0  0  0  0  0  0  0  0
    3.6622   -2.4446    1.2362 C   0  0  2  0  0  0  0  0  0  0  0  0
    3.4212   -2.5931   -0.2524 C   0  0  0  0  0  0  0  0  0  0  0  0
    4.1001   -3.4694   -1.0010 C   0  0  0  0  0  0  0  0  0  0  0  0
    5.1675   -4.3573   -0.4052 C   0  0  0  0  0  0  0  0  0  0  0  0
    4.8374   -4.8038    1.0434 C   0  0  1  0  0  0  0  0  0  0  0  0
    4.0463   -3.7982    1.9230 C   0  0  2  0  0  0  0  0  0  0  0  0
    2.8333   -4.6295    2.3491 C   0  0  0  0  0  0  0  0  0  0  0  0
    2.0125   -4.2219    3.1798 O   0  0  0  0  0  0  0  0  0  0  0  0
    2.8332   -5.8397    1.7739 N   0  0  0  0  0  0  0  0  0  0  0  0
    1.7954   -6.7874    1.9478 C   0  0  0  0  0  0  0  0  0  0  0  0
    0.5389   -6.4539    1.7210 N   0  0  0  0  0  0  0  0  0  0  0  0
   -0.4834   -7.7297    2.0842 S   0  0  0  0  0  0  0  0  0  0  0  0
    0.8037   -8.8195    2.5541 C   0  0  0  0  0  0  0  0  0  0  0  0
    0.7478  -10.1525    2.9808 C   0  0  0  0  0  0  0  0  0  0  0  0
    1.9351  -10.8307    3.3104 C   0  0  0  0  0  0  0  0  0  0  0  0
    3.1671  -10.1601    3.2282 C   0  0  0  0  0  0  0  0  0  0  0  0
    3.2181   -8.8216    2.8133 C   0  0  0  0  0  0  0  0  0  0  0  0
    2.0447   -8.1227    2.4394 C   0  0  0  0  0  0  0  0  0  0  0  0
    3.9336   -6.0336    1.0430 C   0  0  0  0  0  0  0  0  0  0  0  0
    4.2383   -7.0692    0.4449 O   0  0  0  0  0  0  0  0  0  0  0  0
    2.3465   -0.7014    1.5106 H   0  0  0  0  0  0  0  0  0  0  0  0
    2.5908   -1.6523    2.9651 H   0  0  0  0  0  0  0  0  0  0  0  0
    1.5363   -2.2482    1.6916 H   0  0  0  0  0  0  0  0  0  0  0  0
    4.5229   -1.7777    1.3331 H   0  0  0  0  0  0  0  0  0  0  0  0
    2.6988   -1.9324   -0.7181 H   0  0  0  0  0  0  0  0  0  0  0  0
    3.9265   -3.5366   -2.0672 H   0  0  0  0  0  0  0  0  0  0  0  0
    5.2941   -5.2204   -1.0605 H   0  0  0  0  0  0  0  0  0  0  0  0
    6.1140   -3.8204   -0.4354 H   0  0  0  0  0  0  0  0  0  0  0  0
    4.6129   -3.5796    2.8308 H   0  0  0  0  0  0  0  0  0  0  0  0
   -0.1993  -10.6517    3.0435 H   0  0  0  0  0  0  0  0  0  0  0  0
    1.8997  -11.8619    3.6240 H   0  0  0  0  0  0  0  0  0  0  0  0
    4.0806  -10.6759    3.4714 H   0  0  0  0  0  0  0  0  0  0  0  0
    4.1736   -8.3302    2.7591 H   0  0  0  0  0  0  0  0  0  0  0  0
    5.7669   -5.0898    1.5383 H   0  0  0  0  0  0  0  0  0  0  0  0
  1  2  1  0
  1 22  1  0
  1 23  1  0
  1 24  1  0
  2  3  1  0
  2 25  1  6
  2  7  1  0
  3  4  2  0
  3 26  1  0
  4  5  1  0
  4 27  1  0
  5 28  1  0
  5 29  1  0
  5  6  1  0
  6  7  1  0
  6 35  1  1
  6 20  1  0
  7  8  1  0
  7 30  1  1
  8  9  2  0
  8 10  1  0
 10 20  1  0
 10 11  1  0
 11 19  1  0
 11 12  2  0
 12 13  1  0
 13 14  1  0
 14 19  2  0
 14 15  1  0
 15 16  2  0
 15 31  1  0
 16 17  1  0
 16 32  1  0
 17 18  2  0
 17 33  1  0
 18 19  1  0
 18 34  1  0
 20 21  2  0
M  END
>  <i_m_ct_stereo_status>  (298) 
1

>  <s_m_source_file>  (298) 
/var/tmp/pbs.5076255.sched01/tmpk7n3yjou/123nw9z_609.sdf

>  <i_m_source_file_index>  (298) 
9

>  <i_lp_mmshare_version>  (298) 
48012

>  <i_f3d_flags>  (298) 
0

>  <s_epik_input>  (298) 
W0NIMl0xW0NIXT1bQ0hdW0NAQEhdKFtDSDNdKWMoYzEyKWMoW09IXSluKGMyW09IXSktYyhuczMpYyhjMzQpW2NIXVtjSF1bY0hdW2NIXTQ=

>  <s_epik_cmdline>  (298) 
J2VwaWtfcHl0aG9uJywgJy1waHQnLCAnMi4wJywgJy1waCcsICc3LjAnLCAnLXRuJywgJzgnLCAnLW1hJywgJzIwMCcsICctaW1hZScsICc8aW5maWxlLm1hZT4nLCAnLW9tYWUnLCAnPG91dGZpbGUubWFlPic=

>  <r_lp_tautomer_probability>  (298) 
1

>  <r_epik_Ionization_Penalty>  (298) 
3.92338e-08

>  <r_epik_Ionization_Penalty_Charging>  (298) 
0

>  <r_epik_Ionization_Penalty_Neutral>  (298) 
3.92338e-08

>  <r_epik_State_Penalty>  (298) 
-0

>  <r_epik_Charging_Adjusted_Penalty>  (298) 
0

>  <i_epik_Tot_Q>  (298) 
0

>  <i_epik_Tot_abs_Q>  (298) 
0

>  <s_lp_Force_Field>  (298) 
OPLS3e

>  <r_lp_Energy>  (298) 
27.3812

>  <b_lp_Chiralities_Consistent>  (298) 
1

>  <s_lp_Variant>  (298) 
92:0-2

>  <s_i_glide_gridfile>  (298) 
pfpi4k_grid

>  <i_i_glide_lignum>  (298) 
9

>  <i_i_glide_rotatable_bonds>  (298) 
1

>  <r_i_docking_score>  (298) 
-3.42794

>  <r_i_glide_ligand_efficiency>  (298) 
-0.163235

>  <r_i_glide_ligand_efficiency_sa>  (298) 
-0.450354

>  <r_i_glide_ligand_efficiency_ln>  (298) 
-0.847552

>  <r_i_glide_gscore>  (298) 
-3.42794

>  <r_i_glide_lipo>  (298) 
-0.303362

>  <r_i_glide_hbond>  (298) 
-0.114685

>  <r_i_glide_metal>  (298) 
-0

>  <r_i_glide_rewards>  (298) 
-1.45773

>  <r_i_glide_evdw>  (298) 
-26.4011

>  <r_i_glide_ecoul>  (298) 
-2.87217

>  <r_i_glide_erotb>  (298) 
0.206133

>  <r_i_glide_esite>  (298) 
-0.00741904

>  <r_i_glide_emodel>  (298) 
-36.2733

>  <r_i_glide_energy>  (298) 
-29.2733

>  <r_i_glide_einternal>  (298) 
0.14582

>  <r_i_glide_intrahb_reward>  (298) 
-0

>  <i_i_glide_confnum>  (298) 
5

>  <i_i_glide_posenum>  (298) 
2

>  <r_i_glide_eff_state_penalty>  (298) 
0

>  <ligand_id>  (298) 
92

>  <original_smiles>  (298) 
CC1C=CCc2c1c(O)n(-c1nsc3ccccc13)c2O

>  <smiles>  (298) 
[H]C1=C([H])C([H])(C([H])([H])[H])C2([H])C(=O)N(c3nsc4c([H])c([H])c([H])c([H])c34)C(=O)C2([H])C1([H])[H]

$$$$
92:2:0
     RDKit          3D

 35 38  0  0  1  0  0  0  0  0999 V2000
    1.9266    2.9401    2.9198 C   0  0  0  0  0  0  0  0  0  0  0  0
    1.4646    1.7098    3.7097 C   0  0  2  0  0  0  0  0  0  0  0  0
    1.8848    0.4369    3.0017 C   0  0  0  0  0  0  0  0  0  0  0  0
    1.2645   -0.7341    3.2032 C   0  0  0  0  0  0  0  0  0  0  0  0
    0.1160   -0.8674    4.1760 C   0  0  0  0  0  0  0  0  0  0  0  0
   -0.7807    0.3958    4.1874 C   0  0  2  0  0  0  0  0  0  0  0  0
   -0.0688    1.7499    3.9565 C   0  0  1  0  0  0  0  0  0  0  0  0
   -0.4653    2.5573    5.1942 C   0  0  0  0  0  0  0  0  0  0  0  0
   -0.0876    3.7133    5.4030 O   0  0  0  0  0  0  0  0  0  0  0  0
   -1.2619    1.8403    5.9932 N   0  0  0  0  0  0  0  0  0  0  0  0
   -1.8106    2.3345    7.1950 C   0  0  0  0  0  0  0  0  0  0  0  0
   -3.0208    2.8533    7.2295 N   0  0  0  0  0  0  0  0  0  0  0  0
   -3.3793    3.3400    8.8012 S   0  0  0  0  0  0  0  0  0  0  0  0
   -1.8433    2.8376    9.4837 C   0  0  0  0  0  0  0  0  0  0  0  0
   -1.3706    2.9177   10.8060 C   0  0  0  0  0  0  0  0  0  0  0  0
   -0.0860    2.4328   11.1254 C   0  0  0  0  0  0  0  0  0  0  0  0
    0.7152    1.8726   10.1072 C   0  0  0  0  0  0  0  0  0  0  0  0
    0.2300    1.7968    8.7842 C   0  0  0  0  0  0  0  0  0  0  0  0
   -1.0589    2.2753    8.4346 C   0  0  0  0  0  0  0  0  0  0  0  0
   -1.4868    0.6121    5.5209 C   0  0  0  0  0  0  0  0  0  0  0  0
   -2.1647   -0.2562    6.0717 O   0  0  0  0  0  0  0  0  0  0  0  0
    3.0055    2.9398    2.7578 H   0  0  0  0  0  0  0  0  0  0  0  0
    1.6670    3.8711    3.4267 H   0  0  0  0  0  0  0  0  0  0  0  0
    1.4430    2.9507    1.9413 H   0  0  0  0  0  0  0  0  0  0  0  0
    1.9876    1.7044    4.6678 H   0  0  0  0  0  0  0  0  0  0  0  0
    2.7312    0.4909    2.3301 H   0  0  0  0  0  0  0  0  0  0  0  0
    1.6076   -1.6267    2.6999 H   0  0  0  0  0  0  0  0  0  0  0  0
   -0.4820   -1.7346    3.8968 H   0  0  0  0  0  0  0  0  0  0  0  0
    0.5342   -1.0763    5.1615 H   0  0  0  0  0  0  0  0  0  0  0  0
   -0.5479    2.2252    3.0976 H   0  0  0  0  0  0  0  0  0  0  0  0
   -1.9996    3.3381   11.5750 H   0  0  0  0  0  0  0  0  0  0  0  0
    0.2724    2.4889   12.1434 H   0  0  0  0  0  0  0  0  0  0  0  0
    1.7038    1.5019   10.3447 H   0  0  0  0  0  0  0  0  0  0  0  0
    0.8581    1.3703    8.0191 H   0  0  0  0  0  0  0  0  0  0  0  0
   -1.5492    0.2805    3.4198 H   0  0  0  0  0  0  0  0  0  0  0  0
  1  2  1  0
  1 22  1  0
  1 23  1  0
  1 24  1  0
  2  3  1  0
  2 25  1  1
  2  7  1  0
  3  4  2  0
  3 26  1  0
  4  5  1  0
  4 27  1  0
  5 28  1  0
  5 29  1  0
  5  6  1  0
  6  7  1  0
  6 35  1  6
  6 20  1  0
  7  8  1  0
  7 30  1  6
  8  9  2  0
  8 10  1  0
 10 20  1  0
 10 11  1  0
 11 19  1  0
 11 12  2  0
 12 13  1  0
 13 14  1  0
 14 19  2  0
 14 15  1  0
 15 16  2  0
 15 31  1  0
 16 17  1  0
 16 32  1  0
 17 18  2  0
 17 33  1  0
 18 19  1  0
 18 34  1  0
 20 21  2  0
M  END
>  <i_m_ct_stereo_status>  (299) 
1

>  <s_m_source_file>  (299) 
/var/tmp/pbs.5076255.sched01/tmpk7n3yjou/123nw9z_609.sdf

>  <i_m_source_file_index>  (299) 
10

>  <i_lp_mmshare_version>  (299) 
48012

>  <i_f3d_flags>  (299) 
0

>  <s_epik_input>  (299) 
W0NIMl0xW0NIXT1bQ0hdW0NAQEhdKFtDSDNdKWMoYzEyKWMoW09IXSluKGMyW09IXSktYyhuczMpYyhjMzQpW2NIXVtjSF1bY0hdW2NIXTQ=

>  <s_epik_cmdline>  (299) 
J2VwaWtfcHl0aG9uJywgJy1waHQnLCAnMi4wJywgJy1waCcsICc3LjAnLCAnLXRuJywgJzgnLCAnLW1hJywgJzIwMCcsICctaW1hZScsICc8aW5maWxlLm1hZT4nLCAnLW9tYWUnLCAnPG91dGZpbGUubWFlPic=

>  <r_lp_tautomer_probability>  (299) 
1

>  <r_epik_Ionization_Penalty>  (299) 
3.92338e-08

>  <r_epik_Ionization_Penalty_Charging>  (299) 
0

>  <r_epik_Ionization_Penalty_Neutral>  (299) 
3.92338e-08

>  <r_epik_State_Penalty>  (299) 
-0

>  <r_epik_Charging_Adjusted_Penalty>  (299) 
0

>  <i_epik_Tot_Q>  (299) 
0

>  <i_epik_Tot_abs_Q>  (299) 
0

>  <s_lp_Force_Field>  (299) 
OPLS3e

>  <r_lp_Energy>  (299) 
25.9293

>  <b_lp_Chiralities_Consistent>  (299) 
1

>  <s_lp_Variant>  (299) 
92:0-3

>  <s_i_glide_gridfile>  (299) 
pfpi4k_grid

>  <i_i_glide_lignum>  (299) 
10

>  <i_i_glide_rotatable_bonds>  (299) 
1

>  <r_i_docking_score>  (299) 
-3.49506

>  <r_i_glide_ligand_efficiency>  (299) 
-0.166432

>  <r_i_glide_ligand_efficiency_sa>  (299) 
-0.459172

>  <r_i_glide_ligand_efficiency_ln>  (299) 
-0.864148

>  <r_i_glide_gscore>  (299) 
-3.49506

>  <r_i_glide_lipo>  (299) 
-0.0260862

>  <r_i_glide_hbond>  (299) 
-0.147117

>  <r_i_glide_metal>  (299) 
-0

>  <r_i_glide_rewards>  (299) 
-1.37481

>  <r_i_glide_evdw>  (299) 
-23.7882

>  <r_i_glide_ecoul>  (299) 
-6.0171

>  <r_i_glide_erotb>  (299) 
0.206133

>  <r_i_glide_esite>  (299) 
-0.0612047

>  <r_i_glide_emodel>  (299) 
-36.552

>  <r_i_glide_energy>  (299) 
-29.8053

>  <r_i_glide_einternal>  (299) 
0.559962

>  <r_i_glide_intrahb_reward>  (299) 
-0

>  <i_i_glide_confnum>  (299) 
2

>  <i_i_glide_posenum>  (299) 
20

>  <r_i_glide_eff_state_penalty>  (299) 
0

>  <ligand_id>  (299) 
92

>  <original_smiles>  (299) 
CC1C=CCc2c1c(O)n(-c1nsc3ccccc13)c2O

>  <smiles>  (299) 
[H]C1=C([H])C([H])(C([H])([H])[H])C2([H])C(=O)N(c3nsc4c([H])c([H])c([H])c([H])c34)C(=O)C2([H])C1([H])[H]

$$$$
92:2:1
     RDKit          3D

 35 38  0  0  1  0  0  0  0  0999 V2000
   -1.9480   -8.5909    3.4016 C   0  0  0  0  0  0  0  0  0  0  0  0
   -0.6262   -8.4086    2.6601 C   0  0  2  0  0  0  0  0  0  0  0  0
    0.2306   -9.6482    2.8324 C   0  0  0  0  0  0  0  0  0  0  0  0
    1.0586   -9.7896    3.8752 C   0  0  0  0  0  0  0  0  0  0  0  0
    1.1743   -8.7158    4.9366 C   0  0  0  0  0  0  0  0  0  0  0  0
    1.0413   -7.2843    4.3598 C   0  0  2  0  0  0  0  0  0  0  0  0
    0.0953   -7.1242    3.1396 C   0  0  1  0  0  0  0  0  0  0  0  0
    1.0207   -6.5646    2.0646 C   0  0  0  0  0  0  0  0  0  0  0  0
    0.6131   -6.2580    0.9376 O   0  0  0  0  0  0  0  0  0  0  0  0
    2.2587   -6.3895    2.5342 N   0  0  0  0  0  0  0  0  0  0  0  0
    3.3391   -5.9022    1.7597 C   0  0  0  0  0  0  0  0  0  0  0  0
    4.2971   -6.7153    1.3629 N   0  0  0  0  0  0  0  0  0  0  0  0
    5.4272   -5.8505    0.4858 S   0  0  0  0  0  0  0  0  0  0  0  0
    4.6232   -4.2993    0.6381 C   0  0  0  0  0  0  0  0  0  0  0  0
    4.9915   -3.0360    0.1414 C   0  0  0  0  0  0  0  0  0  0  0  0
    4.1762   -1.9151    0.3942 C   0  0  0  0  0  0  0  0  0  0  0  0
    3.0004   -2.0783    1.1517 C   0  0  0  0  0  0  0  0  0  0  0  0
    2.6446   -3.3501    1.6487 C   0  0  0  0  0  0  0  0  0  0  0  0
    3.4396   -4.4968    1.4016 C   0  0  0  0  0  0  0  0  0  0  0  0
    2.3736   -6.7806    3.8088 C   0  0  0  0  0  0  0  0  0  0  0  0
    3.3933   -6.7213    4.4975 O   0  0  0  0  0  0  0  0  0  0  0  0
   -2.4722   -9.4792    3.0500 H   0  0  0  0  0  0  0  0  0  0  0  0
   -2.6071   -7.7345    3.2699 H   0  0  0  0  0  0  0  0  0  0  0  0
   -1.7781   -8.7154    4.4715 H   0  0  0  0  0  0  0  0  0  0  0  0
   -0.8569   -8.3264    1.5965 H   0  0  0  0  0  0  0  0  0  0  0  0
    0.1188  -10.4412    2.1042 H   0  0  0  0  0  0  0  0  0  0  0  0
    1.6109  -10.7079    4.0180 H   0  0  0  0  0  0  0  0  0  0  0  0
    0.3957   -8.8942    5.6775 H   0  0  0  0  0  0  0  0  0  0  0  0
    2.1230   -8.8430    5.4589 H   0  0  0  0  0  0  0  0  0  0  0  0
   -0.6367   -6.3490    3.3529 H   0  0  0  0  0  0  0  0  0  0  0  0
    5.8971   -2.9313   -0.4359 H   0  0  0  0  0  0  0  0  0  0  0  0
    4.4429   -0.9410    0.0063 H   0  0  0  0  0  0  0  0  0  0  0  0
    2.3570   -1.2274    1.3357 H   0  0  0  0  0  0  0  0  0  0  0  0
    1.7364   -3.4510    2.2239 H   0  0  0  0  0  0  0  0  0  0  0  0
    0.7427   -6.6024    5.1550 H   0  0  0  0  0  0  0  0  0  0  0  0
  1  2  1  0
  1 22  1  0
  1 23  1  0
  1 24  1  0
  2  3  1  0
  2 25  1  6
  2  7  1  0
  3  4  2  0
  3 26  1  0
  4  5  1  0
  4 27  1  0
  5 28  1  0
  5 29  1  0
  5  6  1  0
  6  7  1  0
  6 35  1  1
  6 20  1  0
  7  8  1  0
  7 30  1  1
  8  9  2  0
  8 10  1  0
 10 20  1  0
 10 11  1  0
 11 19  1  0
 11 12  2  0
 12 13  1  0
 13 14  1  0
 14 19  2  0
 14 15  1  0
 15 16  2  0
 15 31  1  0
 16 17  1  0
 16 32  1  0
 17 18  2  0
 17 33  1  0
 18 19  1  0
 18 34  1  0
 20 21  2  0
M  END
>  <i_m_ct_stereo_status>  (300) 
1

>  <s_m_source_file>  (300) 
/var/tmp/pbs.5076255.sched01/tmpk7n3yjou/123nw9z_609.sdf

>  <i_m_source_file_index>  (300) 
10

>  <i_lp_mmshare_version>  (300) 
48012

>  <i_f3d_flags>  (300) 
0

>  <s_epik_input>  (300) 
W0NIMl0xW0NIXT1bQ0hdW0NAQEhdKFtDSDNdKWMoYzEyKWMoW09IXSluKGMyW09IXSktYyhuczMpYyhjMzQpW2NIXVtjSF1bY0hdW2NIXTQ=

>  <s_epik_cmdline>  (300) 
J2VwaWtfcHl0aG9uJywgJy1waHQnLCAnMi4wJywgJy1waCcsICc3LjAnLCAnLXRuJywgJzgnLCAnLW1hJywgJzIwMCcsICctaW1hZScsICc8aW5maWxlLm1hZT4nLCAnLW9tYWUnLCAnPG91dGZpbGUubWFlPic=

>  <r_lp_tautomer_probability>  (300) 
1

>  <r_epik_Ionization_Penalty>  (300) 
3.92338e-08

>  <r_epik_Ionization_Penalty_Charging>  (300) 
0

>  <r_epik_Ionization_Penalty_Neutral>  (300) 
3.92338e-08

>  <r_epik_State_Penalty>  (300) 
-0

>  <r_epik_Charging_Adjusted_Penalty>  (300) 
0

>  <i_epik_Tot_Q>  (300) 
0

>  <i_epik_Tot_abs_Q>  (300) 
0

>  <s_lp_Force_Field>  (300) 
OPLS3e

>  <r_lp_Energy>  (300) 
25.9293

>  <b_lp_Chiralities_Consistent>  (300) 
1

>  <s_lp_Variant>  (300) 
92:0-3

>  <s_i_glide_gridfile>  (300) 
pfpi4k_grid

>  <i_i_glide_lignum>  (300) 
10

>  <i_i_glide_rotatable_bonds>  (300) 
1

>  <r_i_docking_score>  (300) 
-3.42587

>  <r_i_glide_ligand_efficiency>  (300) 
-0.163137

>  <r_i_glide_ligand_efficiency_sa>  (300) 
-0.450082

>  <r_i_glide_ligand_efficiency_ln>  (300) 
-0.847041

>  <r_i_glide_gscore>  (300) 
-3.42587

>  <r_i_glide_lipo>  (300) 
-0.198614

>  <r_i_glide_hbond>  (300) 
-0.16

>  <r_i_glide_metal>  (300) 
-0

>  <r_i_glide_rewards>  (300) 
-1.37481

>  <r_i_glide_evdw>  (300) 
-24.6185

>  <r_i_glide_ecoul>  (300) 
-3.98786

>  <r_i_glide_erotb>  (300) 
0.206133

>  <r_i_glide_esite>  (300) 
-0.0694737

>  <r_i_glide_emodel>  (300) 
-35.3369

>  <r_i_glide_energy>  (300) 
-28.6064

>  <r_i_glide_einternal>  (300) 
0.246794

>  <r_i_glide_intrahb_reward>  (300) 
-0

>  <i_i_glide_confnum>  (300) 
5

>  <i_i_glide_posenum>  (300) 
5

>  <r_i_glide_eff_state_penalty>  (300) 
0

>  <ligand_id>  (300) 
92

>  <original_smiles>  (300) 
CC1C=CCc2c1c(O)n(-c1nsc3ccccc13)c2O

>  <smiles>  (300) 
[H]C1=C([H])C([H])(C([H])([H])[H])C2([H])C(=O)N(c3nsc4c([H])c([H])c([H])c([H])c34)C(=O)C2([H])C1([H])[H]

$$$$
92:2:2
     RDKit          3D

 35 38  0  0  1  0  0  0  0  0999 V2000
    1.9542    4.0011    3.4567 C   0  0  0  0  0  0  0  0  0  0  0  0
    1.5040    2.6741    4.0935 C   0  0  2  0  0  0  0  0  0  0  0  0
    1.9752    1.4992    3.2568 C   0  0  0  0  0  0  0  0  0  0  0  0
    1.3812    0.2977    3.3142 C   0  0  0  0  0  0  0  0  0  0  0  0
    0.2156    0.0276    4.2376 C   0  0  0  0  0  0  0  0  0  0  0  0
   -0.7138    1.2540    4.3667 C   0  0  2  0  0  0  0  0  0  0  0  0
   -0.0372    2.6413    4.3049 C   0  0  1  0  0  0  0  0  0  0  0  0
   -0.4871    3.2965    5.6088 C   0  0  0  0  0  0  0  0  0  0  0  0
   -0.1584    4.4362    5.9418 O   0  0  0  0  0  0  0  0  0  0  0  0
   -1.2769    2.4725    6.3115 N   0  0  0  0  0  0  0  0  0  0  0  0
   -1.8627    2.8171    7.5548 C   0  0  0  0  0  0  0  0  0  0  0  0
   -3.1677    2.9432    7.6793 N   0  0  0  0  0  0  0  0  0  0  0  0
   -3.5487    3.3468    9.2616 S   0  0  0  0  0  0  0  0  0  0  0  0
   -1.8923    3.3331    9.8398 C   0  0  0  0  0  0  0  0  0  0  0  0
   -1.3769    3.5723   11.1246 C   0  0  0  0  0  0  0  0  0  0  0  0
    0.0098    3.4988   11.3559 C   0  0  0  0  0  0  0  0  0  0  0  0
    0.8717    3.1841   10.2883 C   0  0  0  0  0  0  0  0  0  0  0  0
    0.3489    2.9456    9.0039 C   0  0  0  0  0  0  0  0  0  0  0  0
   -1.0457    3.0140    8.7376 C   0  0  0  0  0  0  0  0  0  0  0  0
   -1.4485    1.2905    5.7026 C   0  0  0  0  0  0  0  0  0  0  0  0
   -2.0750    0.3238    6.1493 O   0  0  0  0  0  0  0  0  0  0  0  0
    3.0362    4.0406    3.3152 H   0  0  0  0  0  0  0  0  0  0  0  0
    1.6654    4.8638    4.0587 H   0  0  0  0  0  0  0  0  0  0  0  0
    1.4906    4.1247    2.4795 H   0  0  0  0  0  0  0  0  0  0  0  0
    2.0092    2.5739    5.0563 H   0  0  0  0  0  0  0  0  0  0  0  0
    2.8367    1.6460    2.6187 H   0  0  0  0  0  0  0  0  0  0  0  0
    1.7602   -0.5270    2.7265 H   0  0  0  0  0  0  0  0  0  0  0  0
   -0.3523   -0.8180    3.8494 H   0  0  0  0  0  0  0  0  0  0  0  0
    0.6193   -0.2772    5.2042 H   0  0  0  0  0  0  0  0  0  0  0  0
   -0.5064    3.1992    3.4930 H   0  0  0  0  0  0  0  0  0  0  0  0
   -2.0539    3.7889   11.9345 H   0  0  0  0  0  0  0  0  0  0  0  0
    0.4032    3.6770   12.3498 H   0  0  0  0  0  0  0  0  0  0  0  0
    1.9406    3.1246   10.4543 H   0  0  0  0  0  0  0  0  0  0  0  0
    1.0228    2.7033    8.1972 H   0  0  0  0  0  0  0  0  0  0  0  0
   -1.4639    1.2067    3.5766 H   0  0  0  0  0  0  0  0  0  0  0  0
  1  2  1  0
  1 22  1  0
  1 23  1  0
  1 24  1  0
  2  3  1  0
  2 25  1  1
  2  7  1  0
  3  4  2  0
  3 26  1  0
  4  5  1  0
  4 27  1  0
  5 28  1  0
  5 29  1  0
  5  6  1  0
  6  7  1  0
  6 35  1  6
  6 20  1  0
  7  8  1  0
  7 30  1  6
  8  9  2  0
  8 10  1  0
 10 20  1  0
 10 11  1  0
 11 19  1  0
 11 12  2  0
 12 13  1  0
 13 14  1  0
 14 19  2  0
 14 15  1  0
 15 16  2  0
 15 31  1  0
 16 17  1  0
 16 32  1  0
 17 18  2  0
 17 33  1  0
 18 19  1  0
 18 34  1  0
 20 21  2  0
M  END
>  <i_m_ct_stereo_status>  (301) 
1

>  <s_m_source_file>  (301) 
/var/tmp/pbs.5076255.sched01/tmpk7n3yjou/123nw9z_609.sdf

>  <i_m_source_file_index>  (301) 
10

>  <i_lp_mmshare_version>  (301) 
48012

>  <i_f3d_flags>  (301) 
0

>  <s_epik_input>  (301) 
W0NIMl0xW0NIXT1bQ0hdW0NAQEhdKFtDSDNdKWMoYzEyKWMoW09IXSluKGMyW09IXSktYyhuczMpYyhjMzQpW2NIXVtjSF1bY0hdW2NIXTQ=

>  <s_epik_cmdline>  (301) 
J2VwaWtfcHl0aG9uJywgJy1waHQnLCAnMi4wJywgJy1waCcsICc3LjAnLCAnLXRuJywgJzgnLCAnLW1hJywgJzIwMCcsICctaW1hZScsICc8aW5maWxlLm1hZT4nLCAnLW9tYWUnLCAnPG91dGZpbGUubWFlPic=

>  <r_lp_tautomer_probability>  (301) 
1

>  <r_epik_Ionization_Penalty>  (301) 
3.92338e-08

>  <r_epik_Ionization_Penalty_Charging>  (301) 
0

>  <r_epik_Ionization_Penalty_Neutral>  (301) 
3.92338e-08

>  <r_epik_State_Penalty>  (301) 
-0

>  <r_epik_Charging_Adjusted_Penalty>  (301) 
0

>  <i_epik_Tot_Q>  (301) 
0

>  <i_epik_Tot_abs_Q>  (301) 
0

>  <s_lp_Force_Field>  (301) 
OPLS3e

>  <r_lp_Energy>  (301) 
25.9293

>  <b_lp_Chiralities_Consistent>  (301) 
1

>  <s_lp_Variant>  (301) 
92:0-3

>  <s_i_glide_gridfile>  (301) 
pfpi4k_grid

>  <i_i_glide_lignum>  (301) 
10

>  <i_i_glide_rotatable_bonds>  (301) 
1

>  <r_i_docking_score>  (301) 
-3.41988

>  <r_i_glide_ligand_efficiency>  (301) 
-0.162852

>  <r_i_glide_ligand_efficiency_sa>  (301) 
-0.449295

>  <r_i_glide_ligand_efficiency_ln>  (301) 
-0.845559

>  <r_i_glide_gscore>  (301) 
-3.41988

>  <r_i_glide_lipo>  (301) 
-0.0778701

>  <r_i_glide_hbond>  (301) 
-0.16

>  <r_i_glide_metal>  (301) 
-0

>  <r_i_glide_rewards>  (301) 
-1.39124

>  <r_i_glide_evdw>  (301) 
-23.2731

>  <r_i_glide_ecoul>  (301) 
-5.32813

>  <r_i_glide_erotb>  (301) 
0.206133

>  <r_i_glide_esite>  (301) 
-0.0340307

>  <r_i_glide_emodel>  (301) 
-35.376

>  <r_i_glide_energy>  (301) 
-28.6013

>  <r_i_glide_einternal>  (301) 
0.179476

>  <r_i_glide_intrahb_reward>  (301) 
-0

>  <i_i_glide_confnum>  (301) 
2

>  <i_i_glide_posenum>  (301) 
1

>  <r_i_glide_eff_state_penalty>  (301) 
0

>  <ligand_id>  (301) 
92

>  <original_smiles>  (301) 
CC1C=CCc2c1c(O)n(-c1nsc3ccccc13)c2O

>  <smiles>  (301) 
[H]C1=C([H])C([H])(C([H])([H])[H])C2([H])C(=O)N(c3nsc4c([H])c([H])c([H])c([H])c34)C(=O)C2([H])C1([H])[H]

$$$$
92:3:0
     RDKit          3D

 35 38  0  0  1  0  0  0  0  0999 V2000
    3.3319   -3.3643   -1.8060 C   0  0  0  0  0  0  0  0  0  0  0  0
    3.8551   -3.4498   -0.3675 C   0  0  2  0  0  0  0  0  0  0  0  0
    5.3259   -3.0172   -0.2967 C   0  0  0  0  0  0  0  0  0  0  0  0
    6.2831   -3.6713    0.4155 C   0  0  0  0  0  0  0  0  0  0  0  0
    6.0001   -4.8853    1.2986 C   0  0  0  0  0  0  0  0  0  0  0  0
    4.4882   -4.9315    1.5198 C   0  0  1  0  0  0  0  0  0  0  0  0
    3.7747   -4.8765    0.1843 C   0  0  1  0  0  0  0  0  0  0  0  0
    2.4457   -5.5696    0.5053 C   0  0  0  0  0  0  0  0  0  0  0  0
    1.4263   -5.4574   -0.1895 O   0  0  0  0  0  0  0  0  0  0  0  0
    2.5972   -6.3293    1.6146 N   0  0  0  0  0  0  0  0  0  0  0  0
    1.5962   -7.2320    2.0951 C   0  0  0  0  0  0  0  0  0  0  0  0
    0.3405   -6.8414    2.1972 N   0  0  0  0  0  0  0  0  0  0  0  0
   -0.6087   -8.1311    2.7456 S   0  0  0  0  0  0  0  0  0  0  0  0
    0.7267   -9.2659    2.8723 C   0  0  0  0  0  0  0  0  0  0  0  0
    0.7353  -10.5990    3.3031 C   0  0  0  0  0  0  0  0  0  0  0  0
    1.9281  -11.3261    3.3253 C   0  0  0  0  0  0  0  0  0  0  0  0
    3.1154  -10.7196    2.8833 C   0  0  0  0  0  0  0  0  0  0  0  0
    3.0988   -9.3984    2.4282 C   0  0  0  0  0  0  0  0  0  0  0  0
    1.9141   -8.6104    2.4398 C   0  0  0  0  0  0  0  0  0  0  0  0
    3.7955   -6.0996    2.1955 C   0  0  0  0  0  0  0  0  0  0  0  0
    4.2977   -6.6592    3.1757 O   0  0  0  0  0  0  0  0  0  0  0  0
    3.4199   -2.3593   -2.2166 H   0  0  0  0  0  0  0  0  0  0  0  0
    2.2829   -3.6501   -1.8742 H   0  0  0  0  0  0  0  0  0  0  0  0
    3.8950   -4.0328   -2.4543 H   0  0  0  0  0  0  0  0  0  0  0  0
    3.2757   -2.7764    0.2641 H   0  0  0  0  0  0  0  0  0  0  0  0
    5.5976   -2.1470   -0.8752 H   0  0  0  0  0  0  0  0  0  0  0  0
    7.3083   -3.3254    0.3810 H   0  0  0  0  0  0  0  0  0  0  0  0
    6.3732   -5.7890    0.8184 H   0  0  0  0  0  0  0  0  0  0  0  0
    6.5196   -4.7818    2.2483 H   0  0  0  0  0  0  0  0  0  0  0  0
    4.2762   -5.5490   -0.5136 H   0  0  0  0  0  0  0  0  0  0  0  0
   -0.1839  -11.0647    3.6324 H   0  0  0  0  0  0  0  0  0  0  0  0
    1.9466  -12.3522    3.6707 H   0  0  0  0  0  0  0  0  0  0  0  0
    4.0514  -11.2726    2.8867 H   0  0  0  0  0  0  0  0  0  0  0  0
    4.0301   -8.9807    2.0797 H   0  0  0  0  0  0  0  0  0  0  0  0
    4.2109   -4.0812    2.1433 H   0  0  0  0  0  0  0  0  0  0  0  0
  1  2  1  0
  1 22  1  0
  1 23  1  0
  1 24  1  0
  2  3  1  0
  2 25  1  1
  2  7  1  0
  3  4  2  0
  3 26  1  0
  4  5  1  0
  4 27  1  0
  5 28  1  0
  5 29  1  0
  5  6  1  0
  6  7  1  0
  6 35  1  1
  6 20  1  0
  7  8  1  0
  7 30  1  6
  8  9  2  0
  8 10  1  0
 10 20  1  0
 10 11  1  0
 11 19  1  0
 11 12  2  0
 12 13  1  0
 13 14  1  0
 14 19  2  0
 14 15  1  0
 15 16  2  0
 15 31  1  0
 16 17  1  0
 16 32  1  0
 17 18  2  0
 17 33  1  0
 18 19  1  0
 18 34  1  0
 20 21  2  0
M  END
>  <i_m_ct_stereo_status>  (302) 
1

>  <s_m_source_file>  (302) 
/var/tmp/pbs.5076255.sched01/tmpk7n3yjou/123nw9z_609.sdf

>  <i_m_source_file_index>  (302) 
11

>  <i_lp_mmshare_version>  (302) 
48012

>  <i_f3d_flags>  (302) 
0

>  <s_epik_input>  (302) 
W0NIMl0xW0NIXT1bQ0hdW0NAQEhdKFtDSDNdKWMoYzEyKWMoW09IXSluKGMyW09IXSktYyhuczMpYyhjMzQpW2NIXVtjSF1bY0hdW2NIXTQ=

>  <s_epik_cmdline>  (302) 
J2VwaWtfcHl0aG9uJywgJy1waHQnLCAnMi4wJywgJy1waCcsICc3LjAnLCAnLXRuJywgJzgnLCAnLW1hJywgJzIwMCcsICctaW1hZScsICc8aW5maWxlLm1hZT4nLCAnLW9tYWUnLCAnPG91dGZpbGUubWFlPic=

>  <r_lp_tautomer_probability>  (302) 
1

>  <r_epik_Ionization_Penalty>  (302) 
3.92338e-08

>  <r_epik_Ionization_Penalty_Charging>  (302) 
0

>  <r_epik_Ionization_Penalty_Neutral>  (302) 
3.92338e-08

>  <r_epik_State_Penalty>  (302) 
-0

>  <r_epik_Charging_Adjusted_Penalty>  (302) 
0

>  <i_epik_Tot_Q>  (302) 
0

>  <i_epik_Tot_abs_Q>  (302) 
0

>  <s_lp_Force_Field>  (302) 
OPLS3e

>  <r_lp_Energy>  (302) 
29.0562

>  <b_lp_Chiralities_Consistent>  (302) 
1

>  <s_lp_Variant>  (302) 
92:0-4

>  <s_i_glide_gridfile>  (302) 
pfpi4k_grid

>  <i_i_glide_lignum>  (302) 
11

>  <i_i_glide_rotatable_bonds>  (302) 
1

>  <r_i_docking_score>  (302) 
-3.92183

>  <r_i_glide_ligand_efficiency>  (302) 
-0.186754

>  <r_i_glide_ligand_efficiency_sa>  (302) 
-0.51524

>  <r_i_glide_ligand_efficiency_ln>  (302) 
-0.969665

>  <r_i_glide_gscore>  (302) 
-3.92183

>  <r_i_glide_lipo>  (302) 
-0.514336

>  <r_i_glide_hbond>  (302) 
-0.192345

>  <r_i_glide_metal>  (302) 
-0

>  <r_i_glide_rewards>  (302) 
-1.38761

>  <r_i_glide_evdw>  (302) 
-26.206

>  <r_i_glide_ecoul>  (302) 
-4.48206

>  <r_i_glide_erotb>  (302) 
0.206133

>  <r_i_glide_esite>  (302) 
-0.0510678

>  <r_i_glide_emodel>  (302) 
-38.1339

>  <r_i_glide_energy>  (302) 
-30.688

>  <r_i_glide_einternal>  (302) 
1.07751

>  <r_i_glide_intrahb_reward>  (302) 
-0

>  <i_i_glide_confnum>  (302) 
1

>  <i_i_glide_posenum>  (302) 
6

>  <r_i_glide_eff_state_penalty>  (302) 
0

>  <ligand_id>  (302) 
92

>  <original_smiles>  (302) 
CC1C=CCc2c1c(O)n(-c1nsc3ccccc13)c2O

>  <smiles>  (302) 
[H]C1=C([H])C([H])(C([H])([H])[H])C2([H])C(=O)N(c3nsc4c([H])c([H])c([H])c([H])c34)C(=O)C2([H])C1([H])[H]

$$$$
92:3:1
     RDKit          3D

 35 38  0  0  1  0  0  0  0  0999 V2000
    2.4953   -3.2354   -1.6759 C   0  0  0  0  0  0  0  0  0  0  0  0
    3.2810   -3.2069   -0.3607 C   0  0  2  0  0  0  0  0  0  0  0  0
    4.5457   -2.3514   -0.5048 C   0  0  0  0  0  0  0  0  0  0  0  0
    5.7699   -2.7184   -0.0494 C   0  0  0  0  0  0  0  0  0  0  0  0
    6.0361   -4.0080    0.7279 C   0  0  0  0  0  0  0  0  0  0  0  0
    4.6883   -4.5435    1.2178 C   0  0  1  0  0  0  0  0  0  0  0  0
    3.7165   -4.6161    0.0604 C   0  0  1  0  0  0  0  0  0  0  0  0
    2.7416   -5.6887    0.5291 C   0  0  0  0  0  0  0  0  0  0  0  0
    1.5876   -5.8236    0.1065 O   0  0  0  0  0  0  0  0  0  0  0  0
    3.3581   -6.4481    1.4490 N   0  0  0  0  0  0  0  0  0  0  0  0
    2.8340   -7.6595    1.9479 C   0  0  0  0  0  0  0  0  0  0  0  0
    3.4578   -8.8009    1.7442 N   0  0  0  0  0  0  0  0  0  0  0  0
    2.6114  -10.0423    2.4861 S   0  0  0  0  0  0  0  0  0  0  0  0
    1.3266   -9.0233    3.1046 C   0  0  0  0  0  0  0  0  0  0  0  0
    0.1937   -9.3557    3.8629 C   0  0  0  0  0  0  0  0  0  0  0  0
   -0.7063   -8.3518    4.2572 C   0  0  0  0  0  0  0  0  0  0  0  0
   -0.4599   -7.0153    3.8948 C   0  0  0  0  0  0  0  0  0  0  0  0
    0.6796   -6.6877    3.1364 C   0  0  0  0  0  0  0  0  0  0  0  0
    1.6010   -7.6802    2.7135 C   0  0  0  0  0  0  0  0  0  0  0  0
    4.5448   -5.9290    1.8189 C   0  0  0  0  0  0  0  0  0  0  0  0
    5.3817   -6.4225    2.5744 O   0  0  0  0  0  0  0  0  0  0  0  0
    2.2185   -2.2317   -1.9913 H   0  0  0  0  0  0  0  0  0  0  0  0
    1.5706   -3.8044   -1.5795 H   0  0  0  0  0  0  0  0  0  0  0  0
    3.0782   -3.6844   -2.4795 H   0  0  0  0  0  0  0  0  0  0  0  0
    2.6599   -2.7621    0.4182 H   0  0  0  0  0  0  0  0  0  0  0  0
    4.4292   -1.4105   -1.0220 H   0  0  0  0  0  0  0  0  0  0  0  0
    6.6209   -2.0763   -0.2248 H   0  0  0  0  0  0  0  0  0  0  0  0
    6.5533   -4.7256    0.0907 H   0  0  0  0  0  0  0  0  0  0  0  0
    6.6847   -3.7946    1.5766 H   0  0  0  0  0  0  0  0  0  0  0  0
    4.2258   -5.0675   -0.7946 H   0  0  0  0  0  0  0  0  0  0  0  0
    0.0144  -10.3819    4.1419 H   0  0  0  0  0  0  0  0  0  0  0  0
   -1.5793   -8.6140    4.8416 H   0  0  0  0  0  0  0  0  0  0  0  0
   -1.1471   -6.2422    4.2082 H   0  0  0  0  0  0  0  0  0  0  0  0
    0.8633   -5.6567    2.8750 H   0  0  0  0  0  0  0  0  0  0  0  0
    4.3051   -3.8549    1.9746 H   0  0  0  0  0  0  0  0  0  0  0  0
  1  2  1  0
  1 22  1  0
  1 23  1  0
  1 24  1  0
  2  3  1  0
  2 25  1  1
  2  7  1  0
  3  4  2  0
  3 26  1  0
  4  5  1  0
  4 27  1  0
  5 28  1  0
  5 29  1  0
  5  6  1  0
  6  7  1  0
  6 35  1  1
  6 20  1  0
  7  8  1  0
  7 30  1  6
  8  9  2  0
  8 10  1  0
 10 20  1  0
 10 11  1  0
 11 19  1  0
 11 12  2  0
 12 13  1  0
 13 14  1  0
 14 19  2  0
 14 15  1  0
 15 16  2  0
 15 31  1  0
 16 17  1  0
 16 32  1  0
 17 18  2  0
 17 33  1  0
 18 19  1  0
 18 34  1  0
 20 21  2  0
M  END
>  <i_m_ct_stereo_status>  (303) 
1

>  <s_m_source_file>  (303) 
/var/tmp/pbs.5076255.sched01/tmpk7n3yjou/123nw9z_609.sdf

>  <i_m_source_file_index>  (303) 
11

>  <i_lp_mmshare_version>  (303) 
48012

>  <i_f3d_flags>  (303) 
0

>  <s_epik_input>  (303) 
W0NIMl0xW0NIXT1bQ0hdW0NAQEhdKFtDSDNdKWMoYzEyKWMoW09IXSluKGMyW09IXSktYyhuczMpYyhjMzQpW2NIXVtjSF1bY0hdW2NIXTQ=

>  <s_epik_cmdline>  (303) 
J2VwaWtfcHl0aG9uJywgJy1waHQnLCAnMi4wJywgJy1waCcsICc3LjAnLCAnLXRuJywgJzgnLCAnLW1hJywgJzIwMCcsICctaW1hZScsICc8aW5maWxlLm1hZT4nLCAnLW9tYWUnLCAnPG91dGZpbGUubWFlPic=

>  <r_lp_tautomer_probability>  (303) 
1

>  <r_epik_Ionization_Penalty>  (303) 
3.92338e-08

>  <r_epik_Ionization_Penalty_Charging>  (303) 
0

>  <r_epik_Ionization_Penalty_Neutral>  (303) 
3.92338e-08

>  <r_epik_State_Penalty>  (303) 
-0

>  <r_epik_Charging_Adjusted_Penalty>  (303) 
0

>  <i_epik_Tot_Q>  (303) 
0

>  <i_epik_Tot_abs_Q>  (303) 
0

>  <s_lp_Force_Field>  (303) 
OPLS3e

>  <r_lp_Energy>  (303) 
29.0562

>  <b_lp_Chiralities_Consistent>  (303) 
1

>  <s_lp_Variant>  (303) 
92:0-4

>  <s_i_glide_gridfile>  (303) 
pfpi4k_grid

>  <i_i_glide_lignum>  (303) 
11

>  <i_i_glide_rotatable_bonds>  (303) 
1

>  <r_i_docking_score>  (303) 
-3.51022

>  <r_i_glide_ligand_efficiency>  (303) 
-0.167153

>  <r_i_glide_ligand_efficiency_sa>  (303) 
-0.461163

>  <r_i_glide_ligand_efficiency_ln>  (303) 
-0.867894

>  <r_i_glide_gscore>  (303) 
-3.51022

>  <r_i_glide_lipo>  (303) 
-0.252199

>  <r_i_glide_hbond>  (303) 
-0.114507

>  <r_i_glide_metal>  (303) 
-0

>  <r_i_glide_rewards>  (303) 
-1.49236

>  <r_i_glide_evdw>  (303) 
-26.1701

>  <r_i_glide_ecoul>  (303) 
-3.44425

>  <r_i_glide_erotb>  (303) 
0.206133

>  <r_i_glide_esite>  (303) 
-0.0321367

>  <r_i_glide_emodel>  (303) 
-36.7449

>  <r_i_glide_energy>  (303) 
-29.6144

>  <r_i_glide_einternal>  (303) 
0.208344

>  <r_i_glide_intrahb_reward>  (303) 
-0

>  <i_i_glide_confnum>  (303) 
1

>  <i_i_glide_posenum>  (303) 
1

>  <r_i_glide_eff_state_penalty>  (303) 
0

>  <ligand_id>  (303) 
92

>  <original_smiles>  (303) 
CC1C=CCc2c1c(O)n(-c1nsc3ccccc13)c2O

>  <smiles>  (303) 
[H]C1=C([H])C([H])(C([H])([H])[H])C2([H])C(=O)N(c3nsc4c([H])c([H])c([H])c([H])c34)C(=O)C2([H])C1([H])[H]

$$$$
92:3:2
     RDKit          3D

 35 38  0  0  1  0  0  0  0  0999 V2000
    1.7819    4.3950    3.5897 C   0  0  0  0  0  0  0  0  0  0  0  0
    1.5118    2.9504    4.0366 C   0  0  2  0  0  0  0  0  0  0  0  0
    1.6026    1.9818    2.8498 C   0  0  0  0  0  0  0  0  0  0  0  0
    0.7159    0.9805    2.6123 C   0  0  0  0  0  0  0  0  0  0  0  0
   -0.4564    0.6438    3.5374 C   0  0  0  0  0  0  0  0  0  0  0  0
   -0.2026    1.3279    4.8803 C   0  0  1  0  0  0  0  0  0  0  0  0
    0.1085    2.7909    4.6448 C   0  0  1  0  0  0  0  0  0  0  0  0
   -0.3032    3.4153    5.9680 C   0  0  0  0  0  0  0  0  0  0  0  0
    0.0812    4.5192    6.3511 O   0  0  0  0  0  0  0  0  0  0  0  0
   -1.1694    2.5944    6.5908 N   0  0  0  0  0  0  0  0  0  0  0  0
   -1.8969    2.9477    7.7569 C   0  0  0  0  0  0  0  0  0  0  0  0
   -3.2150    2.9311    7.7634 N   0  0  0  0  0  0  0  0  0  0  0  0
   -3.7838    3.3481    9.2806 S   0  0  0  0  0  0  0  0  0  0  0  0
   -2.1979    3.6008    9.9876 C   0  0  0  0  0  0  0  0  0  0  0  0
   -1.8394    3.9928   11.2847 C   0  0  0  0  0  0  0  0  0  0  0  0
   -0.4853    4.1203   11.6378 C   0  0  0  0  0  0  0  0  0  0  0  0
    0.5074    3.8470   10.6764 C   0  0  0  0  0  0  0  0  0  0  0  0
    0.1389    3.4496    9.3783 C   0  0  0  0  0  0  0  0  0  0  0  0
   -1.2205    3.3218    8.9875 C   0  0  0  0  0  0  0  0  0  0  0  0
   -1.2648    1.4032    5.9674 C   0  0  0  0  0  0  0  0  0  0  0  0
   -2.0107    0.4632    6.2507 O   0  0  0  0  0  0  0  0  0  0  0  0
    2.7513    4.4934    3.1023 H   0  0  0  0  0  0  0  0  0  0  0  0
    1.7629    5.0943    4.4240 H   0  0  0  0  0  0  0  0  0  0  0  0
    1.0226    4.7262    2.8780 H   0  0  0  0  0  0  0  0  0  0  0  0
    2.2694    2.6590    4.7652 H   0  0  0  0  0  0  0  0  0  0  0  0
    2.4155    2.1423    2.1559 H   0  0  0  0  0  0  0  0  0  0  0  0
    0.8242    0.3740    1.7224 H   0  0  0  0  0  0  0  0  0  0  0  0
   -1.3895    0.9751    3.0811 H   0  0  0  0  0  0  0  0  0  0  0  0
   -0.5178   -0.4341    3.6738 H   0  0  0  0  0  0  0  0  0  0  0  0
   -0.6073    3.2015    3.9299 H   0  0  0  0  0  0  0  0  0  0  0  0
   -2.6129    4.1707   12.0146 H   0  0  0  0  0  0  0  0  0  0  0  0
   -0.2118    4.4159   12.6429 H   0  0  0  0  0  0  0  0  0  0  0  0
    1.5551    3.9432   10.9346 H   0  0  0  0  0  0  0  0  0  0  0  0
    0.9168    3.2445    8.6602 H   0  0  0  0  0  0  0  0  0  0  0  0
    0.6562    0.8437    5.3503 H   0  0  0  0  0  0  0  0  0  0  0  0
  1  2  1  0
  1 22  1  0
  1 23  1  0
  1 24  1  0
  2  3  1  0
  2 25  1  1
  2  7  1  0
  3  4  2  0
  3 26  1  0
  4  5  1  0
  4 27  1  0
  5 28  1  0
  5 29  1  0
  5  6  1  0
  6  7  1  0
  6 35  1  1
  6 20  1  0
  7  8  1  0
  7 30  1  6
  8  9  2  0
  8 10  1  0
 10 20  1  0
 10 11  1  0
 11 19  1  0
 11 12  2  0
 12 13  1  0
 13 14  1  0
 14 19  2  0
 14 15  1  0
 15 16  2  0
 15 31  1  0
 16 17  1  0
 16 32  1  0
 17 18  2  0
 17 33  1  0
 18 19  1  0
 18 34  1  0
 20 21  2  0
M  END
>  <i_m_ct_stereo_status>  (304) 
1

>  <s_m_source_file>  (304) 
/var/tmp/pbs.5076255.sched01/tmpk7n3yjou/123nw9z_609.sdf

>  <i_m_source_file_index>  (304) 
11

>  <i_lp_mmshare_version>  (304) 
48012

>  <i_f3d_flags>  (304) 
0

>  <s_epik_input>  (304) 
W0NIMl0xW0NIXT1bQ0hdW0NAQEhdKFtDSDNdKWMoYzEyKWMoW09IXSluKGMyW09IXSktYyhuczMpYyhjMzQpW2NIXVtjSF1bY0hdW2NIXTQ=

>  <s_epik_cmdline>  (304) 
J2VwaWtfcHl0aG9uJywgJy1waHQnLCAnMi4wJywgJy1waCcsICc3LjAnLCAnLXRuJywgJzgnLCAnLW1hJywgJzIwMCcsICctaW1hZScsICc8aW5maWxlLm1hZT4nLCAnLW9tYWUnLCAnPG91dGZpbGUubWFlPic=

>  <r_lp_tautomer_probability>  (304) 
1

>  <r_epik_Ionization_Penalty>  (304) 
3.92338e-08

>  <r_epik_Ionization_Penalty_Charging>  (304) 
0

>  <r_epik_Ionization_Penalty_Neutral>  (304) 
3.92338e-08

>  <r_epik_State_Penalty>  (304) 
-0

>  <r_epik_Charging_Adjusted_Penalty>  (304) 
0

>  <i_epik_Tot_Q>  (304) 
0

>  <i_epik_Tot_abs_Q>  (304) 
0

>  <s_lp_Force_Field>  (304) 
OPLS3e

>  <r_lp_Energy>  (304) 
29.0562

>  <b_lp_Chiralities_Consistent>  (304) 
1

>  <s_lp_Variant>  (304) 
92:0-4

>  <s_i_glide_gridfile>  (304) 
pfpi4k_grid

>  <i_i_glide_lignum>  (304) 
11

>  <i_i_glide_rotatable_bonds>  (304) 
1

>  <r_i_docking_score>  (304) 
-3.40621

>  <r_i_glide_ligand_efficiency>  (304) 
-0.1622

>  <r_i_glide_ligand_efficiency_sa>  (304) 
-0.447499

>  <r_i_glide_ligand_efficiency_ln>  (304) 
-0.842179

>  <r_i_glide_gscore>  (304) 
-3.40621

>  <r_i_glide_lipo>  (304) 
-0.120684

>  <r_i_glide_hbond>  (304) 
-0.16

>  <r_i_glide_metal>  (304) 
-0

>  <r_i_glide_rewards>  (304) 
-1.3939

>  <r_i_glide_evdw>  (304) 
-24.3769

>  <r_i_glide_ecoul>  (304) 
-4.60914

>  <r_i_glide_erotb>  (304) 
0.206133

>  <r_i_glide_esite>  (304) 
-0.0275426

>  <r_i_glide_emodel>  (304) 
-35.9056

>  <r_i_glide_energy>  (304) 
-28.986

>  <r_i_glide_einternal>  (304) 
0.2177

>  <r_i_glide_intrahb_reward>  (304) 
-0

>  <i_i_glide_confnum>  (304) 
4

>  <i_i_glide_posenum>  (304) 
33

>  <r_i_glide_eff_state_penalty>  (304) 
0

>  <ligand_id>  (304) 
92

>  <original_smiles>  (304) 
CC1C=CCc2c1c(O)n(-c1nsc3ccccc13)c2O

>  <smiles>  (304) 
[H]C1=C([H])C([H])(C([H])([H])[H])C2([H])C(=O)N(c3nsc4c([H])c([H])c([H])c([H])c34)C(=O)C2([H])C1([H])[H]

$$$$
94:0:0
     RDKit          3D

 55 59  0  0  1  0  0  0  0  0999 V2000
    1.5471   -6.6398    1.2232 C   0  0  0  0  0  0  0  0  0  0  0  0
    2.9997   -6.1168    1.2004 C   0  0  2  0  0  0  0  0  0  0  0  0
    3.9662   -7.1902    1.7058 C   0  0  0  0  0  0  0  0  0  0  0  0
    5.4081   -6.7409    1.5672 C   0  0  0  0  0  0  0  0  0  0  0  0
    6.2850   -7.5555    1.2764 O   0  0  0  0  0  0  0  0  0  0  0  0
    5.7696   -5.2674    1.8370 C   0  0  0  0  0  0  0  0  0  0  0  0
    6.9366   -5.0409    2.1571 O   0  0  0  0  0  0  0  0  0  0  0  0
    4.7126   -4.1059    1.6937 C   0  0  1  0  0  0  0  0  0  0  0  0
    3.2299   -4.7210    1.9063 C   0  0  2  0  0  0  0  0  0  0  0  0
    2.7246   -4.9237    3.3815 C   0  0  0  0  0  0  0  0  0  0  0  0
    2.5363   -3.7316    4.3324 C   0  0  0  0  0  0  0  0  0  0  0  0
    3.7196   -2.7822    4.4344 C   0  0  1  0  0  0  0  0  0  0  0  0
    5.1194   -3.3725    4.3405 C   0  0  1  0  0  0  0  0  0  0  0  0
    5.3636   -4.6702    4.8392 O   0  0  0  0  0  0  0  0  0  0  0  0
    5.0916   -3.0752    2.8189 C   0  0  2  0  0  0  0  0  0  0  0  0
    4.1385   -1.9377    3.2159 C   0  0  1  0  0  0  0  0  0  0  0  0
    3.0570   -1.4836    2.2844 C   0  0  0  0  0  0  0  0  0  0  0  0
    1.9288   -1.1980    2.6838 O   0  0  0  0  0  0  0  0  0  0  0  0
    3.3623   -1.2877    0.8694 C   0  0  0  0  0  0  0  0  0  0  0  0
    4.1465   -2.0061    0.0246 C   0  0  0  0  0  0  0  0  0  0  0  0
    4.2805   -1.4297   -1.3985 C   0  0  0  0  0  0  0  0  0  0  0  0
    3.9354   -2.4188   -2.5126 C   0  0  1  0  0  0  0  0  0  0  0  0
    4.1995   -1.8420   -3.7764 O   0  0  0  0  0  0  0  0  0  0  0  0
    4.7358   -3.7061   -2.3558 C   0  0  0  0  0  0  0  0  0  0  0  0
    4.5441   -4.2579   -0.9304 C   0  0  0  0  0  0  0  0  0  0  0  0
    4.9441   -3.3333    0.2600 C   0  0  2  0  0  0  0  0  0  0  0  0
    6.4576   -2.9681    0.0316 C   0  0  0  0  0  0  0  0  0  0  0  0
    1.2539   -7.0530    2.1913 H   0  0  0  0  0  0  0  0  0  0  0  0
    1.4128   -7.4445    0.4970 H   0  0  0  0  0  0  0  0  0  0  0  0
    0.8431   -5.8557    0.9534 H   0  0  0  0  0  0  0  0  0  0  0  0
    3.1987   -6.0701    0.1411 H   0  0  0  0  0  0  0  0  0  0  0  0
    3.7754   -7.4535    2.7468 H   0  0  0  0  0  0  0  0  0  0  0  0
    3.8457   -8.1032    1.1204 H   0  0  0  0  0  0  0  0  0  0  0  0
    2.5316   -4.0338    1.4329 H   0  0  0  0  0  0  0  0  0  0  0  0
    1.7230   -5.3431    3.3608 H   0  0  0  0  0  0  0  0  0  0  0  0
    3.3143   -5.6875    3.8828 H   0  0  0  0  0  0  0  0  0  0  0  0
    1.6282   -3.1913    4.0783 H   0  0  0  0  0  0  0  0  0  0  0  0
    2.3276   -4.1308    5.3234 H   0  0  0  0  0  0  0  0  0  0  0  0
    3.6462   -2.1393    5.3141 H   0  0  0  0  0  0  0  0  0  0  0  0
    5.8147   -2.6939    4.8459 H   0  0  0  0  0  0  0  0  0  0  0  0
    4.7388   -5.2483    4.4312 H   0  0  0  0  0  0  0  0  0  0  0  0
    6.0522   -2.6077    2.6129 H   0  0  0  0  0  0  0  0  0  0  0  0
    4.7222   -1.0864    3.5745 H   0  0  0  0  0  0  0  0  0  0  0  0
    2.8575   -0.4279    0.4576 H   0  0  0  0  0  0  0  0  0  0  0  0
    3.6042   -0.5913   -1.5284 H   0  0  0  0  0  0  0  0  0  0  0  0
    5.2812   -1.0205   -1.5435 H   0  0  0  0  0  0  0  0  0  0  0  0
    2.8690   -2.6454   -2.4689 H   0  0  0  0  0  0  0  0  0  0  0  0
    3.5931   -1.1269   -3.9091 H   0  0  0  0  0  0  0  0  0  0  0  0
    4.3565   -4.4229   -3.0855 H   0  0  0  0  0  0  0  0  0  0  0  0
    5.7855   -3.5716   -2.6131 H   0  0  0  0  0  0  0  0  0  0  0  0
    3.4656   -4.3904   -0.8737 H   0  0  0  0  0  0  0  0  0  0  0  0
    5.0290   -5.2298   -0.8743 H   0  0  0  0  0  0  0  0  0  0  0  0
    7.1184   -3.8304    0.0362 H   0  0  0  0  0  0  0  0  0  0  0  0
    6.8388   -2.2335    0.7391 H   0  0  0  0  0  0  0  0  0  0  0  0
    6.6466   -2.5267   -0.9417 H   0  0  0  0  0  0  0  0  0  0  0  0
  1  2  1  0
  1 28  1  0
  1 29  1  0
  1 30  1  0
  2  9  1  0
  2  3  1  0
  2 31  1  6
  3  4  1  0
  3 32  1  0
  3 33  1  0
  4  5  2  0
  4  6  1  0
  6  7  2  0
  8  6  1  6
  8 15  1  0
  8 26  1  0
  8  9  1  0
  9 10  1  0
  9 34  1  6
 10 11  1  0
 10 35  1  0
 10 36  1  0
 11 12  1  0
 11 37  1  0
 11 38  1  0
 12 16  1  0
 12 13  1  0
 12 39  1  1
 13 14  1  0
 13 15  1  0
 13 40  1  1
 14 41  1  0
 15 16  1  0
 15 42  1  6
 16 17  1  0
 16 43  1  1
 17 18  2  0
 17 19  1  0
 19 20  2  0
 19 44  1  0
 20 26  1  0
 20 21  1  0
 21 22  1  0
 21 45  1  0
 21 46  1  0
 22 23  1  0
 22 24  1  0
 22 47  1  6
 23 48  1  0
 24 25  1  0
 24 49  1  0
 24 50  1  0
 25 26  1  0
 25 51  1  0
 25 52  1  0
 26 27  1  6
 27 53  1  0
 27 54  1  0
 27 55  1  0
M  END
>  <i_m_ct_stereo_status>  (305) 
1

>  <s_m_source_file>  (305) 
/var/tmp/pbs.5076255.sched01/tmpk7n3yjou/123nw9z_609.sdf

>  <i_m_source_file_index>  (305) 
13

>  <i_lp_mmshare_version>  (305) 
48012

>  <i_f3d_flags>  (305) 
0

>  <s_epik_input>  (305) 
Tz1DMUMoPU8pW0NIMl1bQ0BASF0oW0NIM10pW0NASF0oW0NAXTEyMylbQ0gyXVtDSDJdW0NAQEhdNFtDQEBIXShbQ0BIXTJbQ0BASF00W09IXSlDKD1PKVtDSF09QzVbQ0BdMyhbQ0gzXSlbQ0gyXVtDSDJdW0NAQEhdKFtDSDJdNSlbT0hd

>  <s_epik_cmdline>  (305) 
J2VwaWtfcHl0aG9uJywgJy1waHQnLCAnMi4wJywgJy1waCcsICc3LjAnLCAnLXRuJywgJzgnLCAnLW1hJywgJzIwMCcsICctaW1hZScsICc8aW5maWxlLm1hZT4nLCAnLW9tYWUnLCAnPG91dGZpbGUubWFlPic=

>  <r_lp_tautomer_probability>  (305) 
1

>  <r_epik_Ionization_Penalty>  (305) 
2.50833e-07

>  <r_epik_Ionization_Penalty_Charging>  (305) 
0

>  <r_epik_Ionization_Penalty_Neutral>  (305) 
2.50833e-07

>  <r_epik_State_Penalty>  (305) 
-0

>  <r_epik_Charging_Adjusted_Penalty>  (305) 
0

>  <i_epik_Tot_Q>  (305) 
0

>  <i_epik_Tot_abs_Q>  (305) 
0

>  <s_lp_Force_Field>  (305) 
OPLS3e

>  <r_lp_Energy>  (305) 
69.5697

>  <b_lp_Chiralities_Consistent>  (305) 
1

>  <s_lp_Variant>  (305) 
94:0-1

>  <s_i_glide_gridfile>  (305) 
pfpi4k_grid

>  <i_i_glide_lignum>  (305) 
13

>  <i_i_glide_rotatable_bonds>  (305) 
2

>  <r_i_docking_score>  (305) 
-3.11309

>  <r_i_glide_ligand_efficiency>  (305) 
-0.1153

>  <r_i_glide_ligand_efficiency_sa>  (305) 
-0.345899

>  <r_i_glide_ligand_efficiency_ln>  (305) 
-0.724676

>  <r_i_glide_gscore>  (305) 
-3.11309

>  <r_i_glide_lipo>  (305) 
-0.325574

>  <r_i_glide_hbond>  (305) 
-0.000517624

>  <r_i_glide_metal>  (305) 
-0

>  <r_i_glide_rewards>  (305) 
-1.03692

>  <r_i_glide_evdw>  (305) 
-27.4933

>  <r_i_glide_ecoul>  (305) 
-2.45233

>  <r_i_glide_erotb>  (305) 
0

>  <r_i_glide_esite>  (305) 
-0.00756938

>  <r_i_glide_emodel>  (305) 
-35.1766

>  <r_i_glide_energy>  (305) 
-29.9456

>  <r_i_glide_einternal>  (305) 
0.350983

>  <r_i_glide_intrahb_reward>  (305) 
-0

>  <i_i_glide_confnum>  (305) 
1

>  <i_i_glide_posenum>  (305) 
7

>  <r_i_glide_eff_state_penalty>  (305) 
0

>  <ligand_id>  (305) 
94

>  <original_smiles>  (305) 
CC1CC(=O)C(=O)C23C1CCC1C(O)C2C1C(=O)C=C1CC(O)CCC13C

>  <smiles>  (305) 
[H]OC1([H])C([H])([H])C2=C([H])C(=O)C3([H])C4([H])C([H])([H])C([H])([H])C5([H])C([H])(C([H])([H])[H])C([H])([H])C(=O)C(=O)C5(C3([H])C4([H])O[H])C2(C([H])([H])[H])C([H])([H])C1([H])[H]

$$$$
94:0:1
     RDKit          3D

 55 59  0  0  1  0  0  0  0  0999 V2000
    1.5107   -6.6421    1.2215 C   0  0  0  0  0  0  0  0  0  0  0  0
    2.9643   -6.1207    1.2131 C   0  0  2  0  0  0  0  0  0  0  0  0
    3.9214   -7.1950    1.7362 C   0  0  0  0  0  0  0  0  0  0  0  0
    5.3629   -6.7489    1.6128 C   0  0  0  0  0  0  0  0  0  0  0  0
    6.2450   -7.5647    1.3329 O   0  0  0  0  0  0  0  0  0  0  0  0
    5.7238   -5.2781    1.8889 C   0  0  0  0  0  0  0  0  0  0  0  0
    6.8794   -5.0616    2.2518 O   0  0  0  0  0  0  0  0  0  0  0  0
    4.6739   -4.1113    1.7185 C   0  0  1  0  0  0  0  0  0  0  0  0
    3.1883   -4.7220    1.9150 C   0  0  2  0  0  0  0  0  0  0  0  0
    2.6700   -4.9167    3.3842 C   0  0  0  0  0  0  0  0  0  0  0  0
    2.4773   -3.7193    4.3271 C   0  0  0  0  0  0  0  0  0  0  0  0
    3.6614   -2.7708    4.4385 C   0  0  1  0  0  0  0  0  0  0  0  0
    5.0631   -3.3682    4.3656 C   0  0  1  0  0  0  0  0  0  0  0  0
    5.2853   -4.6689    4.8668 O   0  0  0  0  0  0  0  0  0  0  0  0
    5.0443   -3.0744    2.8380 C   0  0  2  0  0  0  0  0  0  0  0  0
    4.0929   -1.9335    3.2199 C   0  0  1  0  0  0  0  0  0  0  0  0
    3.0169   -1.4842    2.2777 C   0  0  0  0  0  0  0  0  0  0  0  0
    1.8845   -1.1984    2.6628 O   0  0  0  0  0  0  0  0  0  0  0  0
    3.3377   -1.2971    0.8642 C   0  0  0  0  0  0  0  0  0  0  0  0
    4.1300   -2.0179    0.0327 C   0  0  0  0  0  0  0  0  0  0  0  0
    4.2786   -1.4496   -1.3945 C   0  0  0  0  0  0  0  0  0  0  0  0
    3.9434   -2.4447   -2.5070 C   0  0  1  0  0  0  0  0  0  0  0  0
    4.2106   -1.8731   -3.7740 O   0  0  0  0  0  0  0  0  0  0  0  0
    4.7452   -3.7299   -2.3357 C   0  0  0  0  0  0  0  0  0  0  0  0
    4.5363   -4.2696   -0.9081 C   0  0  0  0  0  0  0  0  0  0  0  0
    4.9248   -3.3451    0.2844 C   0  0  2  0  0  0  0  0  0  0  0  0
    6.4408   -2.9865    0.0705 C   0  0  0  0  0  0  0  0  0  0  0  0
    1.2075   -7.0489    2.1890 H   0  0  0  0  0  0  0  0  0  0  0  0
    1.3828   -7.4502    0.4981 H   0  0  0  0  0  0  0  0  0  0  0  0
    0.8123   -5.8550    0.9402 H   0  0  0  0  0  0  0  0  0  0  0  0
    3.1763   -6.0806    0.1560 H   0  0  0  0  0  0  0  0  0  0  0  0
    3.7199   -7.4495    2.7769 H   0  0  0  0  0  0  0  0  0  0  0  0
    3.8068   -8.1112    1.1544 H   0  0  0  0  0  0  0  0  0  0  0  0
    2.4960   -4.0363    1.4311 H   0  0  0  0  0  0  0  0  0  0  0  0
    1.6714   -5.3420    3.3616 H   0  0  0  0  0  0  0  0  0  0  0  0
    3.2645   -5.6685    3.8979 H   0  0  0  0  0  0  0  0  0  0  0  0
    1.5716   -3.1806    4.0623 H   0  0  0  0  0  0  0  0  0  0  0  0
    2.2598   -4.1149    5.3175 H   0  0  0  0  0  0  0  0  0  0  0  0
    3.5787   -2.1221    5.3122 H   0  0  0  0  0  0  0  0  0  0  0  0
    5.7679   -2.6989    4.8682 H   0  0  0  0  0  0  0  0  0  0  0  0
    6.2006   -4.8700    4.7431 H   0  0  0  0  0  0  0  0  0  0  0  0
    6.0055   -2.6063    2.6362 H   0  0  0  0  0  0  0  0  0  0  0  0
    4.6725   -1.0797    3.5813 H   0  0  0  0  0  0  0  0  0  0  0  0
    2.8379   -0.4397    0.4430 H   0  0  0  0  0  0  0  0  0  0  0  0
    3.6001   -0.6146   -1.5340 H   0  0  0  0  0  0  0  0  0  0  0  0
    5.2803   -1.0423   -1.5312 H   0  0  0  0  0  0  0  0  0  0  0  0
    2.8766   -2.6759   -2.4695 H   0  0  0  0  0  0  0  0  0  0  0  0
    3.6177   -1.1466   -3.9023 H   0  0  0  0  0  0  0  0  0  0  0  0
    4.3773   -4.4541   -3.0642 H   0  0  0  0  0  0  0  0  0  0  0  0
    5.7985   -3.5976   -2.5795 H   0  0  0  0  0  0  0  0  0  0  0  0
    3.4579   -4.4042   -0.8616 H   0  0  0  0  0  0  0  0  0  0  0  0
    5.0189   -5.2413   -0.8401 H   0  0  0  0  0  0  0  0  0  0  0  0
    7.0983   -3.8518    0.0894 H   0  0  0  0  0  0  0  0  0  0  0  0
    6.8147   -2.2479    0.7769 H   0  0  0  0  0  0  0  0  0  0  0  0
    6.6392   -2.5498   -0.9025 H   0  0  0  0  0  0  0  0  0  0  0  0
  1  2  1  0
  1 28  1  0
  1 29  1  0
  1 30  1  0
  2  9  1  0
  2  3  1  0
  2 31  1  6
  3  4  1  0
  3 32  1  0
  3 33  1  0
  4  5  2  0
  4  6  1  0
  6  7  2  0
  8  6  1  6
  8 15  1  0
  8 26  1  0
  8  9  1  0
  9 10  1  0
  9 34  1  6
 10 11  1  0
 10 35  1  0
 10 36  1  0
 11 12  1  0
 11 37  1  0
 11 38  1  0
 12 16  1  0
 12 13  1  0
 12 39  1  1
 13 14  1  0
 13 15  1  0
 13 40  1  1
 14 41  1  0
 15 16  1  0
 15 42  1  6
 16 17  1  0
 16 43  1  1
 17 18  2  0
 17 19  1  0
 19 20  2  0
 19 44  1  0
 20 26  1  0
 20 21  1  0
 21 22  1  0
 21 45  1  0
 21 46  1  0
 22 23  1  0
 22 24  1  0
 22 47  1  6
 23 48  1  0
 24 25  1  0
 24 49  1  0
 24 50  1  0
 25 26  1  0
 25 51  1  0
 25 52  1  0
 26 27  1  6
 27 53  1  0
 27 54  1  0
 27 55  1  0
M  END
>  <i_m_ct_stereo_status>  (306) 
1

>  <s_m_source_file>  (306) 
/var/tmp/pbs.5076255.sched01/tmpk7n3yjou/123nw9z_609.sdf

>  <i_m_source_file_index>  (306) 
13

>  <i_lp_mmshare_version>  (306) 
48012

>  <i_f3d_flags>  (306) 
0

>  <s_epik_input>  (306) 
Tz1DMUMoPU8pW0NIMl1bQ0BASF0oW0NIM10pW0NASF0oW0NAXTEyMylbQ0gyXVtDSDJdW0NAQEhdNFtDQEBIXShbQ0BIXTJbQ0BASF00W09IXSlDKD1PKVtDSF09QzVbQ0BdMyhbQ0gzXSlbQ0gyXVtDSDJdW0NAQEhdKFtDSDJdNSlbT0hd

>  <s_epik_cmdline>  (306) 
J2VwaWtfcHl0aG9uJywgJy1waHQnLCAnMi4wJywgJy1waCcsICc3LjAnLCAnLXRuJywgJzgnLCAnLW1hJywgJzIwMCcsICctaW1hZScsICc8aW5maWxlLm1hZT4nLCAnLW9tYWUnLCAnPG91dGZpbGUubWFlPic=

>  <r_lp_tautomer_probability>  (306) 
1

>  <r_epik_Ionization_Penalty>  (306) 
2.50833e-07

>  <r_epik_Ionization_Penalty_Charging>  (306) 
0

>  <r_epik_Ionization_Penalty_Neutral>  (306) 
2.50833e-07

>  <r_epik_State_Penalty>  (306) 
-0

>  <r_epik_Charging_Adjusted_Penalty>  (306) 
0

>  <i_epik_Tot_Q>  (306) 
0

>  <i_epik_Tot_abs_Q>  (306) 
0

>  <s_lp_Force_Field>  (306) 
OPLS3e

>  <r_lp_Energy>  (306) 
69.5697

>  <b_lp_Chiralities_Consistent>  (306) 
1

>  <s_lp_Variant>  (306) 
94:0-1

>  <s_i_glide_gridfile>  (306) 
pfpi4k_grid

>  <i_i_glide_lignum>  (306) 
13

>  <i_i_glide_rotatable_bonds>  (306) 
2

>  <r_i_docking_score>  (306) 
-3.03791

>  <r_i_glide_ligand_efficiency>  (306) 
-0.112515

>  <r_i_glide_ligand_efficiency_sa>  (306) 
-0.337545

>  <r_i_glide_ligand_efficiency_ln>  (306) 
-0.707175

>  <r_i_glide_gscore>  (306) 
-3.03791

>  <r_i_glide_lipo>  (306) 
-0.310978

>  <r_i_glide_hbond>  (306) 
-0.00443831

>  <r_i_glide_metal>  (306) 
-0

>  <r_i_glide_rewards>  (306) 
-1.02538

>  <r_i_glide_evdw>  (306) 
-27.5506

>  <r_i_glide_ecoul>  (306) 
-2.07252

>  <r_i_glide_erotb>  (306) 
0

>  <r_i_glide_esite>  (306) 
-0.00870526

>  <r_i_glide_emodel>  (306) 
-34.1063

>  <r_i_glide_energy>  (306) 
-29.6231

>  <r_i_glide_einternal>  (306) 
1.61315

>  <r_i_glide_intrahb_reward>  (306) 
-0

>  <i_i_glide_confnum>  (306) 
2

>  <i_i_glide_posenum>  (306) 
12

>  <r_i_glide_eff_state_penalty>  (306) 
0

>  <ligand_id>  (306) 
94

>  <original_smiles>  (306) 
CC1CC(=O)C(=O)C23C1CCC1C(O)C2C1C(=O)C=C1CC(O)CCC13C

>  <smiles>  (306) 
[H]OC1([H])C([H])([H])C2=C([H])C(=O)C3([H])C4([H])C([H])([H])C([H])([H])C5([H])C([H])(C([H])([H])[H])C([H])([H])C(=O)C(=O)C5(C3([H])C4([H])O[H])C2(C([H])([H])[H])C([H])([H])C1([H])[H]

$$$$
94:0:2
     RDKit          3D

 55 59  0  0  1  0  0  0  0  0999 V2000
    0.6380   -0.2384    2.7834 C   0  0  0  0  0  0  0  0  0  0  0  0
    1.7532   -1.1710    3.3001 C   0  0  2  0  0  0  0  0  0  0  0  0
    2.4852   -0.5371    4.4831 C   0  0  0  0  0  0  0  0  0  0  0  0
    3.5039   -1.4946    5.0753 C   0  0  0  0  0  0  0  0  0  0  0  0
    3.6815   -1.5165    6.2950 O   0  0  0  0  0  0  0  0  0  0  0  0
    4.3159   -2.4182    4.1429 C   0  0  0  0  0  0  0  0  0  0  0  0
    5.3984   -2.8348    4.5603 O   0  0  0  0  0  0  0  0  0  0  0  0
    3.7816   -2.8387    2.7225 C   0  0  1  0  0  0  0  0  0  0  0  0
    2.7488   -1.7078    2.1973 C   0  0  2  0  0  0  0  0  0  0  0  0
    3.3567   -0.4225    1.5390 C   0  0  0  0  0  0  0  0  0  0  0  0
    4.1873   -0.5087    0.2523 C   0  0  0  0  0  0  0  0  0  0  0  0
    5.3149   -1.5176    0.2524 C   0  0  1  0  0  0  0  0  0  0  0  0
    6.0594   -1.7477    1.5628 C   0  0  1  0  0  0  0  0  0  0  0  0
    6.2083   -0.6690    2.4699 O   0  0  0  0  0  0  0  0  0  0  0  0
    5.0745   -2.9235    1.8372 C   0  0  2  0  0  0  0  0  0  0  0  0
    4.9903   -3.0232    0.3086 C   0  0  1  0  0  0  0  0  0  0  0  0
    3.7318   -3.4813   -0.3654 C   0  0  0  0  0  0  0  0  0  0  0  0
    3.3246   -2.9743   -1.4069 O   0  0  0  0  0  0  0  0  0  0  0  0
    3.0068   -4.6405    0.1681 C   0  0  0  0  0  0  0  0  0  0  0  0
    2.7894   -5.0454    1.4410 C   0  0  0  0  0  0  0  0  0  0  0  0
    2.0716   -6.4046    1.5847 C   0  0  0  0  0  0  0  0  0  0  0  0
    0.8293   -6.3573    2.4778 C   0  0  1  0  0  0  0  0  0  0  0  0
    0.2734   -7.6373    2.6488 O   0  0  0  0  0  0  0  0  0  0  0  0
    1.1219   -5.7114    3.8310 C   0  0  0  0  0  0  0  0  0  0  0  0
    1.8228   -4.3607    3.6204 C   0  0  0  0  0  0  0  0  0  0  0  0
    3.1529   -4.3542    2.7998 C   0  0  2  0  0  0  0  0  0  0  0  0
    4.1226   -5.3499    3.5387 C   0  0  0  0  0  0  0  0  0  0  0  0
    0.9820    0.7788    2.5839 H   0  0  0  0  0  0  0  0  0  0  0  0
   -0.1695   -0.1566    3.5162 H   0  0  0  0  0  0  0  0  0  0  0  0
    0.2183   -0.6370    1.8578 H   0  0  0  0  0  0  0  0  0  0  0  0
    1.1741   -1.9624    3.7468 H   0  0  0  0  0  0  0  0  0  0  0  0
    2.9843    0.3892    4.1991 H   0  0  0  0  0  0  0  0  0  0  0  0
    1.7633   -0.2783    5.2606 H   0  0  0  0  0  0  0  0  0  0  0  0
    2.1234   -2.1696    1.4365 H   0  0  0  0  0  0  0  0  0  0  0  0
    2.5502    0.2405    1.2353 H   0  0  0  0  0  0  0  0  0  0  0  0
    3.9085    0.1569    2.2752 H   0  0  0  0  0  0  0  0  0  0  0  0
    3.5319   -0.6601   -0.6020 H   0  0  0  0  0  0  0  0  0  0  0  0
    4.6066    0.4805    0.0903 H   0  0  0  0  0  0  0  0  0  0  0  0
    6.0215   -1.3310   -0.5561 H   0  0  0  0  0  0  0  0  0  0  0  0
    7.0559   -2.1368    1.3446 H   0  0  0  0  0  0  0  0  0  0  0  0
    6.9295   -0.1271    2.1711 H   0  0  0  0  0  0  0  0  0  0  0  0
    5.7158   -3.7426    2.1558 H   0  0  0  0  0  0  0  0  0  0  0  0
    5.8482   -3.5786   -0.0740 H   0  0  0  0  0  0  0  0  0  0  0  0
    2.6111   -5.2622   -0.6169 H   0  0  0  0  0  0  0  0  0  0  0  0
    1.7530   -6.7705    0.6085 H   0  0  0  0  0  0  0  0  0  0  0  0
    2.7731   -7.1570    1.9433 H   0  0  0  0  0  0  0  0  0  0  0  0
    0.0662   -5.7804    1.9654 H   0  0  0  0  0  0  0  0  0  0  0  0
    0.9198   -8.2134    3.0284 H   0  0  0  0  0  0  0  0  0  0  0  0
    0.1767   -5.5422    4.3529 H   0  0  0  0  0  0  0  0  0  0  0  0
    1.6977   -6.3734    4.4776 H   0  0  0  0  0  0  0  0  0  0  0  0
    1.0870   -3.8047    3.0438 H   0  0  0  0  0  0  0  0  0  0  0  0
    1.9476   -3.8899    4.5937 H   0  0  0  0  0  0  0  0  0  0  0  0
    4.3574   -5.0591    4.5602 H   0  0  0  0  0  0  0  0  0  0  0  0
    5.0565   -5.5194    3.0060 H   0  0  0  0  0  0  0  0  0  0  0  0
    3.7063   -6.3447    3.6631 H   0  0  0  0  0  0  0  0  0  0  0  0
  1  2  1  0
  1 28  1  0
  1 29  1  0
  1 30  1  0
  2  9  1  0
  2  3  1  0
  2 31  1  1
  3  4  1  0
  3 32  1  0
  3 33  1  0
  4  5  2  0
  4  6  1  0
  6  7  2  0
  8  6  1  1
  8 15  1  0
  8 26  1  0
  8  9  1  0
  9 10  1  0
  9 34  1  6
 10 11  1  0
 10 35  1  0
 10 36  1  0
 11 12  1  0
 11 37  1  0
 11 38  1  0
 12 16  1  0
 12 13  1  0
 12 39  1  6
 13 14  1  0
 13 15  1  0
 13 40  1  6
 14 41  1  0
 15 16  1  0
 15 42  1  1
 16 17  1  0
 16 43  1  6
 17 18  2  0
 17 19  1  0
 19 20  2  0
 19 44  1  0
 20 26  1  0
 20 21  1  0
 21 22  1  0
 21 45  1  0
 21 46  1  0
 22 23  1  0
 22 24  1  0
 22 47  1  6
 23 48  1  0
 24 25  1  0
 24 49  1  0
 24 50  1  0
 25 26  1  0
 25 51  1  0
 25 52  1  0
 26 27  1  1
 27 53  1  0
 27 54  1  0
 27 55  1  0
M  END
>  <i_m_ct_stereo_status>  (307) 
1

>  <s_m_source_file>  (307) 
/var/tmp/pbs.5076255.sched01/tmpk7n3yjou/123nw9z_609.sdf

>  <i_m_source_file_index>  (307) 
13

>  <i_lp_mmshare_version>  (307) 
48012

>  <i_f3d_flags>  (307) 
0

>  <s_epik_input>  (307) 
Tz1DMUMoPU8pW0NIMl1bQ0BASF0oW0NIM10pW0NASF0oW0NAXTEyMylbQ0gyXVtDSDJdW0NAQEhdNFtDQEBIXShbQ0BIXTJbQ0BASF00W09IXSlDKD1PKVtDSF09QzVbQ0BdMyhbQ0gzXSlbQ0gyXVtDSDJdW0NAQEhdKFtDSDJdNSlbT0hd

>  <s_epik_cmdline>  (307) 
J2VwaWtfcHl0aG9uJywgJy1waHQnLCAnMi4wJywgJy1waCcsICc3LjAnLCAnLXRuJywgJzgnLCAnLW1hJywgJzIwMCcsICctaW1hZScsICc8aW5maWxlLm1hZT4nLCAnLW9tYWUnLCAnPG91dGZpbGUubWFlPic=

>  <r_lp_tautomer_probability>  (307) 
1

>  <r_epik_Ionization_Penalty>  (307) 
2.50833e-07

>  <r_epik_Ionization_Penalty_Charging>  (307) 
0

>  <r_epik_Ionization_Penalty_Neutral>  (307) 
2.50833e-07

>  <r_epik_State_Penalty>  (307) 
-0

>  <r_epik_Charging_Adjusted_Penalty>  (307) 
0

>  <i_epik_Tot_Q>  (307) 
0

>  <i_epik_Tot_abs_Q>  (307) 
0

>  <s_lp_Force_Field>  (307) 
OPLS3e

>  <r_lp_Energy>  (307) 
69.5697

>  <b_lp_Chiralities_Consistent>  (307) 
1

>  <s_lp_Variant>  (307) 
94:0-1

>  <s_i_glide_gridfile>  (307) 
pfpi4k_grid

>  <i_i_glide_lignum>  (307) 
13

>  <i_i_glide_rotatable_bonds>  (307) 
2

>  <r_i_docking_score>  (307) 
-2.98687

>  <r_i_glide_ligand_efficiency>  (307) 
-0.110625

>  <r_i_glide_ligand_efficiency_sa>  (307) 
-0.331874

>  <r_i_glide_ligand_efficiency_ln>  (307) 
-0.695293

>  <r_i_glide_gscore>  (307) 
-2.98687

>  <r_i_glide_lipo>  (307) 
-0.363811

>  <r_i_glide_hbond>  (307) 
0

>  <r_i_glide_metal>  (307) 
-0

>  <r_i_glide_rewards>  (307) 
-0.922198

>  <r_i_glide_evdw>  (307) 
-23.4483

>  <r_i_glide_ecoul>  (307) 
-3.52294

>  <r_i_glide_erotb>  (307) 
0

>  <r_i_glide_esite>  (307) 
0

>  <r_i_glide_emodel>  (307) 
-31.5064

>  <r_i_glide_energy>  (307) 
-26.9713

>  <r_i_glide_einternal>  (307) 
1.27858

>  <r_i_glide_intrahb_reward>  (307) 
-0

>  <i_i_glide_confnum>  (307) 
2

>  <i_i_glide_posenum>  (307) 
28

>  <r_i_glide_eff_state_penalty>  (307) 
0

>  <ligand_id>  (307) 
94

>  <original_smiles>  (307) 
CC1CC(=O)C(=O)C23C1CCC1C(O)C2C1C(=O)C=C1CC(O)CCC13C

>  <smiles>  (307) 
[H]OC1([H])C([H])([H])C2=C([H])C(=O)C3([H])C4([H])C([H])([H])C([H])([H])C5([H])C([H])(C([H])([H])[H])C([H])([H])C(=O)C(=O)C5(C3([H])C4([H])O[H])C2(C([H])([H])[H])C([H])([H])C1([H])[H]

$$$$
95:0:0
     RDKit          3D

 93100  0  0  1  0  0  0  0  0999 V2000
    4.3675    0.0775    5.1419 C   0  0  0  0  0  0  0  0  0  0  0  0
    3.8963   -1.2558    5.2699 O   0  0  0  0  0  0  0  0  0  0  0  0
    2.7665   -1.6474    4.4795 C   0  0  2  0  0  0  0  0  0  0  0  0
    1.8138   -2.5083    5.3121 C   0  0  0  0  0  0  0  0  0  0  0  0
    2.4852   -3.8237    5.7450 C   0  0  1  0  0  0  0  0  0  0  0  0
    1.5256   -4.5319    6.7250 C   0  0  0  0  0  0  0  0  0  0  0  0
    1.3276   -3.8829    8.0905 C   0  0  0  0  0  0  0  0  0  0  0  0
    0.9572   -5.7083    6.4244 C   0  0  0  0  0  0  0  0  0  0  0  0
    1.1748   -6.4096    5.1029 C   0  0  1  0  0  0  0  0  0  0  0  0
    1.6767   -5.4259    4.0869 C   0  0  0  0  0  0  0  0  0  0  0  0
    1.0840   -5.4270    2.9023 C   0  0  0  0  0  0  0  0  0  0  0  0
    1.5067   -6.4582    1.9089 C   0  0  1  0  0  0  0  0  0  0  0  0
    0.5894   -6.3011    0.8247 O   0  0  0  0  0  0  0  0  0  0  0  0
    2.8756   -6.1175    1.2506 C   0  0  1  0  0  0  0  0  0  0  0  0
    2.9639   -4.8183    0.7191 O   0  0  0  0  0  0  0  0  0  0  0  0
    4.1777   -6.4938    1.9464 C   0  0  0  0  0  0  0  0  0  0  0  0
    5.1685   -7.1013    0.9466 C   0  0  0  0  0  0  0  0  0  0  0  0
    4.5756   -6.3964    3.2338 C   0  0  0  0  0  0  0  0  0  0  0  0
    4.1223   -5.8385    4.6287 C   0  0  2  0  0  0  0  0  0  0  0  0
    5.5515   -5.3306    5.1705 C   0  0  1  0  0  0  0  0  0  0  0  0
    5.6887   -4.0267    5.9679 C   0  0  0  0  0  0  0  0  0  0  0  0
    6.5039   -6.3946    5.8444 C   0  0  0  0  0  0  0  0  0  0  0  0
    6.1095   -7.8706    5.8325 C   0  0  2  0  0  0  0  0  0  0  0  0
    6.9997   -8.7381    6.6965 C   0  0  0  0  0  0  0  0  0  0  0  0
    5.6776   -8.4810    4.6141 O   0  0  0  0  0  0  0  0  0  0  0  0
    4.6674   -8.2329    5.6091 C   0  0  2  0  0  0  0  0  0  0  0  0
    3.6411   -7.0937    5.5154 C   0  0  1  0  0  0  0  0  0  0  0  0
    3.6261   -6.7125    7.0458 C   0  0  0  0  0  0  0  0  0  0  0  0
    2.1743   -7.6035    5.0888 C   0  0  2  0  0  0  0  0  0  0  0  0
    1.8564   -8.5759    3.8222 C   0  0  1  0  0  0  0  0  0  0  0  0
    3.0288   -9.5595    3.5381 C   0  0  0  0  0  0  0  0  0  0  0  0
    0.6940   -9.5709    4.2487 C   0  0  1  0  0  0  0  0  0  0  0  0
   -0.1902   -9.1437    5.2764 O   0  0  0  0  0  0  0  0  0  0  0  0
   -0.1973   -9.7865    3.0343 C   0  0  0  0  0  0  0  0  0  0  0  0
   -0.1869   -8.4189    2.3726 C   0  0  0  0  0  0  0  0  0  0  0  0
    1.3022   -7.9693    2.4070 C   0  0  1  0  0  0  0  0  0  0  0  0
    1.8270   -8.7063    1.3065 O   0  0  0  0  0  0  0  0  0  0  0  0
    2.9596   -4.6936    4.4793 C   0  0  2  0  0  0  0  0  0  0  0  0
    3.4748   -3.8111    3.4368 O   0  0  0  0  0  0  0  0  0  0  0  0
    3.1114   -2.4207    3.1818 C   0  0  1  0  0  0  0  0  0  0  0  0
    1.8990   -2.3024    2.2214 C   0  0  0  0  0  0  0  0  0  0  0  0
    4.3671   -1.8879    2.4448 C   0  0  0  0  0  0  0  0  0  0  0  0
    4.2490   -0.5463    1.9992 O   0  0  0  0  0  0  0  0  0  0  0  0
    5.2596    0.1829    5.7615 H   0  0  0  0  0  0  0  0  0  0  0  0
    3.6273    0.7666    5.5488 H   0  0  0  0  0  0  0  0  0  0  0  0
    4.6013    0.3325    4.1085 H   0  0  0  0  0  0  0  0  0  0  0  0
    2.2182   -0.7371    4.2278 H   0  0  0  0  0  0  0  0  0  0  0  0
    1.4894   -1.9301    6.1736 H   0  0  0  0  0  0  0  0  0  0  0  0
    0.9013   -2.7325    4.7519 H   0  0  0  0  0  0  0  0  0  0  0  0
    3.3194   -3.5241    6.3575 H   0  0  0  0  0  0  0  0  0  0  0  0
    2.2932   -3.6654    8.5484 H   0  0  0  0  0  0  0  0  0  0  0  0
    0.7902   -4.5535    8.7616 H   0  0  0  0  0  0  0  0  0  0  0  0
    0.7609   -2.9557    8.0217 H   0  0  0  0  0  0  0  0  0  0  0  0
    0.3260   -6.2228    7.1346 H   0  0  0  0  0  0  0  0  0  0  0  0
    0.1790   -6.7453    4.8281 H   0  0  0  0  0  0  0  0  0  0  0  0
    0.0532   -5.7183    2.9990 H   0  0  0  0  0  0  0  0  0  0  0  0
    0.4755   -7.1582    0.4542 H   0  0  0  0  0  0  0  0  0  0  0  0
    2.9049   -6.6750    0.3230 H   0  0  0  0  0  0  0  0  0  0  0  0
    3.3450   -4.8850   -0.1434 H   0  0  0  0  0  0  0  0  0  0  0  0
    5.3397   -6.4092    0.1225 H   0  0  0  0  0  0  0  0  0  0  0  0
    4.7778   -8.0315    0.5300 H   0  0  0  0  0  0  0  0  0  0  0  0
    6.1443   -7.3321    1.3791 H   0  0  0  0  0  0  0  0  0  0  0  0
    5.5894   -6.7452    3.2925 H   0  0  0  0  0  0  0  0  0  0  0  0
    6.1004   -5.0088    4.2843 H   0  0  0  0  0  0  0  0  0  0  0  0
    5.2646   -4.0820    6.9684 H   0  0  0  0  0  0  0  0  0  0  0  0
    5.2659   -3.1957    5.4146 H   0  0  0  0  0  0  0  0  0  0  0  0
    6.7442   -3.7806    6.0970 H   0  0  0  0  0  0  0  0  0  0  0  0
    7.5110   -6.3119    5.4337 H   0  0  0  0  0  0  0  0  0  0  0  0
    6.6131   -6.1260    6.8999 H   0  0  0  0  0  0  0  0  0  0  0  0
    6.9047   -8.4462    7.7434 H   0  0  0  0  0  0  0  0  0  0  0  0
    8.0424   -8.6507    6.3996 H   0  0  0  0  0  0  0  0  0  0  0  0
    6.7068   -9.7880    6.6122 H   0  0  0  0  0  0  0  0  0  0  0  0
    4.3270   -9.1112    6.1543 H   0  0  0  0  0  0  0  0  0  0  0  0
    2.7650   -7.1070    7.5852 H   0  0  0  0  0  0  0  0  0  0  0  0
    3.6896   -5.6450    7.2115 H   0  0  0  0  0  0  0  0  0  0  0  0
    4.4735   -7.0910    7.6135 H   0  0  0  0  0  0  0  0  0  0  0  0
    1.9264   -8.2320    5.9436 H   0  0  0  0  0  0  0  0  0  0  0  0
    2.7420  -10.3619    2.8583 H   0  0  0  0  0  0  0  0  0  0  0  0
    3.3501  -10.0822    4.4361 H   0  0  0  0  0  0  0  0  0  0  0  0
    3.8820   -9.0679    3.0773 H   0  0  0  0  0  0  0  0  0  0  0  0
    1.0782  -10.5308    4.5972 H   0  0  0  0  0  0  0  0  0  0  0  0
   -0.8660   -9.8088    5.3436 H   0  0  0  0  0  0  0  0  0  0  0  0
    0.2391  -10.5433    2.3768 H   0  0  0  0  0  0  0  0  0  0  0  0
   -1.2058  -10.1171    3.2806 H   0  0  0  0  0  0  0  0  0  0  0  0
   -0.6365   -8.4607    1.3803 H   0  0  0  0  0  0  0  0  0  0  0  0
   -0.8109   -7.7519    2.9646 H   0  0  0  0  0  0  0  0  0  0  0  0
    1.1159   -9.1607    0.8645 H   0  0  0  0  0  0  0  0  0  0  0  0
    1.5666   -1.2662    2.1359 H   0  0  0  0  0  0  0  0  0  0  0  0
    1.0349   -2.8716    2.5516 H   0  0  0  0  0  0  0  0  0  0  0  0
    2.1463   -2.6056    1.2090 H   0  0  0  0  0  0  0  0  0  0  0  0
    5.2269   -1.9549    3.1077 H   0  0  0  0  0  0  0  0  0  0  0  0
    4.5832   -2.5467    1.5990 H   0  0  0  0  0  0  0  0  0  0  0  0
    3.4160   -0.4489    1.5789 H   0  0  0  0  0  0  0  0  0  0  0  0
  1  2  1  0
  1 44  1  0
  1 45  1  0
  1 46  1  0
  2  3  1  0
  3 40  1  0
  3  4  1  0
  3 47  1  6
  4  5  1  0
  4 48  1  0
  4 49  1  0
  5 38  1  0
  5  6  1  0
  5 50  1  1
  6  7  1  0
  6  8  2  0
  7 51  1  0
  7 52  1  0
  7 53  1  0
  8  9  1  0
  8 54  1  0
  9 29  1  0
  9 10  1  0
  9 55  1  6
 10 38  1  0
 10 11  2  0
 11 12  1  0
 11 56  1  0
 12 36  1  0
 12 13  1  6
 12 14  1  0
 13 57  1  0
 14 15  1  0
 14 16  1  0
 14 58  1  6
 15 59  1  0
 16 17  1  0
 16 18  2  3
 17 60  1  0
 17 61  1  0
 17 62  1  0
 19 18  1  6
 18 63  1  0
 19 27  1  0
 19 20  1  0
 19 38  1  0
 20 21  1  0
 20 22  1  0
 20 64  1  6
 21 65  1  0
 21 66  1  0
 21 67  1  0
 22 23  1  0
 22 68  1  0
 22 69  1  0
 23 26  1  0
 23 24  1  1
 23 25  1  0
 24 70  1  0
 24 71  1  0
 24 72  1  0
 25 26  1  0
 26 27  1  0
 26 73  1  1
 27 28  1  1
 27 29  1  0
 28 74  1  0
 28 75  1  0
 28 76  1  0
 29 30  1  0
 29 77  1  1
 30 36  1  0
 30 31  1  6
 30 32  1  0
 31 78  1  0
 31 79  1  0
 31 80  1  0
 32 33  1  0
 32 34  1  0
 32 81  1  1
 33 82  1  0
 34 35  1  0
 34 83  1  0
 34 84  1  0
 35 36  1  0
 35 85  1  0
 35 86  1  0
 36 37  1  6
 37 87  1  0
 38 39  1  6
 39 40  1  0
 40 41  1  6
 40 42  1  0
 41 88  1  0
 41 89  1  0
 41 90  1  0
 42 43  1  0
 42 91  1  0
 42 92  1  0
 43 93  1  0
M  END
>  <i_m_ct_stereo_status>  (308) 
1

>  <s_m_source_file>  (308) 
/var/tmp/pbs.5076255.sched01/tmpk7n3yjou/123nw9z_609.sdf

>  <i_m_source_file_index>  (308) 
14

>  <i_lp_mmshare_version>  (308) 
48012

>  <i_f3d_flags>  (308) 
0

>  <s_epik_input>  (308) 
W09IXVtDSDJdW0NAXShPMSkoW0NIM10pW0NASF0oT1tDSDNdKVtDSDJdW0NASF0oW0NAXTEyW0NAQF0zNDUpQyhbQ0gzXSk9W0NIXVtDQEhdNkMyPVtDSF1bQ0BAXShbT0hdKShbQ0BASF0oW09IXSkvQyhbQ0gzXSk9W0NIXVwzKVtDQEBdNyhbT0hdKVtDQF0oW0NIM10pKFtDQEBIXShbT0hdKVtDSDJdW0NIMl03KVtDQEhdNltDQEBdNShbQ0gzXSlbQ0BASF04W0NAXShPOCkoW0NIM10pW0NIMl1bQ0BASF00W0NIM10=

>  <s_epik_cmdline>  (308) 
J2VwaWtfcHl0aG9uJywgJy1waHQnLCAnMi4wJywgJy1waCcsICc3LjAnLCAnLXRuJywgJzgnLCAnLW1hJywgJzIwMCcsICctaW1hZScsICc8aW5maWxlLm1hZT4nLCAnLW9tYWUnLCAnPG91dGZpbGUubWFlPic=

>  <r_lp_tautomer_probability>  (308) 
1

>  <r_epik_Ionization_Penalty>  (308) 
8.03466e-07

>  <r_epik_Ionization_Penalty_Charging>  (308) 
0

>  <r_epik_Ionization_Penalty_Neutral>  (308) 
8.03466e-07

>  <r_epik_State_Penalty>  (308) 
-0

>  <r_epik_Charging_Adjusted_Penalty>  (308) 
0

>  <i_epik_Tot_Q>  (308) 
0

>  <i_epik_Tot_abs_Q>  (308) 
0

>  <s_lp_Force_Field>  (308) 
OPLS3e

>  <r_lp_Energy>  (308) 
217.094

>  <b_lp_Chiralities_Consistent>  (308) 
1

>  <s_lp_Variant>  (308) 
95:0-1

>  <s_i_glide_gridfile>  (308) 
pfpi4k_grid

>  <i_i_glide_lignum>  (308) 
14

>  <i_i_glide_rotatable_bonds>  (308) 
7

>  <r_i_docking_score>  (308) 
-3.18028

>  <r_i_glide_ligand_efficiency>  (308) 
-0.0739599

>  <r_i_glide_ligand_efficiency_sa>  (308) 
-0.259111

>  <r_i_glide_ligand_efficiency_ln>  (308) 
-0.667957

>  <r_i_glide_gscore>  (308) 
-3.18028

>  <r_i_glide_lipo>  (308) 
-0.142664

>  <r_i_glide_hbond>  (308) 
-0.152

>  <r_i_glide_metal>  (308) 
-0

>  <r_i_glide_rewards>  (308) 
0

>  <r_i_glide_evdw>  (308) 
-21.5101

>  <r_i_glide_ecoul>  (308) 
-12.4578

>  <r_i_glide_erotb>  (308) 
0.0585567

>  <r_i_glide_esite>  (308) 
0

>  <r_i_glide_emodel>  (308) 
-38.3148

>  <r_i_glide_energy>  (308) 
-33.9679

>  <r_i_glide_einternal>  (308) 
4.73063

>  <r_i_glide_intrahb_reward>  (308) 
-0

>  <i_i_glide_confnum>  (308) 
2

>  <i_i_glide_posenum>  (308) 
1

>  <r_i_glide_eff_state_penalty>  (308) 
0

>  <ligand_id>  (308) 
95

>  <original_smiles>  (308) 
COC1CC2C(C)=CC3C4=CC5(O)C(O)C(C)=CC6(C(C)CC7(C)OC7C6(C)C3C3(C)C(O)CCC53O)C42OC1(C)CO

>  <smiles>  (308) 
[H]OC([H])([H])C1(C([H])([H])[H])OC23C4=C([H])C5(O[H])C([H])(O[H])C(C([H])([H])[H])=C([H])C26C([H])(C([H])([H])[H])C([H])([H])C2(C([H])([H])[H])OC2([H])C6(C([H])([H])[H])C([H])(C4([H])C([H])=C(C([H])([H])[H])C3([H])C([H])([H])C1([H])OC([H])([H])[H])C1(C([H])([H])[H])C([H])(O[H])C([H])([H])C([H])([H])C51O[H]

$$$$
95:0:1
     RDKit          3D

 93100  0  0  1  0  0  0  0  0999 V2000
    3.7323   -0.6455    6.7047 C   0  0  0  0  0  0  0  0  0  0  0  0
    3.9305   -1.5029    5.5870 O   0  0  0  0  0  0  0  0  0  0  0  0
    2.7606   -1.8518    4.8493 C   0  0  2  0  0  0  0  0  0  0  0  0
    1.8091   -2.7422    5.6322 C   0  0  0  0  0  0  0  0  0  0  0  0
    2.4979   -4.0658    5.9942 C   0  0  1  0  0  0  0  0  0  0  0  0
    1.5409   -4.8133    6.9421 C   0  0  0  0  0  0  0  0  0  0  0  0
    1.3514   -4.2251    8.3348 C   0  0  0  0  0  0  0  0  0  0  0  0
    0.9717   -5.9745    6.5838 C   0  0  0  0  0  0  0  0  0  0  0  0
    1.1820   -6.6075    5.2285 C   0  0  1  0  0  0  0  0  0  0  0  0
    1.6813   -5.5745    4.2622 C   0  0  0  0  0  0  0  0  0  0  0  0
    1.0877   -5.5166    3.0788 C   0  0  0  0  0  0  0  0  0  0  0  0
    1.5032   -6.5075    2.0358 C   0  0  1  0  0  0  0  0  0  0  0  0
    0.5925   -6.3028    0.9558 O   0  0  0  0  0  0  0  0  0  0  0  0
    2.8738   -6.1518    1.3897 C   0  0  1  0  0  0  0  0  0  0  0  0
    2.9656   -4.8326    0.9122 O   0  0  0  0  0  0  0  0  0  0  0  0
    4.1738   -6.5571    2.0649 C   0  0  0  0  0  0  0  0  0  0  0  0
    5.1626   -7.1151    1.0358 C   0  0  0  0  0  0  0  0  0  0  0  0
    4.5766   -6.5172    3.3587 C   0  0  0  0  0  0  0  0  0  0  0  0
    4.1302   -6.0235    4.7757 C   0  0  2  0  0  0  0  0  0  0  0  0
    5.5642   -5.5466    5.3365 C   0  0  1  0  0  0  0  0  0  0  0  0
    5.7063   -4.2813    6.1952 C   0  0  0  0  0  0  0  0  0  0  0  0
    6.5149   -6.6419    5.9597 C   0  0  0  0  0  0  0  0  0  0  0  0
    6.1096   -8.1145    5.8773 C   0  0  2  0  0  0  0  0  0  0  0  0
    7.0049   -9.0230    6.6977 C   0  0  0  0  0  0  0  0  0  0  0  0
    5.6777   -8.6639    4.6329 O   0  0  0  0  0  0  0  0  0  0  0  0
    4.6789   -8.4565    5.6426 C   0  0  2  0  0  0  0  0  0  0  0  0
    3.6447   -7.3138    5.6029 C   0  0  1  0  0  0  0  0  0  0  0  0
    3.6395   -7.0068    7.1484 C   0  0  0  0  0  0  0  0  0  0  0  0
    2.1771   -7.8009    5.1588 C   0  0  2  0  0  0  0  0  0  0  0  0
    1.8580   -8.7120    3.8522 C   0  0  1  0  0  0  0  0  0  0  0  0
    3.0251   -9.6859    3.5173 C   0  0  0  0  0  0  0  0  0  0  0  0
    0.6975   -9.7278    4.2338 C   0  0  1  0  0  0  0  0  0  0  0  0
   -0.1770   -9.3696    5.2864 O   0  0  0  0  0  0  0  0  0  0  0  0
   -0.2035   -9.8763    3.0170 C   0  0  0  0  0  0  0  0  0  0  0  0
   -0.1872   -8.4820    2.4199 C   0  0  0  0  0  0  0  0  0  0  0  0
    1.2971   -8.0320    2.4766 C   0  0  1  0  0  0  0  0  0  0  0  0
    1.8176   -8.7188    1.3435 O   0  0  0  0  0  0  0  0  0  0  0  0
    2.9675   -4.8756    4.6899 C   0  0  2  0  0  0  0  0  0  0  0  0
    3.4862   -3.9518    3.6947 O   0  0  0  0  0  0  0  0  0  0  0  0
    3.1105   -2.5595    3.5220 C   0  0  1  0  0  0  0  0  0  0  0  0
    1.9132   -2.3782    2.5515 C   0  0  0  0  0  0  0  0  0  0  0  0
    4.3725   -1.9474    2.8644 C   0  0  0  0  0  0  0  0  0  0  0  0
    4.2462   -0.5630    2.5988 O   0  0  0  0  0  0  0  0  0  0  0  0
    4.6990   -0.3950    7.1453 H   0  0  0  0  0  0  0  0  0  0  0  0
    3.1406   -1.1236    7.4862 H   0  0  0  0  0  0  0  0  0  0  0  0
    3.2482    0.2890    6.4157 H   0  0  0  0  0  0  0  0  0  0  0  0
    2.2547   -0.9134    4.6169 H   0  0  0  0  0  0  0  0  0  0  0  0
    1.4640   -2.2097    6.5140 H   0  0  0  0  0  0  0  0  0  0  0  0
    0.9048   -2.9351    5.0541 H   0  0  0  0  0  0  0  0  0  0  0  0
    3.3343   -3.7879    6.6145 H   0  0  0  0  0  0  0  0  0  0  0  0
    2.3191   -4.0305    8.7997 H   0  0  0  0  0  0  0  0  0  0  0  0
    0.8124   -4.9231    8.9768 H   0  0  0  0  0  0  0  0  0  0  0  0
    0.7879   -3.2924    8.3113 H   0  0  0  0  0  0  0  0  0  0  0  0
    0.3387   -6.5189    7.2728 H   0  0  0  0  0  0  0  0  0  0  0  0
    0.1859   -6.9281    4.9424 H   0  0  0  0  0  0  0  0  0  0  0  0
    0.0513   -5.7963    3.1580 H   0  0  0  0  0  0  0  0  0  0  0  0
    0.5717   -7.1364    0.4865 H   0  0  0  0  0  0  0  0  0  0  0  0
    2.8933   -6.6929    0.4467 H   0  0  0  0  0  0  0  0  0  0  0  0
    3.6938   -4.7937    0.3085 H   0  0  0  0  0  0  0  0  0  0  0  0
    5.3342   -6.3870    0.2432 H   0  0  0  0  0  0  0  0  0  0  0  0
    4.7706   -8.0253    0.5773 H   0  0  0  0  0  0  0  0  0  0  0  0
    6.1388   -7.3677    1.4543 H   0  0  0  0  0  0  0  0  0  0  0  0
    5.5909   -6.8674    3.3927 H   0  0  0  0  0  0  0  0  0  0  0  0
    6.1111   -5.1813    4.4637 H   0  0  0  0  0  0  0  0  0  0  0  0
    5.2842   -4.3810    7.1934 H   0  0  0  0  0  0  0  0  0  0  0  0
    5.2837   -3.4231    5.6852 H   0  0  0  0  0  0  0  0  0  0  0  0
    6.7616   -4.0425    6.3339 H   0  0  0  0  0  0  0  0  0  0  0  0
    7.5179   -6.5450    5.5466 H   0  0  0  0  0  0  0  0  0  0  0  0
    6.6288   -6.4206    7.0245 H   0  0  0  0  0  0  0  0  0  0  0  0
    6.9149   -8.7801    7.7568 H   0  0  0  0  0  0  0  0  0  0  0  0
    8.0481   -8.9247    6.4001 H   0  0  0  0  0  0  0  0  0  0  0  0
    6.7071  -10.0653    6.5652 H   0  0  0  0  0  0  0  0  0  0  0  0
    4.3318   -9.3608    6.1457 H   0  0  0  0  0  0  0  0  0  0  0  0
    2.7814   -7.4241    7.6754 H   0  0  0  0  0  0  0  0  0  0  0  0
    3.7078   -5.9507    7.3674 H   0  0  0  0  0  0  0  0  0  0  0  0
    4.4885   -7.4129    7.6981 H   0  0  0  0  0  0  0  0  0  0  0  0
    1.9320   -8.4696    5.9853 H   0  0  0  0  0  0  0  0  0  0  0  0
    2.7338  -10.4564    2.8015 H   0  0  0  0  0  0  0  0  0  0  0  0
    3.3481  -10.2531    4.3878 H   0  0  0  0  0  0  0  0  0  0  0  0
    3.8761   -9.1772    3.0770 H   0  0  0  0  0  0  0  0  0  0  0  0
    1.0816  -10.7056    4.5263 H   0  0  0  0  0  0  0  0  0  0  0  0
   -0.8856  -10.0226    5.2915 H   0  0  0  0  0  0  0  0  0  0  0  0
    0.2176  -10.6059    2.3227 H   0  0  0  0  0  0  0  0  0  0  0  0
   -1.2123  -10.2107    3.2569 H   0  0  0  0  0  0  0  0  0  0  0  0
   -0.6386   -8.4782    1.4255 H   0  0  0  0  0  0  0  0  0  0  0  0
   -0.8082   -7.8404    3.0400 H   0  0  0  0  0  0  0  0  0  0  0  0
    1.1346   -9.2558    0.9492 H   0  0  0  0  0  0  0  0  0  0  0  0
    1.5892   -1.3363    2.5105 H   0  0  0  0  0  0  0  0  0  0  0  0
    1.0412   -2.9554    2.8483 H   0  0  0  0  0  0  0  0  0  0  0  0
    2.1636   -2.6367    1.5264 H   0  0  0  0  0  0  0  0  0  0  0  0
    5.2422   -2.1044    3.5050 H   0  0  0  0  0  0  0  0  0  0  0  0
    4.5857   -2.4607    1.9258 H   0  0  0  0  0  0  0  0  0  0  0  0
    4.0743   -0.1184    3.4182 H   0  0  0  0  0  0  0  0  0  0  0  0
  1  2  1  0
  1 44  1  0
  1 45  1  0
  1 46  1  0
  2  3  1  0
  3 40  1  0
  3  4  1  0
  3 47  1  6
  4  5  1  0
  4 48  1  0
  4 49  1  0
  5 38  1  0
  5  6  1  0
  5 50  1  1
  6  7  1  0
  6  8  2  0
  7 51  1  0
  7 52  1  0
  7 53  1  0
  8  9  1  0
  8 54  1  0
  9 29  1  0
  9 10  1  0
  9 55  1  6
 10 38  1  0
 10 11  2  0
 11 12  1  0
 11 56  1  0
 12 36  1  0
 12 13  1  6
 12 14  1  0
 13 57  1  0
 14 15  1  0
 14 16  1  0
 14 58  1  6
 15 59  1  0
 16 17  1  0
 16 18  2  3
 17 60  1  0
 17 61  1  0
 17 62  1  0
 19 18  1  6
 18 63  1  0
 19 27  1  0
 19 20  1  0
 19 38  1  0
 20 21  1  0
 20 22  1  0
 20 64  1  6
 21 65  1  0
 21 66  1  0
 21 67  1  0
 22 23  1  0
 22 68  1  0
 22 69  1  0
 23 26  1  0
 23 24  1  1
 23 25  1  0
 24 70  1  0
 24 71  1  0
 24 72  1  0
 25 26  1  0
 26 27  1  0
 26 73  1  1
 27 28  1  1
 27 29  1  0
 28 74  1  0
 28 75  1  0
 28 76  1  0
 29 30  1  0
 29 77  1  1
 30 36  1  0
 30 31  1  6
 30 32  1  0
 31 78  1  0
 31 79  1  0
 31 80  1  0
 32 33  1  0
 32 34  1  0
 32 81  1  1
 33 82  1  0
 34 35  1  0
 34 83  1  0
 34 84  1  0
 35 36  1  0
 35 85  1  0
 35 86  1  0
 36 37  1  6
 37 87  1  0
 38 39  1  6
 39 40  1  0
 40 41  1  6
 40 42  1  0
 41 88  1  0
 41 89  1  0
 41 90  1  0
 42 43  1  0
 42 91  1  0
 42 92  1  0
 43 93  1  0
M  END
>  <i_m_ct_stereo_status>  (309) 
1

>  <s_m_source_file>  (309) 
/var/tmp/pbs.5076255.sched01/tmpk7n3yjou/123nw9z_609.sdf

>  <i_m_source_file_index>  (309) 
14

>  <i_lp_mmshare_version>  (309) 
48012

>  <i_f3d_flags>  (309) 
0

>  <s_epik_input>  (309) 
W09IXVtDSDJdW0NAXShPMSkoW0NIM10pW0NASF0oT1tDSDNdKVtDSDJdW0NASF0oW0NAXTEyW0NAQF0zNDUpQyhbQ0gzXSk9W0NIXVtDQEhdNkMyPVtDSF1bQ0BAXShbT0hdKShbQ0BASF0oW09IXSkvQyhbQ0gzXSk9W0NIXVwzKVtDQEBdNyhbT0hdKVtDQF0oW0NIM10pKFtDQEBIXShbT0hdKVtDSDJdW0NIMl03KVtDQEhdNltDQEBdNShbQ0gzXSlbQ0BASF04W0NAXShPOCkoW0NIM10pW0NIMl1bQ0BASF00W0NIM10=

>  <s_epik_cmdline>  (309) 
J2VwaWtfcHl0aG9uJywgJy1waHQnLCAnMi4wJywgJy1waCcsICc3LjAnLCAnLXRuJywgJzgnLCAnLW1hJywgJzIwMCcsICctaW1hZScsICc8aW5maWxlLm1hZT4nLCAnLW9tYWUnLCAnPG91dGZpbGUubWFlPic=

>  <r_lp_tautomer_probability>  (309) 
1

>  <r_epik_Ionization_Penalty>  (309) 
8.03466e-07

>  <r_epik_Ionization_Penalty_Charging>  (309) 
0

>  <r_epik_Ionization_Penalty_Neutral>  (309) 
8.03466e-07

>  <r_epik_State_Penalty>  (309) 
-0

>  <r_epik_Charging_Adjusted_Penalty>  (309) 
0

>  <i_epik_Tot_Q>  (309) 
0

>  <i_epik_Tot_abs_Q>  (309) 
0

>  <s_lp_Force_Field>  (309) 
OPLS3e

>  <r_lp_Energy>  (309) 
217.094

>  <b_lp_Chiralities_Consistent>  (309) 
1

>  <s_lp_Variant>  (309) 
95:0-1

>  <s_i_glide_gridfile>  (309) 
pfpi4k_grid

>  <i_i_glide_lignum>  (309) 
14

>  <i_i_glide_rotatable_bonds>  (309) 
7

>  <r_i_docking_score>  (309) 
-3.00955

>  <r_i_glide_ligand_efficiency>  (309) 
-0.0699896

>  <r_i_glide_ligand_efficiency_sa>  (309) 
-0.245201

>  <r_i_glide_ligand_efficiency_ln>  (309) 
-0.632099

>  <r_i_glide_gscore>  (309) 
-3.00955

>  <r_i_glide_lipo>  (309) 
-0.129598

>  <r_i_glide_hbond>  (309) 
-0.152

>  <r_i_glide_metal>  (309) 
-0

>  <r_i_glide_rewards>  (309) 
0

>  <r_i_glide_evdw>  (309) 
-20.3449

>  <r_i_glide_ecoul>  (309) 
-11.7951

>  <r_i_glide_erotb>  (309) 
0.0585567

>  <r_i_glide_esite>  (309) 
0

>  <r_i_glide_emodel>  (309) 
-37.6662

>  <r_i_glide_energy>  (309) 
-32.14

>  <r_i_glide_einternal>  (309) 
2.56755

>  <r_i_glide_intrahb_reward>  (309) 
-0

>  <i_i_glide_confnum>  (309) 
1

>  <i_i_glide_posenum>  (309) 
17

>  <r_i_glide_eff_state_penalty>  (309) 
0

>  <ligand_id>  (309) 
95

>  <original_smiles>  (309) 
COC1CC2C(C)=CC3C4=CC5(O)C(O)C(C)=CC6(C(C)CC7(C)OC7C6(C)C3C3(C)C(O)CCC53O)C42OC1(C)CO

>  <smiles>  (309) 
[H]OC([H])([H])C1(C([H])([H])[H])OC23C4=C([H])C5(O[H])C([H])(O[H])C(C([H])([H])[H])=C([H])C26C([H])(C([H])([H])[H])C([H])([H])C2(C([H])([H])[H])OC2([H])C6(C([H])([H])[H])C([H])(C4([H])C([H])=C(C([H])([H])[H])C3([H])C([H])([H])C1([H])OC([H])([H])[H])C1(C([H])([H])[H])C([H])(O[H])C([H])([H])C([H])([H])C51O[H]

$$$$
95:0:2
     RDKit          3D

 93100  0  0  1  0  0  0  0  0999 V2000
    4.2005   -0.4352    6.1696 C   0  0  0  0  0  0  0  0  0  0  0  0
    4.3906   -1.4261    5.1664 O   0  0  0  0  0  0  0  0  0  0  0  0
    3.2538   -1.7232    4.3568 C   0  0  2  0  0  0  0  0  0  0  0  0
    2.1408   -2.4160    5.1271 C   0  0  0  0  0  0  0  0  0  0  0  0
    2.6347   -3.7598    5.6820 C   0  0  1  0  0  0  0  0  0  0  0  0
    1.5201   -4.2927    6.5997 C   0  0  0  0  0  0  0  0  0  0  0  0
    1.2818   -3.5417    7.9042 C   0  0  0  0  0  0  0  0  0  0  0  0
    0.8489   -5.4166    6.3027 C   0  0  0  0  0  0  0  0  0  0  0  0
    1.0994   -6.2107    5.0424 C   0  0  1  0  0  0  0  0  0  0  0  0
    1.8008   -5.3494    4.0338 C   0  0  0  0  0  0  0  0  0  0  0  0
    1.3275   -5.3563    2.8023 C   0  0  0  0  0  0  0  0  0  0  0  0
    1.7073   -6.4922    1.9029 C   0  0  1  0  0  0  0  0  0  0  0  0
    0.9257   -6.2946    0.7238 O   0  0  0  0  0  0  0  0  0  0  0  0
    3.1613   -6.3603    1.3633 C   0  0  1  0  0  0  0  0  0  0  0  0
    3.4624   -5.1126    0.7839 O   0  0  0  0  0  0  0  0  0  0  0  0
    4.3372   -6.8308    2.1994 C   0  0  0  0  0  0  0  0  0  0  0  0
    5.3392   -7.5965    1.3307 C   0  0  0  0  0  0  0  0  0  0  0  0
    4.6302   -6.6922    3.5159 C   0  0  0  0  0  0  0  0  0  0  0  0
    4.1209   -6.0024    4.8258 C   0  0  2  0  0  0  0  0  0  0  0  0
    5.5508   -5.6259    5.4740 C   0  0  1  0  0  0  0  0  0  0  0  0
    5.7662   -4.2969    6.2113 C   0  0  0  0  0  0  0  0  0  0  0  0
    6.3078   -6.7470    6.2850 C   0  0  0  0  0  0  0  0  0  0  0  0
    5.7419   -8.1661    6.3126 C   0  0  2  0  0  0  0  0  0  0  0  0
    6.4487   -9.0728    7.2978 C   0  0  0  0  0  0  0  0  0  0  0  0
    5.3578   -8.7984    5.0878 O   0  0  0  0  0  0  0  0  0  0  0  0
    4.3024   -8.3767    5.9735 C   0  0  2  0  0  0  0  0  0  0  0  0
    3.4205   -7.1369    5.7231 C   0  0  1  0  0  0  0  0  0  0  0  0
    3.3177   -6.6665    7.2226 C   0  0  0  0  0  0  0  0  0  0  0  0
    1.9478   -7.5061    5.1846 C   0  0  2  0  0  0  0  0  0  0  0  0
    1.6379   -8.5122    3.9470 C   0  0  1  0  0  0  0  0  0  0  0  0
    2.7055   -9.6376    3.8278 C   0  0  0  0  0  0  0  0  0  0  0  0
    0.3337   -9.3415    4.3073 C   0  0  1  0  0  0  0  0  0  0  0  0
   -0.5864   -8.7567    5.2086 O   0  0  0  0  0  0  0  0  0  0  0  0
   -0.4702   -9.5341    3.0307 C   0  0  0  0  0  0  0  0  0  0  0  0
   -0.2344   -8.2175    2.3086 C   0  0  0  0  0  0  0  0  0  0  0  0
    1.2849   -7.9323    2.4628 C   0  0  1  0  0  0  0  0  0  0  0  0
    1.8176   -8.7965    1.4641 O   0  0  0  0  0  0  0  0  0  0  0  0
    3.1180   -4.7516    4.5162 C   0  0  2  0  0  0  0  0  0  0  0  0
    3.8230   -4.0011    3.4907 O   0  0  0  0  0  0  0  0  0  0  0  0
    3.6287   -2.6036    3.1435 C   0  0  1  0  0  0  0  0  0  0  0  0
    2.5478   -2.3982    2.0480 C   0  0  0  0  0  0  0  0  0  0  0  0
    5.0039   -2.2053    2.5533 C   0  0  0  0  0  0  0  0  0  0  0  0
    5.0578   -0.8492    2.1455 O   0  0  0  0  0  0  0  0  0  0  0  0
    5.1481   -0.2468    6.6763 H   0  0  0  0  0  0  0  0  0  0  0  0
    3.4886   -0.7557    6.9319 H   0  0  0  0  0  0  0  0  0  0  0  0
    3.8592    0.5098    5.7432 H   0  0  0  0  0  0  0  0  0  0  0  0
    2.8837   -0.7641    3.9883 H   0  0  0  0  0  0  0  0  0  0  0  0
    1.7855   -1.7552    5.9133 H   0  0  0  0  0  0  0  0  0  0  0  0
    1.2741   -2.5706    4.4830 H   0  0  0  0  0  0  0  0  0  0  0  0
    3.4429   -3.5089    6.3500 H   0  0  0  0  0  0  0  0  0  0  0  0
    2.2240   -3.4027    8.4389 H   0  0  0  0  0  0  0  0  0  0  0  0
    0.6114   -4.1043    8.5565 H   0  0  0  0  0  0  0  0  0  0  0  0
    0.8357   -2.5615    7.7337 H   0  0  0  0  0  0  0  0  0  0  0  0
    0.0978   -5.8096    6.9765 H   0  0  0  0  0  0  0  0  0  0  0  0
    0.0995   -6.4474    4.6889 H   0  0  0  0  0  0  0  0  0  0  0  0
    0.2596   -5.5011    2.7992 H   0  0  0  0  0  0  0  0  0  0  0  0
    1.1145   -7.0381    0.1681 H   0  0  0  0  0  0  0  0  0  0  0  0
    3.2012   -7.0116    0.4906 H   0  0  0  0  0  0  0  0  0  0  0  0
    3.3743   -5.1825   -0.1567 H   0  0  0  0  0  0  0  0  0  0  0  0
    5.6555   -6.9688    0.4976 H   0  0  0  0  0  0  0  0  0  0  0  0
    4.8830   -8.5001    0.9209 H   0  0  0  0  0  0  0  0  0  0  0  0
    6.2397   -7.9082    1.8630 H   0  0  0  0  0  0  0  0  0  0  0  0
    5.5897   -7.1445    3.6804 H   0  0  0  0  0  0  0  0  0  0  0  0
    6.2094   -5.4171    4.6274 H   0  0  0  0  0  0  0  0  0  0  0  0
    5.2514   -4.2440    7.1699 H   0  0  0  0  0  0  0  0  0  0  0  0
    5.4929   -3.4589    5.5802 H   0  0  0  0  0  0  0  0  0  0  0  0
    6.8285   -4.1619    6.4274 H   0  0  0  0  0  0  0  0  0  0  0  0
    7.3511   -6.7986    5.9667 H   0  0  0  0  0  0  0  0  0  0  0  0
    6.3553   -6.4259    7.3300 H   0  0  0  0  0  0  0  0  0  0  0  0
    6.2985   -8.7084    8.3139 H   0  0  0  0  0  0  0  0  0  0  0  0
    7.5182   -9.1193    7.0952 H   0  0  0  0  0  0  0  0  0  0  0  0
    6.0454  -10.0840    7.2379 H   0  0  0  0  0  0  0  0  0  0  0  0
    3.8110   -9.1794    6.5240 H   0  0  0  0  0  0  0  0  0  0  0  0
    2.3731   -6.9287    7.6984 H   0  0  0  0  0  0  0  0  0  0  0  0
    3.4913   -5.6051    7.3417 H   0  0  0  0  0  0  0  0  0  0  0  0
    4.0625   -7.1009    7.8901 H   0  0  0  0  0  0  0  0  0  0  0  0
    1.5548   -8.0521    6.0436 H   0  0  0  0  0  0  0  0  0  0  0  0
    2.3877  -10.4447    3.1662 H   0  0  0  0  0  0  0  0  0  0  0  0
    2.8830  -10.1378    4.7769 H   0  0  0  0  0  0  0  0  0  0  0  0
    3.6464   -9.2743    3.4239 H   0  0  0  0  0  0  0  0  0  0  0  0
    0.5657  -10.3126    4.7440 H   0  0  0  0  0  0  0  0  0  0  0  0
   -1.2737   -9.4061    5.3294 H   0  0  0  0  0  0  0  0  0  0  0  0
   -0.0739  -10.3749    2.4568 H   0  0  0  0  0  0  0  0  0  0  0  0
   -1.5295   -9.7377    3.2044 H   0  0  0  0  0  0  0  0  0  0  0  0
   -0.5923   -8.2610    1.2799 H   0  0  0  0  0  0  0  0  0  0  0  0
   -0.8285   -7.4468    2.7982 H   0  0  0  0  0  0  0  0  0  0  0  0
    1.1157   -9.3066    1.0803 H   0  0  0  0  0  0  0  0  0  0  0  0
    2.3547   -1.3362    1.8757 H   0  0  0  0  0  0  0  0  0  0  0  0
    1.5914   -2.8434    2.3098 H   0  0  0  0  0  0  0  0  0  0  0  0
    2.8535   -2.7877    1.0803 H   0  0  0  0  0  0  0  0  0  0  0  0
    5.7914   -2.3824    3.2871 H   0  0  0  0  0  0  0  0  0  0  0  0
    5.2387   -2.8392    1.6955 H   0  0  0  0  0  0  0  0  0  0  0  0
    4.8442   -0.3102    2.8938 H   0  0  0  0  0  0  0  0  0  0  0  0
  1  2  1  0
  1 44  1  0
  1 45  1  0
  1 46  1  0
  2  3  1  0
  3 40  1  0
  3  4  1  0
  3 47  1  6
  4  5  1  0
  4 48  1  0
  4 49  1  0
  5 38  1  0
  5  6  1  0
  5 50  1  1
  6  7  1  0
  6  8  2  0
  7 51  1  0
  7 52  1  0
  7 53  1  0
  8  9  1  0
  8 54  1  0
  9 29  1  0
  9 10  1  0
  9 55  1  6
 10 38  1  0
 10 11  2  0
 11 12  1  0
 11 56  1  0
 12 36  1  0
 12 13  1  6
 12 14  1  0
 13 57  1  0
 14 15  1  0
 14 16  1  0
 14 58  1  6
 15 59  1  0
 16 17  1  0
 16 18  2  3
 17 60  1  0
 17 61  1  0
 17 62  1  0
 19 18  1  6
 18 63  1  0
 19 27  1  0
 19 20  1  0
 19 38  1  0
 20 21  1  0
 20 22  1  0
 20 64  1  6
 21 65  1  0
 21 66  1  0
 21 67  1  0
 22 23  1  0
 22 68  1  0
 22 69  1  0
 23 26  1  0
 23 24  1  1
 23 25  1  0
 24 70  1  0
 24 71  1  0
 24 72  1  0
 25 26  1  0
 26 27  1  0
 26 73  1  1
 27 28  1  1
 27 29  1  0
 28 74  1  0
 28 75  1  0
 28 76  1  0
 29 30  1  0
 29 77  1  1
 30 36  1  0
 30 31  1  6
 30 32  1  0
 31 78  1  0
 31 79  1  0
 31 80  1  0
 32 33  1  0
 32 34  1  0
 32 81  1  1
 33 82  1  0
 34 35  1  0
 34 83  1  0
 34 84  1  0
 35 36  1  0
 35 85  1  0
 35 86  1  0
 36 37  1  6
 37 87  1  0
 38 39  1  6
 39 40  1  0
 40 41  1  6
 40 42  1  0
 41 88  1  0
 41 89  1  0
 41 90  1  0
 42 43  1  0
 42 91  1  0
 42 92  1  0
 43 93  1  0
M  END
>  <i_m_ct_stereo_status>  (310) 
1

>  <s_m_source_file>  (310) 
/var/tmp/pbs.5076255.sched01/tmpk7n3yjou/123nw9z_609.sdf

>  <i_m_source_file_index>  (310) 
14

>  <i_lp_mmshare_version>  (310) 
48012

>  <i_f3d_flags>  (310) 
0

>  <s_epik_input>  (310) 
W09IXVtDSDJdW0NAXShPMSkoW0NIM10pW0NASF0oT1tDSDNdKVtDSDJdW0NASF0oW0NAXTEyW0NAQF0zNDUpQyhbQ0gzXSk9W0NIXVtDQEhdNkMyPVtDSF1bQ0BAXShbT0hdKShbQ0BASF0oW09IXSkvQyhbQ0gzXSk9W0NIXVwzKVtDQEBdNyhbT0hdKVtDQF0oW0NIM10pKFtDQEBIXShbT0hdKVtDSDJdW0NIMl03KVtDQEhdNltDQEBdNShbQ0gzXSlbQ0BASF04W0NAXShPOCkoW0NIM10pW0NIMl1bQ0BASF00W0NIM10=

>  <s_epik_cmdline>  (310) 
J2VwaWtfcHl0aG9uJywgJy1waHQnLCAnMi4wJywgJy1waCcsICc3LjAnLCAnLXRuJywgJzgnLCAnLW1hJywgJzIwMCcsICctaW1hZScsICc8aW5maWxlLm1hZT4nLCAnLW9tYWUnLCAnPG91dGZpbGUubWFlPic=

>  <r_lp_tautomer_probability>  (310) 
1

>  <r_epik_Ionization_Penalty>  (310) 
8.03466e-07

>  <r_epik_Ionization_Penalty_Charging>  (310) 
0

>  <r_epik_Ionization_Penalty_Neutral>  (310) 
8.03466e-07

>  <r_epik_State_Penalty>  (310) 
-0

>  <r_epik_Charging_Adjusted_Penalty>  (310) 
0

>  <i_epik_Tot_Q>  (310) 
0

>  <i_epik_Tot_abs_Q>  (310) 
0

>  <s_lp_Force_Field>  (310) 
OPLS3e

>  <r_lp_Energy>  (310) 
217.094

>  <b_lp_Chiralities_Consistent>  (310) 
1

>  <s_lp_Variant>  (310) 
95:0-1

>  <s_i_glide_gridfile>  (310) 
pfpi4k_grid

>  <i_i_glide_lignum>  (310) 
14

>  <i_i_glide_rotatable_bonds>  (310) 
7

>  <r_i_docking_score>  (310) 
-2.84313

>  <r_i_glide_ligand_efficiency>  (310) 
-0.0661194

>  <r_i_glide_ligand_efficiency_sa>  (310) 
-0.231642

>  <r_i_glide_ligand_efficiency_ln>  (310) 
-0.597146

>  <r_i_glide_gscore>  (310) 
-2.84313

>  <r_i_glide_lipo>  (310) 
-0.221889

>  <r_i_glide_hbond>  (310) 
-0.152

>  <r_i_glide_metal>  (310) 
-0

>  <r_i_glide_rewards>  (310) 
0

>  <r_i_glide_evdw>  (310) 
-22.602

>  <r_i_glide_ecoul>  (310) 
-9.31799

>  <r_i_glide_erotb>  (310) 
0.0585567

>  <r_i_glide_esite>  (310) 
0

>  <r_i_glide_emodel>  (310) 
-37.1347

>  <r_i_glide_energy>  (310) 
-31.92

>  <r_i_glide_einternal>  (310) 
2.43202

>  <r_i_glide_intrahb_reward>  (310) 
-0

>  <i_i_glide_confnum>  (310) 
2

>  <i_i_glide_posenum>  (310) 
7

>  <r_i_glide_eff_state_penalty>  (310) 
0

>  <ligand_id>  (310) 
95

>  <original_smiles>  (310) 
COC1CC2C(C)=CC3C4=CC5(O)C(O)C(C)=CC6(C(C)CC7(C)OC7C6(C)C3C3(C)C(O)CCC53O)C42OC1(C)CO

>  <smiles>  (310) 
[H]OC([H])([H])C1(C([H])([H])[H])OC23C4=C([H])C5(O[H])C([H])(O[H])C(C([H])([H])[H])=C([H])C26C([H])(C([H])([H])[H])C([H])([H])C2(C([H])([H])[H])OC2([H])C6(C([H])([H])[H])C([H])(C4([H])C([H])=C(C([H])([H])[H])C3([H])C([H])([H])C1([H])OC([H])([H])[H])C1(C([H])([H])[H])C([H])(O[H])C([H])([H])C([H])([H])C51O[H]

$$$$
95:1:0
     RDKit          3D

 93100  0  0  1  0  0  0  0  0999 V2000
    3.1614   -1.0825    7.6401 C   0  0  0  0  0  0  0  0  0  0  0  0
    3.1830   -1.7705    6.3963 O   0  0  0  0  0  0  0  0  0  0  0  0
    1.9422   -2.3394    5.9817 C   0  0  2  0  0  0  0  0  0  0  0  0
    1.6032   -3.5684    6.8062 C   0  0  0  0  0  0  0  0  0  0  0  0
    2.6858   -4.6500    6.6506 C   0  0  1  0  0  0  0  0  0  0  0  0
    2.2757   -5.7621    7.6220 C   0  0  0  0  0  0  0  0  0  0  0  0
    2.3876   -5.4642    9.1139 C   0  0  0  0  0  0  0  0  0  0  0  0
    1.9172   -6.9684    7.1741 C   0  0  0  0  0  0  0  0  0  0  0  0
    1.8592   -7.3231    5.7085 C   0  0  1  0  0  0  0  0  0  0  0  0
    1.7633   -6.0986    4.8226 C   0  0  0  0  0  0  0  0  0  0  0  0
    1.0157   -6.1572    3.6993 C   0  0  0  0  0  0  0  0  0  0  0  0
    1.2842   -7.1144    2.5105 C   0  0  1  0  0  0  0  0  0  0  0  0
    0.0404   -7.1367    1.7978 O   0  0  0  0  0  0  0  0  0  0  0  0
    2.3428   -6.5328    1.4381 C   0  0  1  0  0  0  0  0  0  0  0  0
    1.7342   -5.8533    0.3410 O   0  0  0  0  0  0  0  0  0  0  0  0
    3.4083   -5.6710    2.1062 C   0  0  0  0  0  0  0  0  0  0  0  0
    3.5237   -4.2209    1.6607 C   0  0  0  0  0  0  0  0  0  0  0  0
    3.9984   -6.2690    3.1523 C   0  0  0  0  0  0  0  0  0  0  0  0
    4.2531   -5.8522    4.6126 C   0  0  2  0  0  0  0  0  0  0  0  0
    5.5962   -5.0113    4.6124 C   0  0  1  0  0  0  0  0  0  0  0  0
    5.8802   -4.0885    5.8153 C   0  0  0  0  0  0  0  0  0  0  0  0
    6.8909   -5.7723    4.1641 C   0  0  0  0  0  0  0  0  0  0  0  0
    6.9143   -7.2708    4.3809 C   0  0  2  0  0  0  0  0  0  0  0  0
    8.3019   -7.8376    4.6147 C   0  0  0  0  0  0  0  0  0  0  0  0
    6.1104   -7.9864    3.4279 O   0  0  0  0  0  0  0  0  0  0  0  0
    5.6864   -8.0332    4.7941 C   0  0  2  0  0  0  0  0  0  0  0  0
    4.4468   -7.2840    5.3170 C   0  0  1  0  0  0  0  0  0  0  0  0
    4.9355   -7.1271    6.7984 C   0  0  0  0  0  0  0  0  0  0  0  0
    3.0777   -8.1802    5.2697 C   0  0  2  0  0  0  0  0  0  0  0  0
    2.5918   -9.1779    4.0835 C   0  0  1  0  0  0  0  0  0  0  0  0
    3.7886   -9.9090    3.3937 C   0  0  0  0  0  0  0  0  0  0  0  0
    1.8379  -10.4142    4.7569 C   0  0  1  0  0  0  0  0  0  0  0  0
    1.3362  -10.2540    6.0775 O   0  0  0  0  0  0  0  0  0  0  0  0
    0.6412  -10.7479    3.8789 C   0  0  0  0  0  0  0  0  0  0  0  0
    0.2046   -9.3921    3.3400 C   0  0  0  0  0  0  0  0  0  0  0  0
    1.5190   -8.6555    2.9547 C   0  0  1  0  0  0  0  0  0  0  0  0
    1.8312   -9.3035    1.7176 O   0  0  0  0  0  0  0  0  0  0  0  0
    2.8958   -5.0984    5.1229 C   0  0  2  0  0  0  0  0  0  0  0  0
    2.8618   -3.8948    4.3174 O   0  0  0  0  0  0  0  0  0  0  0  0
    2.0102   -2.7403    4.4975 C   0  0  1  0  0  0  0  0  0  0  0  0
    0.6029   -3.0157    3.9226 C   0  0  0  0  0  0  0  0  0  0  0  0
    2.6587   -1.5945    3.6707 C   0  0  0  0  0  0  0  0  0  0  0  0
    1.9519   -0.3727    3.7626 O   0  0  0  0  0  0  0  0  0  0  0  0
    4.1363   -0.6257    7.8167 H   0  0  0  0  0  0  0  0  0  0  0  0
    2.9662   -1.7567    8.4757 H   0  0  0  0  0  0  0  0  0  0  0  0
    2.4151   -0.2856    7.6479 H   0  0  0  0  0  0  0  0  0  0  0  0
    1.1616   -1.5861    6.1016 H   0  0  0  0  0  0  0  0  0  0  0  0
    1.4810   -3.2687    7.8447 H   0  0  0  0  0  0  0  0  0  0  0  0
    0.6289   -3.9681    6.5218 H   0  0  0  0  0  0  0  0  0  0  0  0
    3.6005   -4.2311    7.0543 H   0  0  0  0  0  0  0  0  0  0  0  0
    3.3635   -5.0345    9.3480 H   0  0  0  0  0  0  0  0  0  0  0  0
    2.2829   -6.3805    9.6974 H   0  0  0  0  0  0  0  0  0  0  0  0
    1.6156   -4.7721    9.4495 H   0  0  0  0  0  0  0  0  0  0  0  0
    1.6723   -7.7664    7.8660 H   0  0  0  0  0  0  0  0  0  0  0  0
    0.9283   -7.8737    5.6228 H   0  0  0  0  0  0  0  0  0  0  0  0
    0.0844   -6.6170    3.9960 H   0  0  0  0  0  0  0  0  0  0  0  0
    0.0385   -7.9030    1.2414 H   0  0  0  0  0  0  0  0  0  0  0  0
    2.9080   -7.3321    0.9632 H   0  0  0  0  0  0  0  0  0  0  0  0
    2.3809   -5.7747   -0.3509 H   0  0  0  0  0  0  0  0  0  0  0  0
    3.9287   -4.1739    0.6477 H   0  0  0  0  0  0  0  0  0  0  0  0
    4.1909   -3.6298    2.2852 H   0  0  0  0  0  0  0  0  0  0  0  0
    2.5407   -3.7492    1.6370 H   0  0  0  0  0  0  0  0  0  0  0  0
    3.8334   -7.3151    3.0828 H   0  0  0  0  0  0  0  0  0  0  0  0
    5.4662   -4.2748    3.8284 H   0  0  0  0  0  0  0  0  0  0  0  0
    5.9696   -4.6088    6.7660 H   0  0  0  0  0  0  0  0  0  0  0  0
    5.1113   -3.3249    5.8916 H   0  0  0  0  0  0  0  0  0  0  0  0
    6.8079   -3.5283    5.6814 H   0  0  0  0  0  0  0  0  0  0  0  0
    7.0664   -5.5971    3.0960 H   0  0  0  0  0  0  0  0  0  0  0  0
    7.7648   -5.3603    4.6755 H   0  0  0  0  0  0  0  0  0  0  0  0
    8.7054   -7.5008    5.5730 H   0  0  0  0  0  0  0  0  0  0  0  0
    8.9851   -7.5395    3.8194 H   0  0  0  0  0  0  0  0  0  0  0  0
    8.2566   -8.9242    4.6338 H   0  0  0  0  0  0  0  0  0  0  0  0
    5.8617   -8.9905    5.2764 H   0  0  0  0  0  0  0  0  0  0  0  0
    4.6480   -7.9653    7.4370 H   0  0  0  0  0  0  0  0  0  0  0  0
    4.6176   -6.2168    7.2799 H   0  0  0  0  0  0  0  0  0  0  0  0
    6.0238   -7.0573    6.8798 H   0  0  0  0  0  0  0  0  0  0  0  0
    3.2927   -8.8877    6.0725 H   0  0  0  0  0  0  0  0  0  0  0  0
    3.4590  -10.7889    2.8369 H   0  0  0  0  0  0  0  0  0  0  0  0
    4.5020  -10.2959    4.1179 H   0  0  0  0  0  0  0  0  0  0  0  0
    4.3120   -9.3065    2.6563 H   0  0  0  0  0  0  0  0  0  0  0  0
    2.4775  -11.2914    4.8318 H   0  0  0  0  0  0  0  0  0  0  0  0
    1.3558  -11.1025    6.5477 H   0  0  0  0  0  0  0  0  0  0  0  0
    0.9466  -11.3951    3.0532 H   0  0  0  0  0  0  0  0  0  0  0  0
   -0.1569  -11.2662    4.4103 H   0  0  0  0  0  0  0  0  0  0  0  0
   -0.5057   -9.5132    2.5170 H   0  0  0  0  0  0  0  0  0  0  0  0
   -0.3267   -8.8647    4.1307 H   0  0  0  0  0  0  0  0  0  0  0  0
    1.0592   -9.4533    1.1890 H   0  0  0  0  0  0  0  0  0  0  0  0
   -0.0291   -2.1265    3.9648 H   0  0  0  0  0  0  0  0  0  0  0  0
    0.0695   -3.7975    4.4575 H   0  0  0  0  0  0  0  0  0  0  0  0
    0.6635   -3.3205    2.8763 H   0  0  0  0  0  0  0  0  0  0  0  0
    3.6902   -1.4319    3.9842 H   0  0  0  0  0  0  0  0  0  0  0  0
    2.6974   -1.8414    2.6133 H   0  0  0  0  0  0  0  0  0  0  0  0
    2.3515    0.2421    3.1613 H   0  0  0  0  0  0  0  0  0  0  0  0
  1  2  1  0
  1 44  1  0
  1 45  1  0
  1 46  1  0
  2  3  1  0
  3 40  1  0
  3  4  1  0
  3 47  1  6
  4  5  1  0
  4 48  1  0
  4 49  1  0
  5 38  1  0
  5  6  1  0
  5 50  1  1
  6  7  1  0
  6  8  2  0
  7 51  1  0
  7 52  1  0
  7 53  1  0
  8  9  1  0
  8 54  1  0
  9 29  1  0
  9 10  1  0
  9 55  1  1
 10 38  1  0
 10 11  2  0
 11 12  1  0
 11 56  1  0
 12 36  1  0
 12 13  1  6
 12 14  1  0
 13 57  1  0
 14 15  1  0
 14 16  1  0
 14 58  1  6
 15 59  1  0
 16 17  1  0
 16 18  2  3
 17 60  1  0
 17 61  1  0
 17 62  1  0
 19 18  1  6
 18 63  1  0
 19 27  1  0
 19 20  1  0
 19 38  1  0
 20 21  1  0
 20 22  1  0
 20 64  1  6
 21 65  1  0
 21 66  1  0
 21 67  1  0
 22 23  1  0
 22 68  1  0
 22 69  1  0
 23 26  1  0
 23 24  1  1
 23 25  1  0
 24 70  1  0
 24 71  1  0
 24 72  1  0
 25 26  1  0
 26 27  1  0
 26 73  1  1
 27 28  1  1
 27 29  1  0
 28 74  1  0
 28 75  1  0
 28 76  1  0
 29 30  1  0
 29 77  1  1
 30 36  1  0
 30 31  1  6
 30 32  1  0
 31 78  1  0
 31 79  1  0
 31 80  1  0
 32 33  1  0
 32 34  1  0
 32 81  1  1
 33 82  1  0
 34 35  1  0
 34 83  1  0
 34 84  1  0
 35 36  1  0
 35 85  1  0
 35 86  1  0
 36 37  1  6
 37 87  1  0
 38 39  1  6
 39 40  1  0
 40 41  1  6
 40 42  1  0
 41 88  1  0
 41 89  1  0
 41 90  1  0
 42 43  1  0
 42 91  1  0
 42 92  1  0
 43 93  1  0
M  END
>  <i_m_ct_stereo_status>  (311) 
1

>  <s_m_source_file>  (311) 
/var/tmp/pbs.5076255.sched01/tmpk7n3yjou/123nw9z_609.sdf

>  <i_m_source_file_index>  (311) 
15

>  <i_lp_mmshare_version>  (311) 
48012

>  <i_f3d_flags>  (311) 
0

>  <s_epik_input>  (311) 
W09IXVtDSDJdW0NAXShPMSkoW0NIM10pW0NASF0oT1tDSDNdKVtDSDJdW0NASF0oW0NAXTEyW0NAQF0zNDUpQyhbQ0gzXSk9W0NIXVtDQEhdNkMyPVtDSF1bQ0BAXShbT0hdKShbQ0BASF0oW09IXSkvQyhbQ0gzXSk9W0NIXVwzKVtDQEBdNyhbT0hdKVtDQF0oW0NIM10pKFtDQEBIXShbT0hdKVtDSDJdW0NIMl03KVtDQEhdNltDQEBdNShbQ0gzXSlbQ0BASF04W0NAXShPOCkoW0NIM10pW0NIMl1bQ0BASF00W0NIM10=

>  <s_epik_cmdline>  (311) 
J2VwaWtfcHl0aG9uJywgJy1waHQnLCAnMi4wJywgJy1waCcsICc3LjAnLCAnLXRuJywgJzgnLCAnLW1hJywgJzIwMCcsICctaW1hZScsICc8aW5maWxlLm1hZT4nLCAnLW9tYWUnLCAnPG91dGZpbGUubWFlPic=

>  <r_lp_tautomer_probability>  (311) 
1

>  <r_epik_Ionization_Penalty>  (311) 
8.03466e-07

>  <r_epik_Ionization_Penalty_Charging>  (311) 
0

>  <r_epik_Ionization_Penalty_Neutral>  (311) 
8.03466e-07

>  <r_epik_State_Penalty>  (311) 
-0

>  <r_epik_Charging_Adjusted_Penalty>  (311) 
0

>  <i_epik_Tot_Q>  (311) 
0

>  <i_epik_Tot_abs_Q>  (311) 
0

>  <s_lp_Force_Field>  (311) 
OPLS3e

>  <r_lp_Energy>  (311) 
237.351

>  <b_lp_Chiralities_Consistent>  (311) 
1

>  <s_lp_Variant>  (311) 
95:0-2

>  <s_i_glide_gridfile>  (311) 
pfpi4k_grid

>  <i_i_glide_lignum>  (311) 
15

>  <i_i_glide_rotatable_bonds>  (311) 
7

>  <r_i_docking_score>  (311) 
-3.28695

>  <r_i_glide_ligand_efficiency>  (311) 
-0.0764407

>  <r_i_glide_ligand_efficiency_sa>  (311) 
-0.267802

>  <r_i_glide_ligand_efficiency_ln>  (311) 
-0.690362

>  <r_i_glide_gscore>  (311) 
-3.28695

>  <r_i_glide_lipo>  (311) 
-0.0510611

>  <r_i_glide_hbond>  (311) 
-0.149969

>  <r_i_glide_metal>  (311) 
-0

>  <r_i_glide_rewards>  (311) 
0

>  <r_i_glide_evdw>  (311) 
-21.5274

>  <r_i_glide_ecoul>  (311) 
-13.7874

>  <r_i_glide_erotb>  (311) 
0.0585567

>  <r_i_glide_esite>  (311) 
0

>  <r_i_glide_emodel>  (311) 
-41.9531

>  <r_i_glide_energy>  (311) 
-35.3148

>  <r_i_glide_einternal>  (311) 
2.54707

>  <r_i_glide_intrahb_reward>  (311) 
-0

>  <i_i_glide_confnum>  (311) 
4

>  <i_i_glide_posenum>  (311) 
39

>  <r_i_glide_eff_state_penalty>  (311) 
0

>  <ligand_id>  (311) 
95

>  <original_smiles>  (311) 
COC1CC2C(C)=CC3C4=CC5(O)C(O)C(C)=CC6(C(C)CC7(C)OC7C6(C)C3C3(C)C(O)CCC53O)C42OC1(C)CO

>  <smiles>  (311) 
[H]OC([H])([H])C1(C([H])([H])[H])OC23C4=C([H])C5(O[H])C([H])(O[H])C(C([H])([H])[H])=C([H])C26C([H])(C([H])([H])[H])C([H])([H])C2(C([H])([H])[H])OC2([H])C6(C([H])([H])[H])C([H])(C4([H])C([H])=C(C([H])([H])[H])C3([H])C([H])([H])C1([H])OC([H])([H])[H])C1(C([H])([H])[H])C([H])(O[H])C([H])([H])C([H])([H])C51O[H]

$$$$
95:1:1
     RDKit          3D

 93100  0  0  1  0  0  0  0  0999 V2000
    2.5733   -0.9844    8.0205 C   0  0  0  0  0  0  0  0  0  0  0  0
    2.7827   -1.5811    6.7468 O   0  0  0  0  0  0  0  0  0  0  0  0
    1.6069   -2.0192    6.0667 C   0  0  2  0  0  0  0  0  0  0  0  0
    1.0343   -3.2663    6.7146 C   0  0  0  0  0  0  0  0  0  0  0  0
    2.0508   -4.4199    6.6789 C   0  0  1  0  0  0  0  0  0  0  0  0
    1.3885   -5.5551    7.4661 C   0  0  0  0  0  0  0  0  0  0  0  0
    1.2341   -5.3648    8.9700 C   0  0  0  0  0  0  0  0  0  0  0  0
    1.0406   -6.6990    6.8654 C   0  0  0  0  0  0  0  0  0  0  0  0
    1.2425   -6.9521    5.3949 C   0  0  1  0  0  0  0  0  0  0  0  0
    1.4030   -5.6669    4.6041 C   0  0  0  0  0  0  0  0  0  0  0  0
    0.8884   -5.5892    3.3656 C   0  0  0  0  0  0  0  0  0  0  0  0
    1.3089   -6.4893    2.1742 C   0  0  1  0  0  0  0  0  0  0  0  0
    0.2199   -6.3974    1.2489 O   0  0  0  0  0  0  0  0  0  0  0  0
    2.5857   -5.9306    1.3595 C   0  0  1  0  0  0  0  0  0  0  0  0
    2.2336   -5.1392    0.2283 O   0  0  0  0  0  0  0  0  0  0  0  0
    3.5605   -5.2019    2.2765 C   0  0  0  0  0  0  0  0  0  0  0  0
    3.8496   -3.7385    1.9763 C   0  0  0  0  0  0  0  0  0  0  0  0
    3.8960   -5.9094    3.3640 C   0  0  0  0  0  0  0  0  0  0  0  0
    3.8953   -5.6108    4.8764 C   0  0  2  0  0  0  0  0  0  0  0  0
    5.2658   -4.8802    5.1848 C   0  0  1  0  0  0  0  0  0  0  0  0
    5.3823   -4.0652    6.4885 C   0  0  0  0  0  0  0  0  0  0  0  0
    6.5686   -5.7081    4.9259 C   0  0  0  0  0  0  0  0  0  0  0  0
    6.4466   -7.2190    5.0264 C   0  0  2  0  0  0  0  0  0  0  0  0
    7.7223   -7.9123    5.4690 C   0  0  0  0  0  0  0  0  0  0  0  0
    5.7929   -7.8053    3.8946 O   0  0  0  0  0  0  0  0  0  0  0  0
    5.1147   -7.9070    5.1443 C   0  0  2  0  0  0  0  0  0  0  0  0
    3.8512   -7.0985    5.4916 C   0  0  1  0  0  0  0  0  0  0  0  0
    4.0585   -7.0759    7.0435 C   0  0  0  0  0  0  0  0  0  0  0  0
    2.4602   -7.8757    5.1242 C   0  0  2  0  0  0  0  0  0  0  0  0
    2.1451   -8.7487    3.7880 C   0  0  1  0  0  0  0  0  0  0  0  0
    3.3942   -9.5308    3.2772 C   0  0  0  0  0  0  0  0  0  0  0  0
    1.1835   -9.9515    4.2053 C   0  0  1  0  0  0  0  0  0  0  0  0
    0.3971   -9.8038    5.3807 O   0  0  0  0  0  0  0  0  0  0  0  0
    0.1730  -10.1287    3.0849 C   0  0  0  0  0  0  0  0  0  0  0  0
   -0.0644   -8.7080    2.6121 C   0  0  0  0  0  0  0  0  0  0  0  0
    1.3458   -8.0638    2.5334 C   0  0  1  0  0  0  0  0  0  0  0  0
    1.8164   -8.6350    1.3079 O   0  0  0  0  0  0  0  0  0  0  0  0
    2.5208   -4.7836    5.1879 C   0  0  2  0  0  0  0  0  0  0  0  0
    2.7197   -3.5307    4.4837 O   0  0  0  0  0  0  0  0  0  0  0  0
    1.9277   -2.3258    4.5930 C   0  0  1  0  0  0  0  0  0  0  0  0
    0.6411   -2.4438    3.7418 C   0  0  0  0  0  0  0  0  0  0  0  0
    2.7998   -1.1865    3.9947 C   0  0  0  0  0  0  0  0  0  0  0  0
    2.1810    0.0848    4.0666 O   0  0  0  0  0  0  0  0  0  0  0  0
    3.5254   -0.6196    8.4082 H   0  0  0  0  0  0  0  0  0  0  0  0
    2.1842   -1.6987    8.7472 H   0  0  0  0  0  0  0  0  0  0  0  0
    1.8917   -0.1342    7.9605 H   0  0  0  0  0  0  0  0  0  0  0  0
    0.8716   -1.2130    6.0996 H   0  0  0  0  0  0  0  0  0  0  0  0
    0.7402   -3.0249    7.7330 H   0  0  0  0  0  0  0  0  0  0  0  0
    0.1077   -3.5651    6.2236 H   0  0  0  0  0  0  0  0  0  0  0  0
    2.8998   -4.1038    7.2748 H   0  0  0  0  0  0  0  0  0  0  0  0
    2.1761   -5.0310    9.4121 H   0  0  0  0  0  0  0  0  0  0  0  0
    0.9603   -6.3058    9.4506 H   0  0  0  0  0  0  0  0  0  0  0  0
    0.4613   -4.6337    9.2111 H   0  0  0  0  0  0  0  0  0  0  0  0
    0.6169   -7.5173    7.4351 H   0  0  0  0  0  0  0  0  0  0  0  0
    0.3067   -7.4077    5.0925 H   0  0  0  0  0  0  0  0  0  0  0  0
   -0.1078   -5.9950    3.4527 H   0  0  0  0  0  0  0  0  0  0  0  0
    0.2254   -7.2077    0.7587 H   0  0  0  0  0  0  0  0  0  0  0  0
    3.1732   -6.7412    0.9321 H   0  0  0  0  0  0  0  0  0  0  0  0
    2.8411   -5.3324   -0.4746 H   0  0  0  0  0  0  0  0  0  0  0  0
    4.4391   -3.6614    1.0620 H   0  0  0  0  0  0  0  0  0  0  0  0
    4.4242   -3.2458    2.7562 H   0  0  0  0  0  0  0  0  0  0  0  0
    2.9227   -3.1902    1.8088 H   0  0  0  0  0  0  0  0  0  0  0  0
    3.6752   -6.9332    3.1864 H   0  0  0  0  0  0  0  0  0  0  0  0
    5.3351   -4.0851    4.4514 H   0  0  0  0  0  0  0  0  0  0  0  0
    5.2588   -4.6495    7.3983 H   0  0  0  0  0  0  0  0  0  0  0  0
    4.6651   -3.2501    6.4847 H   0  0  0  0  0  0  0  0  0  0  0  0
    6.3569   -3.5739    6.5526 H   0  0  0  0  0  0  0  0  0  0  0  0
    6.9495   -5.4863    3.9238 H   0  0  0  0  0  0  0  0  0  0  0  0
    7.3623   -5.3857    5.6057 H   0  0  0  0  0  0  0  0  0  0  0  0
    7.9583   -7.6736    6.5087 H   0  0  0  0  0  0  0  0  0  0  0  0
    8.5603   -7.6199    4.8386 H   0  0  0  0  0  0  0  0  0  0  0  0
    7.5965   -8.9902    5.3925 H   0  0  0  0  0  0  0  0  0  0  0  0
    5.1289   -8.9053    5.5772 H   0  0  0  0  0  0  0  0  0  0  0  0
    3.5987   -7.9298    7.5476 H   0  0  0  0  0  0  0  0  0  0  0  0
    3.7169   -6.1753    7.5282 H   0  0  0  0  0  0  0  0  0  0  0  0
    5.1132   -7.1008    7.3294 H   0  0  0  0  0  0  0  0  0  0  0  0
    2.4579   -8.6542    5.8916 H   0  0  0  0  0  0  0  0  0  0  0  0
    3.1150  -10.3424    2.6017 H   0  0  0  0  0  0  0  0  0  0  0  0
    3.9302  -10.0196    4.0889 H   0  0  0  0  0  0  0  0  0  0  0  0
    4.0869   -8.9245    2.6998 H   0  0  0  0  0  0  0  0  0  0  0  0
    1.7228  -10.8903    4.3431 H   0  0  0  0  0  0  0  0  0  0  0  0
   -0.3241  -10.4266    5.3477 H   0  0  0  0  0  0  0  0  0  0  0  0
    0.5897  -10.7417    2.2823 H   0  0  0  0  0  0  0  0  0  0  0  0
   -0.7472  -10.6072    3.4050 H   0  0  0  0  0  0  0  0  0  0  0  0
   -0.6286   -8.7110    1.6788 H   0  0  0  0  0  0  0  0  0  0  0  0
   -0.6975   -8.1950    3.3367 H   0  0  0  0  0  0  0  0  0  0  0  0
    1.1238   -9.1700    0.9243 H   0  0  0  0  0  0  0  0  0  0  0  0
    0.0750   -1.5084    3.7413 H   0  0  0  0  0  0  0  0  0  0  0  0
   -0.0369   -3.2163    4.1000 H   0  0  0  0  0  0  0  0  0  0  0  0
    0.8853   -2.6737    2.7041 H   0  0  0  0  0  0  0  0  0  0  0  0
    3.7648   -1.1369    4.4998 H   0  0  0  0  0  0  0  0  0  0  0  0
    3.0133   -1.3612    2.9429 H   0  0  0  0  0  0  0  0  0  0  0  0
    2.7260    0.7036    3.6025 H   0  0  0  0  0  0  0  0  0  0  0  0
  1  2  1  0
  1 44  1  0
  1 45  1  0
  1 46  1  0
  2  3  1  0
  3 40  1  0
  3  4  1  0
  3 47  1  6
  4  5  1  0
  4 48  1  0
  4 49  1  0
  5 38  1  0
  5  6  1  0
  5 50  1  1
  6  7  1  0
  6  8  2  0
  7 51  1  0
  7 52  1  0
  7 53  1  0
  8  9  1  0
  8 54  1  0
  9 29  1  0
  9 10  1  0
  9 55  1  6
 10 38  1  0
 10 11  2  0
 11 12  1  0
 11 56  1  0
 12 36  1  0
 12 13  1  6
 12 14  1  0
 13 57  1  0
 14 15  1  0
 14 16  1  0
 14 58  1  6
 15 59  1  0
 16 17  1  0
 16 18  2  3
 17 60  1  0
 17 61  1  0
 17 62  1  0
 19 18  1  6
 18 63  1  0
 19 27  1  0
 19 20  1  0
 19 38  1  0
 20 21  1  0
 20 22  1  0
 20 64  1  6
 21 65  1  0
 21 66  1  0
 21 67  1  0
 22 23  1  0
 22 68  1  0
 22 69  1  0
 23 26  1  0
 23 24  1  1
 23 25  1  0
 24 70  1  0
 24 71  1  0
 24 72  1  0
 25 26  1  0
 26 27  1  0
 26 73  1  1
 27 28  1  1
 27 29  1  0
 28 74  1  0
 28 75  1  0
 28 76  1  0
 29 30  1  0
 29 77  1  1
 30 36  1  0
 30 31  1  6
 30 32  1  0
 31 78  1  0
 31 79  1  0
 31 80  1  0
 32 33  1  0
 32 34  1  0
 32 81  1  1
 33 82  1  0
 34 35  1  0
 34 83  1  0
 34 84  1  0
 35 36  1  0
 35 85  1  0
 35 86  1  0
 36 37  1  6
 37 87  1  0
 38 39  1  6
 39 40  1  0
 40 41  1  6
 40 42  1  0
 41 88  1  0
 41 89  1  0
 41 90  1  0
 42 43  1  0
 42 91  1  0
 42 92  1  0
 43 93  1  0
M  END
>  <i_m_ct_stereo_status>  (312) 
1

>  <s_m_source_file>  (312) 
/var/tmp/pbs.5076255.sched01/tmpk7n3yjou/123nw9z_609.sdf

>  <i_m_source_file_index>  (312) 
15

>  <i_lp_mmshare_version>  (312) 
48012

>  <i_f3d_flags>  (312) 
0

>  <s_epik_input>  (312) 
W09IXVtDSDJdW0NAXShPMSkoW0NIM10pW0NASF0oT1tDSDNdKVtDSDJdW0NASF0oW0NAXTEyW0NAQF0zNDUpQyhbQ0gzXSk9W0NIXVtDQEhdNkMyPVtDSF1bQ0BAXShbT0hdKShbQ0BASF0oW09IXSkvQyhbQ0gzXSk9W0NIXVwzKVtDQEBdNyhbT0hdKVtDQF0oW0NIM10pKFtDQEBIXShbT0hdKVtDSDJdW0NIMl03KVtDQEhdNltDQEBdNShbQ0gzXSlbQ0BASF04W0NAXShPOCkoW0NIM10pW0NIMl1bQ0BASF00W0NIM10=

>  <s_epik_cmdline>  (312) 
J2VwaWtfcHl0aG9uJywgJy1waHQnLCAnMi4wJywgJy1waCcsICc3LjAnLCAnLXRuJywgJzgnLCAnLW1hJywgJzIwMCcsICctaW1hZScsICc8aW5maWxlLm1hZT4nLCAnLW9tYWUnLCAnPG91dGZpbGUubWFlPic=

>  <r_lp_tautomer_probability>  (312) 
1

>  <r_epik_Ionization_Penalty>  (312) 
8.03466e-07

>  <r_epik_Ionization_Penalty_Charging>  (312) 
0

>  <r_epik_Ionization_Penalty_Neutral>  (312) 
8.03466e-07

>  <r_epik_State_Penalty>  (312) 
-0

>  <r_epik_Charging_Adjusted_Penalty>  (312) 
0

>  <i_epik_Tot_Q>  (312) 
0

>  <i_epik_Tot_abs_Q>  (312) 
0

>  <s_lp_Force_Field>  (312) 
OPLS3e

>  <r_lp_Energy>  (312) 
237.351

>  <b_lp_Chiralities_Consistent>  (312) 
1

>  <s_lp_Variant>  (312) 
95:0-2

>  <s_i_glide_gridfile>  (312) 
pfpi4k_grid

>  <i_i_glide_lignum>  (312) 
15

>  <i_i_glide_rotatable_bonds>  (312) 
7

>  <r_i_docking_score>  (312) 
-2.97821

>  <r_i_glide_ligand_efficiency>  (312) 
-0.0692606

>  <r_i_glide_ligand_efficiency_sa>  (312) 
-0.242647

>  <r_i_glide_ligand_efficiency_ln>  (312) 
-0.625516

>  <r_i_glide_gscore>  (312) 
-2.97821

>  <r_i_glide_lipo>  (312) 
-0.0519741

>  <r_i_glide_hbond>  (312) 
-0.14905

>  <r_i_glide_metal>  (312) 
-0

>  <r_i_glide_rewards>  (312) 
0

>  <r_i_glide_evdw>  (312) 
-19.7471

>  <r_i_glide_ecoul>  (312) 
-12.3226

>  <r_i_glide_erotb>  (312) 
0.0585567

>  <r_i_glide_esite>  (312) 
0

>  <r_i_glide_emodel>  (312) 
-37.536

>  <r_i_glide_energy>  (312) 
-32.0697

>  <r_i_glide_einternal>  (312) 
3.5289

>  <r_i_glide_intrahb_reward>  (312) 
-0

>  <i_i_glide_confnum>  (312) 
4

>  <i_i_glide_posenum>  (312) 
13

>  <r_i_glide_eff_state_penalty>  (312) 
0

>  <ligand_id>  (312) 
95

>  <original_smiles>  (312) 
COC1CC2C(C)=CC3C4=CC5(O)C(O)C(C)=CC6(C(C)CC7(C)OC7C6(C)C3C3(C)C(O)CCC53O)C42OC1(C)CO

>  <smiles>  (312) 
[H]OC([H])([H])C1(C([H])([H])[H])OC23C4=C([H])C5(O[H])C([H])(O[H])C(C([H])([H])[H])=C([H])C26C([H])(C([H])([H])[H])C([H])([H])C2(C([H])([H])[H])OC2([H])C6(C([H])([H])[H])C([H])(C4([H])C([H])=C(C([H])([H])[H])C3([H])C([H])([H])C1([H])OC([H])([H])[H])C1(C([H])([H])[H])C([H])(O[H])C([H])([H])C([H])([H])C51O[H]

$$$$
95:1:2
     RDKit          3D

 93100  0  0  1  0  0  0  0  0999 V2000
    5.4947   -0.9634    2.1017 C   0  0  0  0  0  0  0  0  0  0  0  0
    5.7164   -2.3683    2.1461 O   0  0  0  0  0  0  0  0  0  0  0  0
    4.9067   -3.1624    1.2741 C   0  0  2  0  0  0  0  0  0  0  0  0
    3.4726   -3.2283    1.7632 C   0  0  0  0  0  0  0  0  0  0  0  0
    3.3958   -3.8793    3.1521 C   0  0  1  0  0  0  0  0  0  0  0  0
    1.9179   -3.7855    3.5578 C   0  0  0  0  0  0  0  0  0  0  0  0
    1.3642   -2.3968    3.8711 C   0  0  0  0  0  0  0  0  0  0  0  0
    1.1767   -4.8831    3.7181 C   0  0  0  0  0  0  0  0  0  0  0  0
    1.6986   -6.2748    3.4788 C   0  0  1  0  0  0  0  0  0  0  0  0
    2.9457   -6.2785    2.6152 C   0  0  0  0  0  0  0  0  0  0  0  0
    3.1352   -7.2870    1.7360 C   0  0  0  0  0  0  0  0  0  0  0  0
    3.2778   -8.7765    2.1366 C   0  0  1  0  0  0  0  0  0  0  0  0
    3.0082   -9.4630    0.9126 O   0  0  0  0  0  0  0  0  0  0  0  0
    4.7798   -9.2228    2.4936 C   0  0  1  0  0  0  0  0  0  0  0  0
    5.5090   -9.7468    1.3732 O   0  0  0  0  0  0  0  0  0  0  0  0
    5.5442   -8.1093    3.1876 C   0  0  0  0  0  0  0  0  0  0  0  0
    6.7974   -7.6210    2.4948 C   0  0  0  0  0  0  0  0  0  0  0  0
    4.8738   -7.5384    4.1945 C   0  0  0  0  0  0  0  0  0  0  0  0
    4.5037   -6.0823    4.5647 C   0  0  2  0  0  0  0  0  0  0  0  0
    5.7650   -5.4711    5.3112 C   0  0  1  0  0  0  0  0  0  0  0  0
    5.8582   -3.9345    5.4187 C   0  0  0  0  0  0  0  0  0  0  0  0
    6.1673   -6.1510    6.6498 C   0  0  0  0  0  0  0  0  0  0  0  0
    5.0780   -6.8522    7.4269 C   0  0  2  0  0  0  0  0  0  0  0  0
    5.2788   -6.8629    8.9237 C   0  0  0  0  0  0  0  0  0  0  0  0
    4.6850   -8.0914    6.8557 O   0  0  0  0  0  0  0  0  0  0  0  0
    3.6953   -7.0793    6.8428 C   0  0  2  0  0  0  0  0  0  0  0  0
    3.2759   -6.3270    5.5675 C   0  0  1  0  0  0  0  0  0  0  0  0
    2.8300   -4.9968    6.2594 C   0  0  0  0  0  0  0  0  0  0  0  0
    1.9934   -7.0183    4.8056 C   0  0  2  0  0  0  0  0  0  0  0  0
    1.7305   -8.6055    4.5733 C   0  0  1  0  0  0  0  0  0  0  0  0
    2.2316   -9.4791    5.7678 C   0  0  0  0  0  0  0  0  0  0  0  0
    0.1563   -8.8551    4.6713 C   0  0  1  0  0  0  0  0  0  0  0  0
   -0.7081   -7.7484    4.4734 O   0  0  0  0  0  0  0  0  0  0  0  0
   -0.2073   -9.8546    3.5834 C   0  0  0  0  0  0  0  0  0  0  0  0
    0.7638   -9.5265    2.4654 C   0  0  0  0  0  0  0  0  0  0  0  0
    2.1337   -9.2966    3.1482 C   0  0  1  0  0  0  0  0  0  0  0  0
    2.4893  -10.6587    3.3727 O   0  0  0  0  0  0  0  0  0  0  0  0
    4.0360   -5.3527    3.1822 C   0  0  2  0  0  0  0  0  0  0  0  0
    5.2581   -5.3132    2.4015 O   0  0  0  0  0  0  0  0  0  0  0  0
    5.4826   -4.5894    1.1631 C   0  0  1  0  0  0  0  0  0  0  0  0
    4.8713   -5.3322   -0.0503 C   0  0  0  0  0  0  0  0  0  0  0  0
    7.0252   -4.4366    0.9904 C   0  0  0  0  0  0  0  0  0  0  0  0
    7.6950   -5.5688    0.4733 O   0  0  0  0  0  0  0  0  0  0  0  0
    6.2020   -0.4640    2.7651 H   0  0  0  0  0  0  0  0  0  0  0  0
    4.4948   -0.6909    2.4430 H   0  0  0  0  0  0  0  0  0  0  0  0
    5.6446   -0.5590    1.0985 H   0  0  0  0  0  0  0  0  0  0  0  0
    4.9388   -2.7076    0.2816 H   0  0  0  0  0  0  0  0  0  0  0  0
    3.0571   -2.2243    1.7709 H   0  0  0  0  0  0  0  0  0  0  0  0
    2.8467   -3.7728    1.0526 H   0  0  0  0  0  0  0  0  0  0  0  0
    3.9199   -3.2199    3.8307 H   0  0  0  0  0  0  0  0  0  0  0  0
    2.0281   -1.8680    4.5567 H   0  0  0  0  0  0  0  0  0  0  0  0
    0.3878   -2.4724    4.3471 H   0  0  0  0  0  0  0  0  0  0  0  0
    1.2462   -1.7946    2.9693 H   0  0  0  0  0  0  0  0  0  0  0  0
    0.1547   -4.8084    4.0666 H   0  0  0  0  0  0  0  0  0  0  0  0
    0.9129   -6.7477    2.9099 H   0  0  0  0  0  0  0  0  0  0  0  0
    2.1916   -7.4067    1.2186 H   0  0  0  0  0  0  0  0  0  0  0  0
    3.2909  -10.3712    1.0083 H   0  0  0  0  0  0  0  0  0  0  0  0
    4.8070  -10.0373    3.2115 H   0  0  0  0  0  0  0  0  0  0  0  0
    5.1069  -10.5650    1.0839 H   0  0  0  0  0  0  0  0  0  0  0  0
    7.5913   -8.3696    2.5865 H   0  0  0  0  0  0  0  0  0  0  0  0
    7.1787   -6.6922    2.8952 H   0  0  0  0  0  0  0  0  0  0  0  0
    6.5612   -7.4908    1.4394 H   0  0  0  0  0  0  0  0  0  0  0  0
    4.1205   -8.2076    4.5271 H   0  0  0  0  0  0  0  0  0  0  0  0
    6.5935   -5.6725    4.6644 H   0  0  0  0  0  0  0  0  0  0  0  0
    5.0557   -3.4629    5.9800 H   0  0  0  0  0  0  0  0  0  0  0  0
    5.8913   -3.4948    4.4263 H   0  0  0  0  0  0  0  0  0  0  0  0
    6.7987   -3.6410    5.8927 H   0  0  0  0  0  0  0  0  0  0  0  0
    6.9594   -6.9097    6.4535 H   0  0  0  0  0  0  0  0  0  0  0  0
    6.6394   -5.4191    7.3171 H   0  0  0  0  0  0  0  0  0  0  0  0
    5.1977   -5.8544    9.3476 H   0  0  0  0  0  0  0  0  0  0  0  0
    6.2663   -7.2692    9.1760 H   0  0  0  0  0  0  0  0  0  0  0  0
    4.5261   -7.4855    9.3970 H   0  0  0  0  0  0  0  0  0  0  0  0
    2.9044   -7.2248    7.5485 H   0  0  0  0  0  0  0  0  0  0  0  0
    1.7809   -5.0005    6.5658 H   0  0  0  0  0  0  0  0  0  0  0  0
    3.0116   -4.1109    5.6836 H   0  0  0  0  0  0  0  0  0  0  0  0
    3.4007   -4.7950    7.1735 H   0  0  0  0  0  0  0  0  0  0  0  0
    1.1969   -6.7658    5.5175 H   0  0  0  0  0  0  0  0  0  0  0  0
    1.7722  -10.4711    5.7605 H   0  0  0  0  0  0  0  0  0  0  0  0
    1.9506   -9.0568    6.7300 H   0  0  0  0  0  0  0  0  0  0  0  0
    3.2981   -9.6714    5.7561 H   0  0  0  0  0  0  0  0  0  0  0  0
   -0.1438   -9.2538    5.6364 H   0  0  0  0  0  0  0  0  0  0  0  0
   -0.6486   -7.5084    3.5568 H   0  0  0  0  0  0  0  0  0  0  0  0
   -0.0364  -10.8695    3.9484 H   0  0  0  0  0  0  0  0  0  0  0  0
   -1.2512   -9.8062    3.2657 H   0  0  0  0  0  0  0  0  0  0  0  0
    0.7735  -10.3369    1.7297 H   0  0  0  0  0  0  0  0  0  0  0  0
    0.4173   -8.6416    1.9417 H   0  0  0  0  0  0  0  0  0  0  0  0
    3.2993  -10.6952    3.8652 H   0  0  0  0  0  0  0  0  0  0  0  0
    5.1177   -4.8276   -0.9874 H   0  0  0  0  0  0  0  0  0  0  0  0
    3.7885   -5.3917   -0.0162 H   0  0  0  0  0  0  0  0  0  0  0  0
    5.2345   -6.3583   -0.1260 H   0  0  0  0  0  0  0  0  0  0  0  0
    7.2468   -3.6378    0.2764 H   0  0  0  0  0  0  0  0  0  0  0  0
    7.4795   -4.1651    1.9446 H   0  0  0  0  0  0  0  0  0  0  0  0
    7.5695   -6.2830    1.0862 H   0  0  0  0  0  0  0  0  0  0  0  0
  1  2  1  0
  1 44  1  0
  1 45  1  0
  1 46  1  0
  2  3  1  0
  3 40  1  0
  3  4  1  0
  3 47  1  6
  4  5  1  0
  4 48  1  0
  4 49  1  0
  5 38  1  0
  5  6  1  0
  5 50  1  1
  6  7  1  0
  6  8  2  0
  7 51  1  0
  7 52  1  0
  7 53  1  0
  8  9  1  0
  8 54  1  0
  9 29  1  0
  9 10  1  0
  9 55  1  6
 10 38  1  0
 10 11  2  0
 11 12  1  0
 11 56  1  0
 12 36  1  0
 12 13  1  6
 12 14  1  0
 13 57  1  0
 14 15  1  0
 14 16  1  0
 14 58  1  1
 15 59  1  0
 16 17  1  0
 16 18  2  3
 17 60  1  0
 17 61  1  0
 17 62  1  0
 19 18  1  6
 18 63  1  0
 19 27  1  0
 19 20  1  0
 19 38  1  0
 20 21  1  0
 20 22  1  0
 20 64  1  6
 21 65  1  0
 21 66  1  0
 21 67  1  0
 22 23  1  0
 22 68  1  0
 22 69  1  0
 23 26  1  0
 23 24  1  1
 23 25  1  0
 24 70  1  0
 24 71  1  0
 24 72  1  0
 25 26  1  0
 26 27  1  0
 26 73  1  1
 27 28  1  1
 27 29  1  0
 28 74  1  0
 28 75  1  0
 28 76  1  0
 29 30  1  0
 29 77  1  1
 30 36  1  0
 30 31  1  1
 30 32  1  0
 31 78  1  0
 31 79  1  0
 31 80  1  0
 32 33  1  0
 32 34  1  0
 32 81  1  1
 33 82  1  0
 34 35  1  0
 34 83  1  0
 34 84  1  0
 35 36  1  0
 35 85  1  0
 35 86  1  0
 36 37  1  1
 37 87  1  0
 38 39  1  6
 39 40  1  0
 40 41  1  6
 40 42  1  0
 41 88  1  0
 41 89  1  0
 41 90  1  0
 42 43  1  0
 42 91  1  0
 42 92  1  0
 43 93  1  0
M  END
>  <i_m_ct_stereo_status>  (313) 
1

>  <s_m_source_file>  (313) 
/var/tmp/pbs.5076255.sched01/tmpk7n3yjou/123nw9z_609.sdf

>  <i_m_source_file_index>  (313) 
15

>  <i_lp_mmshare_version>  (313) 
48012

>  <i_f3d_flags>  (313) 
0

>  <s_epik_input>  (313) 
W09IXVtDSDJdW0NAXShPMSkoW0NIM10pW0NASF0oT1tDSDNdKVtDSDJdW0NASF0oW0NAXTEyW0NAQF0zNDUpQyhbQ0gzXSk9W0NIXVtDQEhdNkMyPVtDSF1bQ0BAXShbT0hdKShbQ0BASF0oW09IXSkvQyhbQ0gzXSk9W0NIXVwzKVtDQEBdNyhbT0hdKVtDQF0oW0NIM10pKFtDQEBIXShbT0hdKVtDSDJdW0NIMl03KVtDQEhdNltDQEBdNShbQ0gzXSlbQ0BASF04W0NAXShPOCkoW0NIM10pW0NIMl1bQ0BASF00W0NIM10=

>  <s_epik_cmdline>  (313) 
J2VwaWtfcHl0aG9uJywgJy1waHQnLCAnMi4wJywgJy1waCcsICc3LjAnLCAnLXRuJywgJzgnLCAnLW1hJywgJzIwMCcsICctaW1hZScsICc8aW5maWxlLm1hZT4nLCAnLW9tYWUnLCAnPG91dGZpbGUubWFlPic=

>  <r_lp_tautomer_probability>  (313) 
1

>  <r_epik_Ionization_Penalty>  (313) 
8.03466e-07

>  <r_epik_Ionization_Penalty_Charging>  (313) 
0

>  <r_epik_Ionization_Penalty_Neutral>  (313) 
8.03466e-07

>  <r_epik_State_Penalty>  (313) 
-0

>  <r_epik_Charging_Adjusted_Penalty>  (313) 
0

>  <i_epik_Tot_Q>  (313) 
0

>  <i_epik_Tot_abs_Q>  (313) 
0

>  <s_lp_Force_Field>  (313) 
OPLS3e

>  <r_lp_Energy>  (313) 
237.351

>  <b_lp_Chiralities_Consistent>  (313) 
1

>  <s_lp_Variant>  (313) 
95:0-2

>  <s_i_glide_gridfile>  (313) 
pfpi4k_grid

>  <i_i_glide_lignum>  (313) 
15

>  <i_i_glide_rotatable_bonds>  (313) 
7

>  <r_i_docking_score>  (313) 
-2.67406

>  <r_i_glide_ligand_efficiency>  (313) 
-0.0621875

>  <r_i_glide_ligand_efficiency_sa>  (313) 
-0.217868

>  <r_i_glide_ligand_efficiency_ln>  (313) 
-0.561637

>  <r_i_glide_gscore>  (313) 
-2.67406

>  <r_i_glide_lipo>  (313) 
-0.483772

>  <r_i_glide_hbond>  (313) 
0

>  <r_i_glide_metal>  (313) 
-0

>  <r_i_glide_rewards>  (313) 
0

>  <r_i_glide_evdw>  (313) 
-27.0942

>  <r_i_glide_ecoul>  (313) 
-5.9609

>  <r_i_glide_erotb>  (313) 
0.0585567

>  <r_i_glide_esite>  (313) 
0

>  <r_i_glide_emodel>  (313) 
-38.5275

>  <r_i_glide_energy>  (313) 
-33.0552

>  <r_i_glide_einternal>  (313) 
1.85243

>  <r_i_glide_intrahb_reward>  (313) 
-0

>  <i_i_glide_confnum>  (313) 
2

>  <i_i_glide_posenum>  (313) 
3

>  <r_i_glide_eff_state_penalty>  (313) 
0

>  <ligand_id>  (313) 
95

>  <original_smiles>  (313) 
COC1CC2C(C)=CC3C4=CC5(O)C(O)C(C)=CC6(C(C)CC7(C)OC7C6(C)C3C3(C)C(O)CCC53O)C42OC1(C)CO

>  <smiles>  (313) 
[H]OC([H])([H])C1(C([H])([H])[H])OC23C4=C([H])C5(O[H])C([H])(O[H])C(C([H])([H])[H])=C([H])C26C([H])(C([H])([H])[H])C([H])([H])C2(C([H])([H])[H])OC2([H])C6(C([H])([H])[H])C([H])(C4([H])C([H])=C(C([H])([H])[H])C3([H])C([H])([H])C1([H])OC([H])([H])[H])C1(C([H])([H])[H])C([H])(O[H])C([H])([H])C([H])([H])C51O[H]

$$$$
96:0:0
     RDKit          3D

 64 69  0  0  1  0  0  0  0  0999 V2000
    2.3124   -6.0260    0.8954 C   0  0  0  0  0  0  0  0  0  0  0  0
    2.8414   -4.8905    1.7595 C   0  0  0  0  0  0  0  0  0  0  0  0
    2.6379   -4.8690    3.1424 C   0  0  0  0  0  0  0  0  0  0  0  0
    3.3989   -5.9698    3.7133 C   0  0  0  0  0  0  0  0  0  0  0  0
    2.9427   -6.8318    4.4590 O   0  0  0  0  0  0  0  0  0  0  0  0
    4.8955   -5.8882    3.4030 C   0  0  0  0  0  0  0  0  0  0  0  0
    5.2488   -5.1609    2.0583 C   0  0  0  0  0  0  0  0  0  0  0  0
    4.1576   -4.2842    1.2379 C   0  0  1  0  0  0  0  0  0  0  0  0
    4.8783   -4.3031   -0.1954 C   0  0  0  0  0  0  0  0  0  0  0  0
    5.8201   -2.9694   -0.2259 C   0  0  0  0  0  0  0  0  0  0  0  0
    7.3268   -3.3219   -0.1679 C   0  0  0  0  0  0  0  0  0  0  0  0
    5.6017   -2.1375   -1.5068 C   0  0  0  0  0  0  0  0  0  0  0  0
    5.3681   -2.2099    1.0823 C   0  0  1  0  0  0  0  0  0  0  0  0
    5.4734   -0.7512    1.6338 C   0  0  0  0  0  0  0  0  0  0  0  0
    4.9678   -0.6113    3.1384 C   0  0  0  0  0  0  0  0  0  0  0  0
    5.5638    0.1355    3.9107 O   0  0  0  0  0  0  0  0  0  0  0  0
    3.7286   -1.4517    3.6398 C   0  0  1  0  0  0  0  0  0  0  0  0
    4.2150   -2.8688    3.9992 C   0  0  1  0  0  0  0  0  0  0  0  0
    4.9406   -2.9214    5.2182 O   0  0  0  0  0  0  0  0  0  0  0  0
    2.9509   -3.6828    4.1418 C   0  0  2  0  0  0  0  0  0  0  0  0
    2.1045   -2.6925    5.0451 C   0  0  1  0  0  0  0  0  0  0  0  0
    2.1494   -3.1191    6.3903 O   0  0  0  0  0  0  0  0  0  0  0  0
    2.8178   -1.2323    4.8751 C   0  0  2  0  0  0  0  0  0  0  0  0
    1.9174   -0.1472    4.5390 O   0  0  0  0  0  0  0  0  0  0  0  0
    1.8817    0.1105    3.1227 C   0  0  0  0  0  0  0  0  0  0  0  0
    0.3990    0.2506    2.7220 C   0  0  0  0  0  0  0  0  0  0  0  0
    2.6116    1.4298    2.8055 C   0  0  0  0  0  0  0  0  0  0  0  0
    2.5530   -1.2020    2.6694 C   0  0  1  0  0  0  0  0  0  0  0  0
    2.7672   -1.7169    1.2779 C   0  0  0  0  0  0  0  0  0  0  0  0
    3.9688   -2.7175    1.1228 C   0  0  2  0  0  0  0  0  0  0  0  0
    1.6749   -5.6275    0.1043 H   0  0  0  0  0  0  0  0  0  0  0  0
    1.7260   -6.7355    1.4851 H   0  0  0  0  0  0  0  0  0  0  0  0
    3.1355   -6.5724    0.4326 H   0  0  0  0  0  0  0  0  0  0  0  0
    5.3713   -5.3736    4.2361 H   0  0  0  0  0  0  0  0  0  0  0  0
    5.3096   -6.8939    3.4050 H   0  0  0  0  0  0  0  0  0  0  0  0
    6.2020   -4.6670    2.2002 H   0  0  0  0  0  0  0  0  0  0  0  0
    5.5183   -6.0204    1.4447 H   0  0  0  0  0  0  0  0  0  0  0  0
    5.4600   -5.1964   -0.4194 H   0  0  0  0  0  0  0  0  0  0  0  0
    4.1464   -4.2845   -1.0058 H   0  0  0  0  0  0  0  0  0  0  0  0
    7.9373   -2.4203   -0.0811 H   0  0  0  0  0  0  0  0  0  0  0  0
    7.6479   -3.8459   -1.0684 H   0  0  0  0  0  0  0  0  0  0  0  0
    7.5803   -3.9592    0.6774 H   0  0  0  0  0  0  0  0  0  0  0  0
    6.2014   -1.2278   -1.4787 H   0  0  0  0  0  0  0  0  0  0  0  0
    4.5671   -1.8323   -1.6565 H   0  0  0  0  0  0  0  0  0  0  0  0
    5.9033   -2.7016   -2.3916 H   0  0  0  0  0  0  0  0  0  0  0  0
    6.0287   -2.6682    1.8045 H   0  0  0  0  0  0  0  0  0  0  0  0
    6.5195   -0.4528    1.6053 H   0  0  0  0  0  0  0  0  0  0  0  0
    4.9327   -0.0437    1.0052 H   0  0  0  0  0  0  0  0  0  0  0  0
    4.9553   -3.2482    3.3582 H   0  0  0  0  0  0  0  0  0  0  0  0
    5.2697   -3.8002    5.3272 H   0  0  0  0  0  0  0  0  0  0  0  0
    2.3011   -3.4120    3.3566 H   0  0  0  0  0  0  0  0  0  0  0  0
    1.0520   -2.6603    4.7553 H   0  0  0  0  0  0  0  0  0  0  0  0
    3.0620   -3.1700    6.6358 H   0  0  0  0  0  0  0  0  0  0  0  0
    3.3973   -0.9537    5.7594 H   0  0  0  0  0  0  0  0  0  0  0  0
    0.2847    0.3505    1.6414 H   0  0  0  0  0  0  0  0  0  0  0  0
   -0.0470    1.1345    3.1813 H   0  0  0  0  0  0  0  0  0  0  0  0
   -0.1918   -0.6031    3.0526 H   0  0  0  0  0  0  0  0  0  0  0  0
    2.9365    1.4612    1.7661 H   0  0  0  0  0  0  0  0  0  0  0  0
    3.4752    1.5998    3.4468 H   0  0  0  0  0  0  0  0  0  0  0  0
    1.9590    2.2893    2.9655 H   0  0  0  0  0  0  0  0  0  0  0  0
    1.6388   -1.7507    2.8513 H   0  0  0  0  0  0  0  0  0  0  0  0
    1.8397   -2.1756    0.9158 H   0  0  0  0  0  0  0  0  0  0  0  0
    2.9081   -0.8458    0.6305 H   0  0  0  0  0  0  0  0  0  0  0  0
    3.5890   -2.6184    0.1038 H   0  0  0  0  0  0  0  0  0  0  0  0
  1  2  1  0
  1 31  1  0
  1 32  1  0
  1 33  1  0
  2  8  1  0
  2  3  2  0
  3 20  1  0
  3  4  1  0
  4  5  2  0
  4  6  1  0
  6  7  1  0
  6 34  1  0
  6 35  1  0
  8  7  1  1
  7 36  1  0
  7 37  1  0
  8 30  1  0
  8  9  1  0
  9 10  1  0
  9 38  1  0
  9 39  1  0
 10 11  1  0
 10 12  1  0
 10 13  1  0
 11 40  1  0
 11 41  1  0
 11 42  1  0
 12 43  1  0
 12 44  1  0
 12 45  1  0
 13 30  1  0
 13 14  1  0
 13 46  1  1
 14 15  1  0
 14 47  1  0
 14 48  1  0
 15 16  2  0
 17 15  1  6
 17 23  1  0
 17 28  1  0
 17 18  1  0
 18 19  1  0
 18 20  1  0
 18 49  1  6
 19 50  1  0
 20 21  1  0
 20 51  1  1
 21 22  1  0
 21 23  1  0
 21 52  1  6
 22 53  1  0
 23 24  1  0
 23 54  1  1
 24 25  1  0
 25 26  1  0
 25 27  1  0
 25 28  1  0
 26 55  1  0
 26 56  1  0
 26 57  1  0
 27 58  1  0
 27 59  1  0
 27 60  1  0
 28 29  1  0
 28 61  1  1
 29 30  1  0
 29 62  1  0
 29 63  1  0
 30 64  1  6
M  END
>  <i_m_ct_stereo_status>  (314) 
1

>  <s_m_source_file>  (314) 
/var/tmp/pbs.5076255.sched01/tmpk7n3yjou/123nw9z_609.sdf

>  <i_m_source_file_index>  (314) 
16

>  <i_lp_mmshare_version>  (314) 
48012

>  <i_f3d_flags>  (314) 
0

>  <s_epik_input>  (314) 
W0NIMl0xW0NIMl1DKD1PKUMoPUMyW0NIM10pW0NASF0oW0NAQEhdM1tPSF0pW0NAQEhdKFtPSF0pW0NASF0oT0MoW0NIM10pKFtDSDNdKVtDQEhdNFtDSDJdNSlbQ0BAXTM0Qyg9TylbQ0gyXVtDQEBIXShbQ0BIXTVbQ0BAXTEyNilDKFtDSDJdNikoW0NIM10pW0NIM10=

>  <s_epik_cmdline>  (314) 
J2VwaWtfcHl0aG9uJywgJy1waHQnLCAnMi4wJywgJy1waCcsICc3LjAnLCAnLXRuJywgJzgnLCAnLW1hJywgJzIwMCcsICctaW1hZScsICc8aW5maWxlLm1hZT4nLCAnLW9tYWUnLCAnPG91dGZpbGUubWFlPic=

>  <r_lp_tautomer_probability>  (314) 
1

>  <r_epik_Ionization_Penalty>  (314) 
4.22692e-07

>  <r_epik_Ionization_Penalty_Charging>  (314) 
0

>  <r_epik_Ionization_Penalty_Neutral>  (314) 
4.22692e-07

>  <r_epik_State_Penalty>  (314) 
-0

>  <r_epik_Charging_Adjusted_Penalty>  (314) 
0

>  <i_epik_Tot_Q>  (314) 
0

>  <i_epik_Tot_abs_Q>  (314) 
0

>  <s_lp_Force_Field>  (314) 
OPLS3e

>  <r_lp_Energy>  (314) 
290.281

>  <b_lp_Chiralities_Consistent>  (314) 
1

>  <s_lp_Variant>  (314) 
96:0-1

>  <s_i_glide_gridfile>  (314) 
pfpi4k_grid

>  <i_i_glide_lignum>  (314) 
16

>  <i_i_glide_rotatable_bonds>  (314) 
2

>  <r_i_docking_score>  (314) 
-3.39545

>  <r_i_glide_ligand_efficiency>  (314) 
-0.113182

>  <r_i_glide_ligand_efficiency_sa>  (314) 
-0.351682

>  <r_i_glide_ligand_efficiency_ln>  (314) 
-0.771484

>  <r_i_glide_gscore>  (314) 
-3.39545

>  <r_i_glide_lipo>  (314) 
-0.461067

>  <r_i_glide_hbond>  (314) 
0

>  <r_i_glide_metal>  (314) 
-0

>  <r_i_glide_rewards>  (314) 
-1.24612

>  <r_i_glide_evdw>  (314) 
-27.6903

>  <r_i_glide_ecoul>  (314) 
-2.025

>  <r_i_glide_erotb>  (314) 
0

>  <r_i_glide_esite>  (314) 
0

>  <r_i_glide_emodel>  (314) 
-40.5148

>  <r_i_glide_energy>  (314) 
-29.7153

>  <r_i_glide_einternal>  (314) 
0.323899

>  <r_i_glide_intrahb_reward>  (314) 
-0.5

>  <i_i_glide_confnum>  (314) 
2

>  <i_i_glide_posenum>  (314) 
35

>  <r_i_glide_eff_state_penalty>  (314) 
0

>  <ligand_id>  (314) 
96

>  <original_smiles>  (314) 
CC1=C2C(=O)CCC13CC(C)(C)C1CC(=O)C45C(O)C2C(O)C4OC(C)(C)C5CC13

>  <smiles>  (314) 
[H]OC1([H])C2([H])OC(C([H])([H])[H])(C([H])([H])[H])C3([H])C([H])([H])C4([H])C5([H])C([H])([H])C(=O)C23C([H])(O[H])C1([H])C1=C(C([H])([H])[H])C4(C([H])([H])C([H])([H])C1=O)C([H])([H])C5(C([H])([H])[H])C([H])([H])[H]

$$$$
96:0:1
     RDKit          3D

 64 69  0  0  1  0  0  0  0  0999 V2000
    2.3896   -6.0776    0.9057 C   0  0  0  0  0  0  0  0  0  0  0  0
    2.9329   -4.9343    1.7499 C   0  0  0  0  0  0  0  0  0  0  0  0
    2.8053   -4.9267    3.1428 C   0  0  0  0  0  0  0  0  0  0  0  0
    3.6221   -6.0146    3.6602 C   0  0  0  0  0  0  0  0  0  0  0  0
    3.2282   -6.8995    4.4126 O   0  0  0  0  0  0  0  0  0  0  0  0
    5.0969   -5.8925    3.2721 C   0  0  0  0  0  0  0  0  0  0  0  0
    5.3597   -5.1529    1.9149 C   0  0  0  0  0  0  0  0  0  0  0  0
    4.2055   -4.2961    1.1614 C   0  0  1  0  0  0  0  0  0  0  0  0
    4.8495   -4.2902   -0.3084 C   0  0  0  0  0  0  0  0  0  0  0  0
    5.7574   -2.9344   -0.3787 C   0  0  0  0  0  0  0  0  0  0  0  0
    7.2733   -3.2493   -0.4015 C   0  0  0  0  0  0  0  0  0  0  0  0
    5.4503   -2.1012   -1.6404 C   0  0  0  0  0  0  0  0  0  0  0  0
    5.3590   -2.1944    0.9574 C   0  0  1  0  0  0  0  0  0  0  0  0
    5.4557   -0.7353    1.5091 C   0  0  0  0  0  0  0  0  0  0  0  0
    5.0264   -0.6188    3.0391 C   0  0  0  0  0  0  0  0  0  0  0  0
    5.6439    0.1318    3.7892 O   0  0  0  0  0  0  0  0  0  0  0  0
    3.8374   -1.4934    3.5985 C   0  0  1  0  0  0  0  0  0  0  0  0
    4.3801   -2.9019    3.9207 C   0  0  1  0  0  0  0  0  0  0  0  0
    5.2193   -2.9652    5.0600 O   0  0  0  0  0  0  0  0  0  0  0  0
    3.1456   -3.7441    4.1376 C   0  0  2  0  0  0  0  0  0  0  0  0
    2.3249   -2.7743    5.0857 C   0  0  1  0  0  0  0  0  0  0  0  0
    2.4127   -3.1879    6.4346 O   0  0  0  0  0  0  0  0  0  0  0  0
    2.9904   -1.2994    4.8811 C   0  0  2  0  0  0  0  0  0  0  0  0
    2.0442   -0.2387    4.5991 O   0  0  0  0  0  0  0  0  0  0  0  0
    1.9273    0.0266    3.1887 C   0  0  0  0  0  0  0  0  0  0  0  0
    0.4211    0.1365    2.8720 C   0  0  0  0  0  0  0  0  0  0  0  0
    2.6093    1.3645    2.8449 C   0  0  0  0  0  0  0  0  0  0  0  0
    2.6063   -1.2673    2.6932 C   0  0  1  0  0  0  0  0  0  0  0  0
    2.7599   -1.7639    1.2823 C   0  0  0  0  0  0  0  0  0  0  0  0
    3.9768   -2.7352    1.0694 C   0  0  2  0  0  0  0  0  0  0  0  0
    1.7052   -5.6931    0.1472 H   0  0  0  0  0  0  0  0  0  0  0  0
    1.8501   -6.8046    1.5179 H   0  0  0  0  0  0  0  0  0  0  0  0
    3.2025   -6.6018    0.3998 H   0  0  0  0  0  0  0  0  0  0  0  0
    5.6007   -5.3699    4.0846 H   0  0  0  0  0  0  0  0  0  0  0  0
    5.5337   -6.8869    3.2443 H   0  0  0  0  0  0  0  0  0  0  0  0
    6.3073   -4.6378    2.0113 H   0  0  0  0  0  0  0  0  0  0  0  0
    5.6145   -6.0027    1.2828 H   0  0  0  0  0  0  0  0  0  0  0  0
    5.4381   -5.1687   -0.5682 H   0  0  0  0  0  0  0  0  0  0  0  0
    4.0772   -4.2838   -1.0806 H   0  0  0  0  0  0  0  0  0  0  0  0
    7.8660   -2.3345   -0.3373 H   0  0  0  0  0  0  0  0  0  0  0  0
    7.5603   -3.7554   -1.3224 H   0  0  0  0  0  0  0  0  0  0  0  0
    7.5843   -3.8885    0.4230 H   0  0  0  0  0  0  0  0  0  0  0  0
    6.0251   -1.1749   -1.6429 H   0  0  0  0  0  0  0  0  0  0  0  0
    4.4024   -1.8210   -1.7337 H   0  0  0  0  0  0  0  0  0  0  0  0
    5.7183   -2.6573   -2.5415 H   0  0  0  0  0  0  0  0  0  0  0  0
    6.0679   -2.6414    1.6413 H   0  0  0  0  0  0  0  0  0  0  0  0
    6.4917   -0.4116    1.4291 H   0  0  0  0  0  0  0  0  0  0  0  0
    4.8664   -0.0376    0.9134 H   0  0  0  0  0  0  0  0  0  0  0  0
    5.0797   -3.2587    3.2275 H   0  0  0  0  0  0  0  0  0  0  0  0
    4.7901   -2.5403    5.7886 H   0  0  0  0  0  0  0  0  0  0  0  0
    2.4514   -3.4828    3.3884 H   0  0  0  0  0  0  0  0  0  0  0  0
    1.2596   -2.7681    4.8391 H   0  0  0  0  0  0  0  0  0  0  0  0
    3.3194   -3.3417    6.6558 H   0  0  0  0  0  0  0  0  0  0  0  0
    3.6083   -1.0088    5.7345 H   0  0  0  0  0  0  0  0  0  0  0  0
    0.2513    0.2389    1.7986 H   0  0  0  0  0  0  0  0  0  0  0  0
   -0.0149    1.0105    3.3593 H   0  0  0  0  0  0  0  0  0  0  0  0
   -0.1410   -0.7274    3.2274 H   0  0  0  0  0  0  0  0  0  0  0  0
    2.8784    1.4118    1.7909 H   0  0  0  0  0  0  0  0  0  0  0  0
    3.5020    1.5516    3.4407 H   0  0  0  0  0  0  0  0  0  0  0  0
    1.9469    2.2073    3.0478 H   0  0  0  0  0  0  0  0  0  0  0  0
    1.7162   -1.8408    2.9155 H   0  0  0  0  0  0  0  0  0  0  0  0
    1.8279   -2.2457    0.9654 H   0  0  0  0  0  0  0  0  0  0  0  0
    2.8501   -0.8895    0.6326 H   0  0  0  0  0  0  0  0  0  0  0  0
    3.5438   -2.6410    0.0727 H   0  0  0  0  0  0  0  0  0  0  0  0
  1  2  1  0
  1 31  1  0
  1 32  1  0
  1 33  1  0
  2  8  1  0
  2  3  2  0
  3 20  1  0
  3  4  1  0
  4  5  2  0
  4  6  1  0
  6  7  1  0
  6 34  1  0
  6 35  1  0
  8  7  1  1
  7 36  1  0
  7 37  1  0
  8 30  1  0
  8  9  1  0
  9 10  1  0
  9 38  1  0
  9 39  1  0
 10 11  1  0
 10 12  1  0
 10 13  1  0
 11 40  1  0
 11 41  1  0
 11 42  1  0
 12 43  1  0
 12 44  1  0
 12 45  1  0
 13 30  1  0
 13 14  1  0
 13 46  1  1
 14 15  1  0
 14 47  1  0
 14 48  1  0
 15 16  2  0
 17 15  1  6
 17 23  1  0
 17 28  1  0
 17 18  1  0
 18 19  1  0
 18 20  1  0
 18 49  1  6
 19 50  1  0
 20 21  1  0
 20 51  1  1
 21 22  1  0
 21 23  1  0
 21 52  1  6
 22 53  1  0
 23 24  1  0
 23 54  1  1
 24 25  1  0
 25 26  1  0
 25 27  1  0
 25 28  1  0
 26 55  1  0
 26 56  1  0
 26 57  1  0
 27 58  1  0
 27 59  1  0
 27 60  1  0
 28 29  1  0
 28 61  1  1
 29 30  1  0
 29 62  1  0
 29 63  1  0
 30 64  1  6
M  END
>  <i_m_ct_stereo_status>  (315) 
1

>  <s_m_source_file>  (315) 
/var/tmp/pbs.5076255.sched01/tmpk7n3yjou/123nw9z_609.sdf

>  <i_m_source_file_index>  (315) 
16

>  <i_lp_mmshare_version>  (315) 
48012

>  <i_f3d_flags>  (315) 
0

>  <s_epik_input>  (315) 
W0NIMl0xW0NIMl1DKD1PKUMoPUMyW0NIM10pW0NASF0oW0NAQEhdM1tPSF0pW0NAQEhdKFtPSF0pW0NASF0oT0MoW0NIM10pKFtDSDNdKVtDQEhdNFtDSDJdNSlbQ0BAXTM0Qyg9TylbQ0gyXVtDQEBIXShbQ0BIXTVbQ0BAXTEyNilDKFtDSDJdNikoW0NIM10pW0NIM10=

>  <s_epik_cmdline>  (315) 
J2VwaWtfcHl0aG9uJywgJy1waHQnLCAnMi4wJywgJy1waCcsICc3LjAnLCAnLXRuJywgJzgnLCAnLW1hJywgJzIwMCcsICctaW1hZScsICc8aW5maWxlLm1hZT4nLCAnLW9tYWUnLCAnPG91dGZpbGUubWFlPic=

>  <r_lp_tautomer_probability>  (315) 
1

>  <r_epik_Ionization_Penalty>  (315) 
4.22692e-07

>  <r_epik_Ionization_Penalty_Charging>  (315) 
0

>  <r_epik_Ionization_Penalty_Neutral>  (315) 
4.22692e-07

>  <r_epik_State_Penalty>  (315) 
-0

>  <r_epik_Charging_Adjusted_Penalty>  (315) 
0

>  <i_epik_Tot_Q>  (315) 
0

>  <i_epik_Tot_abs_Q>  (315) 
0

>  <s_lp_Force_Field>  (315) 
OPLS3e

>  <r_lp_Energy>  (315) 
290.281

>  <b_lp_Chiralities_Consistent>  (315) 
1

>  <s_lp_Variant>  (315) 
96:0-1

>  <s_i_glide_gridfile>  (315) 
pfpi4k_grid

>  <i_i_glide_lignum>  (315) 
16

>  <i_i_glide_rotatable_bonds>  (315) 
2

>  <r_i_docking_score>  (315) 
-2.90387

>  <r_i_glide_ligand_efficiency>  (315) 
-0.0967955

>  <r_i_glide_ligand_efficiency_sa>  (315) 
-0.300766

>  <r_i_glide_ligand_efficiency_ln>  (315) 
-0.65979

>  <r_i_glide_gscore>  (315) 
-2.90387

>  <r_i_glide_lipo>  (315) 
-0.444421

>  <r_i_glide_hbond>  (315) 
0

>  <r_i_glide_metal>  (315) 
-0

>  <r_i_glide_rewards>  (315) 
-0.754388

>  <r_i_glide_evdw>  (315) 
-27.739

>  <r_i_glide_ecoul>  (315) 
-2.12071

>  <r_i_glide_erotb>  (315) 
0

>  <r_i_glide_esite>  (315) 
0

>  <r_i_glide_emodel>  (315) 
-34.8731

>  <r_i_glide_energy>  (315) 
-29.8597

>  <r_i_glide_einternal>  (315) 
0.00245845

>  <r_i_glide_intrahb_reward>  (315) 
-0

>  <i_i_glide_confnum>  (315) 
2

>  <i_i_glide_posenum>  (315) 
1

>  <r_i_glide_eff_state_penalty>  (315) 
0

>  <ligand_id>  (315) 
96

>  <original_smiles>  (315) 
CC1=C2C(=O)CCC13CC(C)(C)C1CC(=O)C45C(O)C2C(O)C4OC(C)(C)C5CC13

>  <smiles>  (315) 
[H]OC1([H])C2([H])OC(C([H])([H])[H])(C([H])([H])[H])C3([H])C([H])([H])C4([H])C5([H])C([H])([H])C(=O)C23C([H])(O[H])C1([H])C1=C(C([H])([H])[H])C4(C([H])([H])C([H])([H])C1=O)C([H])([H])C5(C([H])([H])[H])C([H])([H])[H]

$$$$
96:0:2
     RDKit          3D

 64 69  0  0  1  0  0  0  0  0999 V2000
    2.8398    5.5770    3.6928 C   0  0  0  0  0  0  0  0  0  0  0  0
    2.7084    4.1307    4.1532 C   0  0  0  0  0  0  0  0  0  0  0  0
    3.7302    3.4854    4.8569 C   0  0  0  0  0  0  0  0  0  0  0  0
    3.8506    4.1357    6.1505 C   0  0  0  0  0  0  0  0  0  0  0  0
    4.8863    4.6030    6.6169 O   0  0  0  0  0  0  0  0  0  0  0  0
    2.5566    4.0821    6.9615 C   0  0  0  0  0  0  0  0  0  0  0  0
    1.2457    4.0390    6.1011 C   0  0  0  0  0  0  0  0  0  0  0  0
    1.2640    3.7338    4.5063 C   0  0  1  0  0  0  0  0  0  0  0  0
   -0.1647    4.3619    4.1399 C   0  0  0  0  0  0  0  0  0  0  0  0
   -1.2229    3.1268    4.2629 C   0  0  0  0  0  0  0  0  0  0  0  0
   -2.1614    3.2922    5.4783 C   0  0  0  0  0  0  0  0  0  0  0  0
   -2.1229    3.0048    3.0157 C   0  0  0  0  0  0  0  0  0  0  0  0
   -0.2712    1.8815    4.4498 C   0  0  1  0  0  0  0  0  0  0  0  0
   -0.3977    0.3302    4.2954 C   0  0  0  0  0  0  0  0  0  0  0  0
    0.8937   -0.4507    4.8046 C   0  0  0  0  0  0  0  0  0  0  0  0
    0.7588   -1.5115    5.4094 O   0  0  0  0  0  0  0  0  0  0  0  0
    2.3351    0.1605    4.5792 C   0  0  1  0  0  0  0  0  0  0  0  0
    2.5968    1.2035    5.6856 C   0  0  1  0  0  0  0  0  0  0  0  0
    2.8092    0.6536    6.9738 O   0  0  0  0  0  0  0  0  0  0  0  0
    3.8261    1.9488    5.2271 C   0  0  2  0  0  0  0  0  0  0  0  0
    4.7394    0.7248    4.8039 C   0  0  1  0  0  0  0  0  0  0  0  0
    5.7225    0.4570    5.7840 O   0  0  0  0  0  0  0  0  0  0  0  0
    3.7203   -0.5348    4.6247 C   0  0  2  0  0  0  0  0  0  0  0  0
    3.8639   -1.2580    3.3783 O   0  0  0  0  0  0  0  0  0  0  0  0
    2.9168   -0.8208    2.3877 C   0  0  0  0  0  0  0  0  0  0  0  0
    3.6860   -0.6492    1.0610 C   0  0  0  0  0  0  0  0  0  0  0  0
    1.8299   -1.8922    2.1965 C   0  0  0  0  0  0  0  0  0  0  0  0
    2.4944    0.4925    3.0768 C   0  0  1  0  0  0  0  0  0  0  0  0
    1.5779    1.5717    2.5651 C   0  0  0  0  0  0  0  0  0  0  0  0
    0.8976    2.4224    3.7001 C   0  0  2  0  0  0  0  0  0  0  0  0
    2.6875    5.6348    2.6129 H   0  0  0  0  0  0  0  0  0  0  0  0
    3.8331    5.9733    3.9147 H   0  0  0  0  0  0  0  0  0  0  0  0
    2.1007    6.2173    4.1784 H   0  0  0  0  0  0  0  0  0  0  0  0
    2.6141    3.1995    7.5967 H   0  0  0  0  0  0  0  0  0  0  0  0
    2.5327    4.9343    7.6348 H   0  0  0  0  0  0  0  0  0  0  0  0
    0.5194    3.4605    6.6578 H   0  0  0  0  0  0  0  0  0  0  0  0
    0.8967    5.0612    6.2427 H   0  0  0  0  0  0  0  0  0  0  0  0
   -0.4802    5.2024    4.7536 H   0  0  0  0  0  0  0  0  0  0  0  0
   -0.1671    4.7820    3.1320 H   0  0  0  0  0  0  0  0  0  0  0  0
   -2.7899    2.4100    5.6022 H   0  0  0  0  0  0  0  0  0  0  0  0
   -2.8224    4.1385    5.3493 H   0  0  0  0  0  0  0  0  0  0  0  0
   -1.6276    3.4375    6.4143 H   0  0  0  0  0  0  0  0  0  0  0  0
   -2.7940    2.1485    3.1009 H   0  0  0  0  0  0  0  0  0  0  0  0
   -1.5569    2.8796    2.0924 H   0  0  0  0  0  0  0  0  0  0  0  0
   -2.7453    3.8939    2.8922 H   0  0  0  0  0  0  0  0  0  0  0  0
   -0.1539    1.8967    5.5239 H   0  0  0  0  0  0  0  0  0  0  0  0
   -1.2476   -0.0112    4.8849 H   0  0  0  0  0  0  0  0  0  0  0  0
   -0.6032    0.0470    3.2634 H   0  0  0  0  0  0  0  0  0  0  0  0
    1.7622    1.7837    5.9340 H   0  0  0  0  0  0  0  0  0  0  0  0
    3.4892   -0.0006    6.9236 H   0  0  0  0  0  0  0  0  0  0  0  0
    3.7206    2.1308    4.1929 H   0  0  0  0  0  0  0  0  0  0  0  0
    5.2880    0.9244    3.8803 H   0  0  0  0  0  0  0  0  0  0  0  0
    5.3078    0.3732    6.6280 H   0  0  0  0  0  0  0  0  0  0  0  0
    3.7947   -1.2415    5.4543 H   0  0  0  0  0  0  0  0  0  0  0  0
    3.0263   -0.2664    0.2846 H   0  0  0  0  0  0  0  0  0  0  0  0
    4.0697   -1.6108    0.7126 H   0  0  0  0  0  0  0  0  0  0  0  0
    4.5433    0.0194    1.1535 H   0  0  0  0  0  0  0  0  0  0  0  0
    0.9287   -1.4548    1.7676 H   0  0  0  0  0  0  0  0  0  0  0  0
    1.5684   -2.4102    3.1180 H   0  0  0  0  0  0  0  0  0  0  0  0
    2.1700   -2.6714    1.5138 H   0  0  0  0  0  0  0  0  0  0  0  0
    3.4132    0.9735    2.7691 H   0  0  0  0  0  0  0  0  0  0  0  0
    2.1307    2.2232    1.8788 H   0  0  0  0  0  0  0  0  0  0  0  0
    0.8190    1.0993    1.9346 H   0  0  0  0  0  0  0  0  0  0  0  0
    0.4904    2.8449    2.7811 H   0  0  0  0  0  0  0  0  0  0  0  0
  1  2  1  0
  1 31  1  0
  1 32  1  0
  1 33  1  0
  2  8  1  0
  2  3  2  0
  3 20  1  0
  3  4  1  0
  4  5  2  0
  4  6  1  0
  6  7  1  0
  6 34  1  0
  6 35  1  0
  8  7  1  1
  7 36  1  0
  7 37  1  0
  8 30  1  0
  8  9  1  0
  9 10  1  0
  9 38  1  0
  9 39  1  0
 10 11  1  0
 10 12  1  0
 10 13  1  0
 11 40  1  0
 11 41  1  0
 11 42  1  0
 12 43  1  0
 12 44  1  0
 12 45  1  0
 13 30  1  0
 13 14  1  0
 13 46  1  1
 14 15  1  0
 14 47  1  0
 14 48  1  0
 15 16  2  0
 17 15  1  6
 17 23  1  0
 17 28  1  0
 17 18  1  0
 18 19  1  0
 18 20  1  0
 18 49  1  1
 19 50  1  0
 20 21  1  0
 20 51  1  1
 21 22  1  0
 21 23  1  0
 21 52  1  6
 22 53  1  0
 23 24  1  0
 23 54  1  1
 24 25  1  0
 25 26  1  0
 25 27  1  0
 25 28  1  0
 26 55  1  0
 26 56  1  0
 26 57  1  0
 27 58  1  0
 27 59  1  0
 27 60  1  0
 28 29  1  0
 28 61  1  1
 29 30  1  0
 29 62  1  0
 29 63  1  0
 30 64  1  6
M  END
>  <i_m_ct_stereo_status>  (316) 
1

>  <s_m_source_file>  (316) 
/var/tmp/pbs.5076255.sched01/tmpk7n3yjou/123nw9z_609.sdf

>  <i_m_source_file_index>  (316) 
16

>  <i_lp_mmshare_version>  (316) 
48012

>  <i_f3d_flags>  (316) 
0

>  <s_epik_input>  (316) 
W0NIMl0xW0NIMl1DKD1PKUMoPUMyW0NIM10pW0NASF0oW0NAQEhdM1tPSF0pW0NAQEhdKFtPSF0pW0NASF0oT0MoW0NIM10pKFtDSDNdKVtDQEhdNFtDSDJdNSlbQ0BAXTM0Qyg9TylbQ0gyXVtDQEBIXShbQ0BIXTVbQ0BAXTEyNilDKFtDSDJdNikoW0NIM10pW0NIM10=

>  <s_epik_cmdline>  (316) 
J2VwaWtfcHl0aG9uJywgJy1waHQnLCAnMi4wJywgJy1waCcsICc3LjAnLCAnLXRuJywgJzgnLCAnLW1hJywgJzIwMCcsICctaW1hZScsICc8aW5maWxlLm1hZT4nLCAnLW9tYWUnLCAnPG91dGZpbGUubWFlPic=

>  <r_lp_tautomer_probability>  (316) 
1

>  <r_epik_Ionization_Penalty>  (316) 
4.22692e-07

>  <r_epik_Ionization_Penalty_Charging>  (316) 
0

>  <r_epik_Ionization_Penalty_Neutral>  (316) 
4.22692e-07

>  <r_epik_State_Penalty>  (316) 
-0

>  <r_epik_Charging_Adjusted_Penalty>  (316) 
0

>  <i_epik_Tot_Q>  (316) 
0

>  <i_epik_Tot_abs_Q>  (316) 
0

>  <s_lp_Force_Field>  (316) 
OPLS3e

>  <r_lp_Energy>  (316) 
290.281

>  <b_lp_Chiralities_Consistent>  (316) 
1

>  <s_lp_Variant>  (316) 
96:0-1

>  <s_i_glide_gridfile>  (316) 
pfpi4k_grid

>  <i_i_glide_lignum>  (316) 
16

>  <i_i_glide_rotatable_bonds>  (316) 
2

>  <r_i_docking_score>  (316) 
-2.3145

>  <r_i_glide_ligand_efficiency>  (316) 
-0.0771499

>  <r_i_glide_ligand_efficiency_sa>  (316) 
-0.239723

>  <r_i_glide_ligand_efficiency_ln>  (316) 
-0.525879

>  <r_i_glide_gscore>  (316) 
-2.3145

>  <r_i_glide_lipo>  (316) 
-0.0865898

>  <r_i_glide_hbond>  (316) 
0

>  <r_i_glide_metal>  (316) 
-0

>  <r_i_glide_rewards>  (316) 
-0.58272

>  <r_i_glide_evdw>  (316) 
-27.0271

>  <r_i_glide_ecoul>  (316) 
-1.93923

>  <r_i_glide_erotb>  (316) 
0

>  <r_i_glide_esite>  (316) 
-0.00294927

>  <r_i_glide_emodel>  (316) 
-32.8416

>  <r_i_glide_energy>  (316) 
-28.9663

>  <r_i_glide_einternal>  (316) 
0.00169033

>  <r_i_glide_intrahb_reward>  (316) 
-0

>  <i_i_glide_confnum>  (316) 
2

>  <i_i_glide_posenum>  (316) 
36

>  <r_i_glide_eff_state_penalty>  (316) 
0

>  <ligand_id>  (316) 
96

>  <original_smiles>  (316) 
CC1=C2C(=O)CCC13CC(C)(C)C1CC(=O)C45C(O)C2C(O)C4OC(C)(C)C5CC13

>  <smiles>  (316) 
[H]OC1([H])C2([H])OC(C([H])([H])[H])(C([H])([H])[H])C3([H])C([H])([H])C4([H])C5([H])C([H])([H])C(=O)C23C([H])(O[H])C1([H])C1=C(C([H])([H])[H])C4(C([H])([H])C([H])([H])C1=O)C([H])([H])C5(C([H])([H])[H])C([H])([H])[H]

$$$$
98:0:0
     RDKit          3D

 65 70  0  0  1  0  0  0  0  0999 V2000
    4.7431   -6.5163    0.7737 C   0  0  0  0  0  0  0  0  0  0  0  0
    5.0847   -5.3874   -0.0264 O   0  0  0  0  0  0  0  0  0  0  0  0
    4.4792   -4.1142    0.2274 C   0  0  1  0  0  0  0  0  0  0  0  0
    2.9330   -4.2568    0.3165 C   0  0  0  0  0  0  0  0  0  0  0  0
    2.4761   -4.2667    1.7718 C   0  0  0  0  0  0  0  0  0  0  0  0
    1.9137   -5.2634    2.2369 O   0  0  0  0  0  0  0  0  0  0  0  0
    2.7487   -2.9598    2.5411 C   0  0  2  0  0  0  0  0  0  0  0  0
    4.2586   -2.5752    2.3725 C   0  0  1  0  0  0  0  0  0  0  0  0
    4.9549   -2.2577    3.7180 C   0  0  2  0  0  0  0  0  0  0  0  0
    4.6370   -3.1581    4.9496 C   0  0  2  0  0  0  0  0  0  0  0  0
    5.5514   -4.3925    5.0694 C   0  0  0  0  0  0  0  0  0  0  0  0
    3.1680   -3.6150    4.9201 C   0  0  0  0  0  0  0  0  0  0  0  0
    2.2219   -2.7884    4.0163 C   0  0  2  0  0  0  0  0  0  0  0  0
    0.8232   -3.4589    4.2163 C   0  0  0  0  0  0  0  0  0  0  0  0
    2.0789   -1.2311    4.3689 C   0  0  2  0  0  0  0  0  0  0  0  0
    1.7061   -0.9493    5.8561 C   0  0  0  0  0  0  0  0  0  0  0  0
    0.8826   -0.8550    3.6607 O   0  0  0  0  0  0  0  0  0  0  0  0
    0.5496    0.3674    3.2034 C   0  0  0  0  0  0  0  0  0  0  0  0
   -0.5464    0.6523    2.7326 O   0  0  0  0  0  0  0  0  0  0  0  0
    1.6071    1.4778    3.3279 C   0  0  0  0  0  0  0  0  0  0  0  0
    2.9933    0.9008    3.4837 C   0  0  0  0  0  0  0  0  0  0  0  0
    3.2700   -0.3243    3.9947 C   0  0  0  0  0  0  0  0  0  0  0  0
    4.7346   -0.7958    4.1849 C   0  0  2  0  0  0  0  0  0  0  0  0
    5.7548    0.1040    3.4558 C   0  0  0  0  0  0  0  0  0  0  0  0
    5.1055   -0.7863    5.6823 C   0  0  0  0  0  0  0  0  0  0  0  0
    4.9126   -2.2227    6.1111 C   0  0  0  0  0  0  0  0  0  0  0  0
    4.9884   -2.5830    7.2896 O   0  0  0  0  0  0  0  0  0  0  0  0
    5.1423   -3.5544    1.5296 C   0  0  2  0  0  0  0  0  0  0  0  0
    6.3020   -2.9007    1.0361 O   0  0  0  0  0  0  0  0  0  0  0  0
    6.3335   -2.7193   -0.2681 C   0  0  0  0  0  0  0  0  0  0  0  0
    7.2522   -2.2535   -0.9409 O   0  0  0  0  0  0  0  0  0  0  0  0
    4.9895   -3.1281   -0.8622 C   0  0  1  0  0  0  0  0  0  0  0  0
    5.1026   -3.7167   -2.2820 C   0  0  0  0  0  0  0  0  0  0  0  0
    3.9940   -1.6527   -0.9789 Cl  0  0  0  0  0  0  0  0  0  0  0  0
    5.3758   -7.3533    0.4944 H   0  0  0  0  0  0  0  0  0  0  0  0
    3.7112   -6.8347    0.6213 H   0  0  0  0  0  0  0  0  0  0  0  0
    4.8942   -6.3387    1.8394 H   0  0  0  0  0  0  0  0  0  0  0  0
    2.4201   -3.4234   -0.1645 H   0  0  0  0  0  0  0  0  0  0  0  0
    2.5930   -5.1441   -0.2093 H   0  0  0  0  0  0  0  0  0  0  0  0
    2.1906   -2.2298    1.9509 H   0  0  0  0  0  0  0  0  0  0  0  0
    4.2417   -1.6459    1.7975 H   0  0  0  0  0  0  0  0  0  0  0  0
    6.0184   -2.3665    3.5415 H   0  0  0  0  0  0  0  0  0  0  0  0
    5.4778   -5.0533    4.2113 H   0  0  0  0  0  0  0  0  0  0  0  0
    5.2787   -4.9816    5.9471 H   0  0  0  0  0  0  0  0  0  0  0  0
    6.5905   -4.1126    5.2081 H   0  0  0  0  0  0  0  0  0  0  0  0
    3.1490   -4.6466    4.5847 H   0  0  0  0  0  0  0  0  0  0  0  0
    2.7661   -3.6619    5.9405 H   0  0  0  0  0  0  0  0  0  0  0  0
    0.3006   -3.1382    5.1121 H   0  0  0  0  0  0  0  0  0  0  0  0
    0.8816   -4.5446    4.3080 H   0  0  0  0  0  0  0  0  0  0  0  0
    0.1939   -3.2387    3.3601 H   0  0  0  0  0  0  0  0  0  0  0  0
    2.4253   -1.3385    6.5679 H   0  0  0  0  0  0  0  0  0  0  0  0
    0.7312   -1.3295    6.1369 H   0  0  0  0  0  0  0  0  0  0  0  0
    1.6583    0.1311    6.0291 H   0  0  0  0  0  0  0  0  0  0  0  0
    1.5799    2.0672    2.4151 H   0  0  0  0  0  0  0  0  0  0  0  0
    1.3683    2.1311    4.1573 H   0  0  0  0  0  0  0  0  0  0  0  0
    3.7662    1.6107    3.2404 H   0  0  0  0  0  0  0  0  0  0  0  0
    6.7796   -0.2574    3.5248 H   0  0  0  0  0  0  0  0  0  0  0  0
    5.7673    1.0931    3.9097 H   0  0  0  0  0  0  0  0  0  0  0  0
    5.5315    0.1870    2.3893 H   0  0  0  0  0  0  0  0  0  0  0  0
    6.1492   -0.5302    5.8311 H   0  0  0  0  0  0  0  0  0  0  0  0
    4.5019   -0.1000    6.2683 H   0  0  0  0  0  0  0  0  0  0  0  0
    5.4540   -4.3704    2.1716 H   0  0  0  0  0  0  0  0  0  0  0  0
    5.7880   -4.5598   -2.3036 H   0  0  0  0  0  0  0  0  0  0  0  0
    5.4812   -2.9771   -2.9920 H   0  0  0  0  0  0  0  0  0  0  0  0
    4.1375   -4.0686   -2.6491 H   0  0  0  0  0  0  0  0  0  0  0  0
  1  2  1  0
  1 35  1  0
  1 36  1  0
  1 37  1  0
  3  2  1  6
  3 28  1  0
  3 32  1  0
  3  4  1  0
  4  5  1  0
  4 38  1  0
  4 39  1  0
  5  6  2  0
  5  7  1  0
  7 13  1  0
  7  8  1  0
  7 40  1  6
  8  9  1  0
  8 28  1  0
  8 41  1  6
  9 23  1  0
  9 10  1  0
  9 42  1  6
 10 26  1  0
 10 11  1  1
 10 12  1  0
 11 43  1  0
 11 44  1  0
 11 45  1  0
 12 13  1  0
 12 46  1  0
 12 47  1  0
 13 14  1  6
 13 15  1  0
 14 48  1  0
 14 49  1  0
 14 50  1  0
 15 22  1  0
 15 16  1  1
 15 17  1  0
 16 51  1  0
 16 52  1  0
 16 53  1  0
 17 18  1  0
 18 19  2  0
 18 20  1  0
 20 21  1  0
 20 54  1  0
 20 55  1  0
 21 22  2  0
 21 56  1  0
 22 23  1  0
 23 24  1  6
 23 25  1  0
 24 57  1  0
 24 58  1  0
 24 59  1  0
 25 26  1  0
 25 60  1  0
 25 61  1  0
 26 27  2  0
 28 29  1  0
 28 62  1  1
 29 30  1  0
 30 31  2  0
 30 32  1  0
 32 33  1  0
 32 34  1  6
 33 63  1  0
 33 64  1  0
 33 65  1  0
M  END
>  <i_m_ct_stereo_status>  (317) 
1

>  <s_m_source_file>  (317) 
/var/tmp/pbs.5076255.sched01/tmpk7n3yjou/123nw9z_609.sdf

>  <i_m_source_file_index>  (317) 
18

>  <i_lp_mmshare_version>  (317) 
48012

>  <i_f3d_flags>  (317) 
0

>  <s_epik_input>  (317) 
W0NIM11bQ0BdMShDbClDKD1PKU9bQ0BIXShbQ0BdMTJPW0NIM10pW0NASF0zW0NAQEhdKEMoPU8pW0NIMl0yKVtDQF00KFtDSDNdKVtDQEBdNShbQ0gzXSlDKD1bQ0hdW0NIMl1DKE81KT1PKVtDQF02KFtDSDNdKVtDQEhdM1tDQF0oW0NIM10pKFtDSDJdNClDKD1PKVtDSDJdNg==

>  <s_epik_cmdline>  (317) 
J2VwaWtfcHl0aG9uJywgJy1waHQnLCAnMi4wJywgJy1waCcsICc3LjAnLCAnLXRuJywgJzgnLCAnLW1hJywgJzIwMCcsICctaW1hZScsICc8aW5maWxlLm1hZT4nLCAnLW9tYWUnLCAnPG91dGZpbGUubWFlPic=

>  <r_lp_tautomer_probability>  (317) 
1

>  <r_epik_Ionization_Penalty>  (317) 
2.02804e-10

>  <r_epik_Ionization_Penalty_Charging>  (317) 
0

>  <r_epik_Ionization_Penalty_Neutral>  (317) 
2.02804e-10

>  <r_epik_State_Penalty>  (317) 
-0

>  <r_epik_Charging_Adjusted_Penalty>  (317) 
0

>  <i_epik_Tot_Q>  (317) 
0

>  <i_epik_Tot_abs_Q>  (317) 
0

>  <s_epik_Chemistry_Notes>  (317) 
This compound has an ester and may undergo hydrolysis at high or low pH.

>  <s_lp_Force_Field>  (317) 
OPLS3e

>  <r_lp_Energy>  (317) 
56.346

>  <b_lp_Chiralities_Consistent>  (317) 
1

>  <s_lp_Variant>  (317) 
98:0-1

>  <s_i_glide_gridfile>  (317) 
pfpi4k_grid

>  <i_i_glide_lignum>  (317) 
18

>  <i_i_glide_rotatable_bonds>  (317) 
1

>  <r_i_docking_score>  (317) 
-2.32962

>  <r_i_glide_ligand_efficiency>  (317) 
-0.0685183

>  <r_i_glide_ligand_efficiency_sa>  (317) 
-0.221973

>  <r_i_glide_ligand_efficiency_ln>  (317) 
-0.514679

>  <r_i_glide_gscore>  (317) 
-2.32962

>  <r_i_glide_lipo>  (317) 
-0.534303

>  <r_i_glide_hbond>  (317) 
-0.16

>  <r_i_glide_metal>  (317) 
-0

>  <r_i_glide_rewards>  (317) 
-0.0873848

>  <r_i_glide_evdw>  (317) 
-23.5985

>  <r_i_glide_ecoul>  (317) 
-2.19569

>  <r_i_glide_erotb>  (317) 
0

>  <r_i_glide_esite>  (317) 
-0.0386521

>  <r_i_glide_emodel>  (317) 
-29.328

>  <r_i_glide_energy>  (317) 
-25.7942

>  <r_i_glide_einternal>  (317) 
0.0133686

>  <r_i_glide_intrahb_reward>  (317) 
-0

>  <i_i_glide_confnum>  (317) 
2

>  <i_i_glide_posenum>  (317) 
3

>  <r_i_glide_eff_state_penalty>  (317) 
0

>  <ligand_id>  (317) 
98

>  <original_smiles>  (317) 
COC12CC(=O)C3C(C4C5(C)CC3(C)C3(C)OC(=O)CC=C3C4(C)CC5=O)C1OC(=O)C2(C)Cl

>  <smiles>  (317) 
[H]C1=C2C(C([H])([H])[H])(OC(=O)C1([H])[H])C1(C([H])([H])[H])C([H])([H])C3(C([H])([H])[H])C(=O)C([H])([H])C2(C([H])([H])[H])C3([H])C2([H])C3([H])OC(=O)C(Cl)(C([H])([H])[H])C3(OC([H])([H])[H])C([H])([H])C(=O)C21[H]

$$$$
98:0:1
     RDKit          3D

 65 70  0  0  1  0  0  0  0  0999 V2000
    6.4182   -5.4666    0.6770 C   0  0  0  0  0  0  0  0  0  0  0  0
    5.0286   -5.1645    0.4273 O   0  0  0  0  0  0  0  0  0  0  0  0
    4.4674   -3.8422    0.6362 C   0  0  1  0  0  0  0  0  0  0  0  0
    2.9340   -4.0895    0.6803 C   0  0  0  0  0  0  0  0  0  0  0  0
    2.4059   -4.1510    2.1169 C   0  0  0  0  0  0  0  0  0  0  0  0
    1.8501   -5.1700    2.5358 O   0  0  0  0  0  0  0  0  0  0  0  0
    2.5669   -2.8379    2.9169 C   0  0  2  0  0  0  0  0  0  0  0  0
    4.0377   -2.3449    2.7996 C   0  0  1  0  0  0  0  0  0  0  0  0
    4.7099   -2.0619    4.1728 C   0  0  2  0  0  0  0  0  0  0  0  0
    4.4084   -3.0086    5.3557 C   0  0  2  0  0  0  0  0  0  0  0  0
    5.3847   -4.1984    5.4707 C   0  0  0  0  0  0  0  0  0  0  0  0
    2.9665   -3.5346    5.2891 C   0  0  0  0  0  0  0  0  0  0  0  0
    2.0052   -2.7315    4.3859 C   0  0  2  0  0  0  0  0  0  0  0  0
    0.6279   -3.4568    4.5338 C   0  0  0  0  0  0  0  0  0  0  0  0
    1.7941   -1.1908    4.7757 C   0  0  2  0  0  0  0  0  0  0  0  0
    1.3666   -0.9574    6.2487 C   0  0  0  0  0  0  0  0  0  0  0  0
    0.5906   -0.8653    4.0353 O   0  0  0  0  0  0  0  0  0  0  0  0
    0.2207    0.3741    3.5896 C   0  0  0  0  0  0  0  0  0  0  0  0
   -0.8760    0.6219    3.1042 O   0  0  0  0  0  0  0  0  0  0  0  0
    1.2170    1.5129    3.7578 C   0  0  0  0  0  0  0  0  0  0  0  0
    2.6219    1.0026    3.9259 C   0  0  0  0  0  0  0  0  0  0  0  0
    2.9479   -0.2086    4.4380 C   0  0  0  0  0  0  0  0  0  0  0  0
    4.4239   -0.6228    4.6622 C   0  0  2  0  0  0  0  0  0  0  0  0
    5.4176    0.3374    3.9739 C   0  0  0  0  0  0  0  0  0  0  0  0
    4.7519   -0.6285    6.1549 C   0  0  0  0  0  0  0  0  0  0  0  0
    4.6099   -2.0869    6.5444 C   0  0  0  0  0  0  0  0  0  0  0  0
    4.6752   -2.4693    7.7213 O   0  0  0  0  0  0  0  0  0  0  0  0
    4.9920   -3.2372    1.9643 C   0  0  2  0  0  0  0  0  0  0  0  0
    6.0970   -2.4455    1.5311 O   0  0  0  0  0  0  0  0  0  0  0  0
    6.1635   -2.2634    0.2000 C   0  0  0  0  0  0  0  0  0  0  0  0
    7.1019   -1.8315   -0.4465 O   0  0  0  0  0  0  0  0  0  0  0  0
    4.9072   -2.8143   -0.4372 C   0  0  1  0  0  0  0  0  0  0  0  0
    5.0892   -3.3920   -1.8523 C   0  0  0  0  0  0  0  0  0  0  0  0
    3.7998   -1.4319   -0.5853 Cl  0  0  0  0  0  0  0  0  0  0  0  0
    6.6963   -6.4312    0.2606 H   0  0  0  0  0  0  0  0  0  0  0  0
    6.6382   -5.5227    1.7425 H   0  0  0  0  0  0  0  0  0  0  0  0
    7.1291   -4.7862    0.2147 H   0  0  0  0  0  0  0  0  0  0  0  0
    2.3667   -3.2941    0.1963 H   0  0  0  0  0  0  0  0  0  0  0  0
    2.6655   -5.0014    0.1444 H   0  0  0  0  0  0  0  0  0  0  0  0
    1.9859   -2.1349    2.3287 H   0  0  0  0  0  0  0  0  0  0  0  0
    3.9828   -1.4061    2.2428 H   0  0  0  0  0  0  0  0  0  0  0  0
    5.7841   -2.1243    4.0244 H   0  0  0  0  0  0  0  0  0  0  0  0
    5.3512   -4.8550    4.6052 H   0  0  0  0  0  0  0  0  0  0  0  0
    5.1308   -4.8113    6.3360 H   0  0  0  0  0  0  0  0  0  0  0  0
    6.4132   -3.8675    5.6163 H   0  0  0  0  0  0  0  0  0  0  0  0
    3.0013   -4.5803    4.9518 H   0  0  0  0  0  0  0  0  0  0  0  0
    2.5401   -3.5818    6.2907 H   0  0  0  0  0  0  0  0  0  0  0  0
    0.0829   -3.1842    5.4376 H   0  0  0  0  0  0  0  0  0  0  0  0
    0.7341   -4.5374    4.6005 H   0  0  0  0  0  0  0  0  0  0  0  0
   -0.0247   -3.2439    3.6854 H   0  0  0  0  0  0  0  0  0  0  0  0
    2.0822   -1.3288    6.9679 H   0  0  0  0  0  0  0  0  0  0  0  0
    0.4015   -1.3863    6.4939 H   0  0  0  0  0  0  0  0  0  0  0  0
    1.2658    0.1077    6.4358 H   0  0  0  0  0  0  0  0  0  0  0  0
    1.1821    2.1243    2.8617 H   0  0  0  0  0  0  0  0  0  0  0  0
    0.9315    2.1298    4.6004 H   0  0  0  0  0  0  0  0  0  0  0  0
    3.3617    1.7442    3.7013 H   0  0  0  0  0  0  0  0  0  0  0  0
    6.4533    0.0019    4.0576 H   0  0  0  0  0  0  0  0  0  0  0  0
    5.3800    1.3356    4.4289 H   0  0  0  0  0  0  0  0  0  0  0  0
    5.2130    0.4400    2.9020 H   0  0  0  0  0  0  0  0  0  0  0  0
    5.7833   -0.3378    6.3369 H   0  0  0  0  0  0  0  0  0  0  0  0
    4.1073    0.0156    6.7470 H   0  0  0  0  0  0  0  0  0  0  0  0
    5.2783   -4.0490    2.6301 H   0  0  0  0  0  0  0  0  0  0  0  0
    5.8064   -4.2110   -1.8761 H   0  0  0  0  0  0  0  0  0  0  0  0
    5.4336   -2.6346   -2.5614 H   0  0  0  0  0  0  0  0  0  0  0  0
    4.1428   -3.7869   -2.2350 H   0  0  0  0  0  0  0  0  0  0  0  0
  1  2  1  0
  1 35  1  0
  1 36  1  0
  1 37  1  0
  3  2  1  6
  3 28  1  0
  3 32  1  0
  3  4  1  0
  4  5  1  0
  4 38  1  0
  4 39  1  0
  5  6  2  0
  5  7  1  0
  7 13  1  0
  7  8  1  0
  7 40  1  6
  8  9  1  0
  8 28  1  0
  8 41  1  6
  9 23  1  0
  9 10  1  0
  9 42  1  6
 10 26  1  0
 10 11  1  1
 10 12  1  0
 11 43  1  0
 11 44  1  0
 11 45  1  0
 12 13  1  0
 12 46  1  0
 12 47  1  0
 13 14  1  6
 13 15  1  0
 14 48  1  0
 14 49  1  0
 14 50  1  0
 15 22  1  0
 15 16  1  1
 15 17  1  0
 16 51  1  0
 16 52  1  0
 16 53  1  0
 17 18  1  0
 18 19  2  0
 18 20  1  0
 20 21  1  0
 20 54  1  0
 20 55  1  0
 21 22  2  0
 21 56  1  0
 22 23  1  0
 23 24  1  6
 23 25  1  0
 24 57  1  0
 24 58  1  0
 24 59  1  0
 25 26  1  0
 25 60  1  0
 25 61  1  0
 26 27  2  0
 28 29  1  0
 28 62  1  1
 29 30  1  0
 30 31  2  0
 30 32  1  0
 32 33  1  0
 32 34  1  6
 33 63  1  0
 33 64  1  0
 33 65  1  0
M  END
>  <i_m_ct_stereo_status>  (318) 
1

>  <s_m_source_file>  (318) 
/var/tmp/pbs.5076255.sched01/tmpk7n3yjou/123nw9z_609.sdf

>  <i_m_source_file_index>  (318) 
18

>  <i_lp_mmshare_version>  (318) 
48012

>  <i_f3d_flags>  (318) 
0

>  <s_epik_input>  (318) 
W0NIM11bQ0BdMShDbClDKD1PKU9bQ0BIXShbQ0BdMTJPW0NIM10pW0NASF0zW0NAQEhdKEMoPU8pW0NIMl0yKVtDQF00KFtDSDNdKVtDQEBdNShbQ0gzXSlDKD1bQ0hdW0NIMl1DKE81KT1PKVtDQF02KFtDSDNdKVtDQEhdM1tDQF0oW0NIM10pKFtDSDJdNClDKD1PKVtDSDJdNg==

>  <s_epik_cmdline>  (318) 
J2VwaWtfcHl0aG9uJywgJy1waHQnLCAnMi4wJywgJy1waCcsICc3LjAnLCAnLXRuJywgJzgnLCAnLW1hJywgJzIwMCcsICctaW1hZScsICc8aW5maWxlLm1hZT4nLCAnLW9tYWUnLCAnPG91dGZpbGUubWFlPic=

>  <r_lp_tautomer_probability>  (318) 
1

>  <r_epik_Ionization_Penalty>  (318) 
2.02804e-10

>  <r_epik_Ionization_Penalty_Charging>  (318) 
0

>  <r_epik_Ionization_Penalty_Neutral>  (318) 
2.02804e-10

>  <r_epik_State_Penalty>  (318) 
-0

>  <r_epik_Charging_Adjusted_Penalty>  (318) 
0

>  <i_epik_Tot_Q>  (318) 
0

>  <i_epik_Tot_abs_Q>  (318) 
0

>  <s_epik_Chemistry_Notes>  (318) 
This compound has an ester and may undergo hydrolysis at high or low pH.

>  <s_lp_Force_Field>  (318) 
OPLS3e

>  <r_lp_Energy>  (318) 
56.346

>  <b_lp_Chiralities_Consistent>  (318) 
1

>  <s_lp_Variant>  (318) 
98:0-1

>  <s_i_glide_gridfile>  (318) 
pfpi4k_grid

>  <i_i_glide_lignum>  (318) 
18

>  <i_i_glide_rotatable_bonds>  (318) 
1

>  <r_i_docking_score>  (318) 
-2.14827

>  <r_i_glide_ligand_efficiency>  (318) 
-0.0631845

>  <r_i_glide_ligand_efficiency_sa>  (318) 
-0.204693

>  <r_i_glide_ligand_efficiency_ln>  (318) 
-0.474613

>  <r_i_glide_gscore>  (318) 
-2.14827

>  <r_i_glide_lipo>  (318) 
-0.454066

>  <r_i_glide_hbond>  (318) 
-0.157421

>  <r_i_glide_metal>  (318) 
-0

>  <r_i_glide_rewards>  (318) 
-0.110891

>  <r_i_glide_evdw>  (318) 
-22.9006

>  <r_i_glide_ecoul>  (318) 
-1.67062

>  <r_i_glide_erotb>  (318) 
0

>  <r_i_glide_esite>  (318) 
-0.0302723

>  <r_i_glide_emodel>  (318) 
-24.0622

>  <r_i_glide_energy>  (318) 
-24.5712

>  <r_i_glide_einternal>  (318) 
6.60034

>  <r_i_glide_intrahb_reward>  (318) 
-0

>  <i_i_glide_confnum>  (318) 
2

>  <i_i_glide_posenum>  (318) 
38

>  <r_i_glide_eff_state_penalty>  (318) 
0

>  <ligand_id>  (318) 
98

>  <original_smiles>  (318) 
COC12CC(=O)C3C(C4C5(C)CC3(C)C3(C)OC(=O)CC=C3C4(C)CC5=O)C1OC(=O)C2(C)Cl

>  <smiles>  (318) 
[H]C1=C2C(C([H])([H])[H])(OC(=O)C1([H])[H])C1(C([H])([H])[H])C([H])([H])C3(C([H])([H])[H])C(=O)C([H])([H])C2(C([H])([H])[H])C3([H])C2([H])C3([H])OC(=O)C(Cl)(C([H])([H])[H])C3(OC([H])([H])[H])C([H])([H])C(=O)C21[H]

$$$$
98:0:2
     RDKit          3D

 65 70  0  0  1  0  0  0  0  0999 V2000
    0.3731    6.0281    4.3024 C   0  0  0  0  0  0  0  0  0  0  0  0
   -0.5993    4.9997    4.4763 O   0  0  0  0  0  0  0  0  0  0  0  0
   -0.1769    3.6935    4.9089 C   0  0  1  0  0  0  0  0  0  0  0  0
    1.0332    3.1899    4.0679 C   0  0  0  0  0  0  0  0  0  0  0  0
    2.3406    3.3620    4.8388 C   0  0  0  0  0  0  0  0  0  0  0  0
    3.1992    4.1514    4.4559 O   0  0  0  0  0  0  0  0  0  0  0  0
    2.4201    2.5330    6.1450 C   0  0  2  0  0  0  0  0  0  0  0  0
    1.1424    2.7996    7.0157 C   0  0  1  0  0  0  0  0  0  0  0  0
    1.4615    3.1437    8.5011 C   0  0  2  0  0  0  0  0  0  0  0  0
    2.6467    4.1023    8.7740 C   0  0  2  0  0  0  0  0  0  0  0  0
    2.2518    5.5950    8.7927 C   0  0  0  0  0  0  0  0  0  0  0  0
    3.7903    3.8825    7.7639 C   0  0  0  0  0  0  0  0  0  0  0  0
    3.7570    2.5413    6.9823 C   0  0  2  0  0  0  0  0  0  0  0  0
    5.0264    2.5949    6.0698 C   0  0  0  0  0  0  0  0  0  0  0  0
    3.8451    1.2158    7.8799 C   0  0  2  0  0  0  0  0  0  0  0  0
    5.0493    1.1823    8.8632 C   0  0  0  0  0  0  0  0  0  0  0  0
    4.1919    0.2076    6.9022 O   0  0  0  0  0  0  0  0  0  0  0  0
    3.9349   -1.1200    6.9761 C   0  0  0  0  0  0  0  0  0  0  0  0
    4.3782   -1.9299    6.1652 O   0  0  0  0  0  0  0  0  0  0  0  0
    3.0711   -1.6020    8.1299 C   0  0  0  0  0  0  0  0  0  0  0  0
    2.2428   -0.4887    8.7238 C   0  0  0  0  0  0  0  0  0  0  0  0
    2.5686    0.8185    8.6668 C   0  0  0  0  0  0  0  0  0  0  0  0
    1.6946    1.8881    9.3811 C   0  0  2  0  0  0  0  0  0  0  0  0
    0.3157    1.3329    9.8304 C   0  0  0  0  0  0  0  0  0  0  0  0
    2.4124    2.4115   10.6340 C   0  0  0  0  0  0  0  0  0  0  0  0
    3.0715    3.6957   10.1845 C   0  0  0  0  0  0  0  0  0  0  0  0
    3.8576    4.3346   10.8845 O   0  0  0  0  0  0  0  0  0  0  0  0
    0.1067    3.8142    6.4336 C   0  0  2  0  0  0  0  0  0  0  0  0
   -1.1712    3.6118    7.0210 O   0  0  0  0  0  0  0  0  0  0  0  0
   -2.0805    3.1211    6.1961 C   0  0  0  0  0  0  0  0  0  0  0  0
   -3.2666    2.9490    6.4617 O   0  0  0  0  0  0  0  0  0  0  0  0
   -1.4335    2.7819    4.8618 C   0  0  1  0  0  0  0  0  0  0  0  0
   -2.3675    3.0017    3.6494 C   0  0  0  0  0  0  0  0  0  0  0  0
   -1.0259    1.0411    4.9124 Cl  0  0  0  0  0  0  0  0  0  0  0  0
   -0.1412    6.9621    4.0792 H   0  0  0  0  0  0  0  0  0  0  0  0
    1.0439    5.8288    3.4674 H   0  0  0  0  0  0  0  0  0  0  0  0
    0.9696    6.1959    5.1969 H   0  0  0  0  0  0  0  0  0  0  0  0
    0.9511    2.1322    3.8278 H   0  0  0  0  0  0  0  0  0  0  0  0
    1.0833    3.6934    3.1015 H   0  0  0  0  0  0  0  0  0  0  0  0
    2.3263    1.5135    5.7743 H   0  0  0  0  0  0  0  0  0  0  0  0
    0.6234    1.8414    7.0254 H   0  0  0  0  0  0  0  0  0  0  0  0
    0.5846    3.6470    8.9123 H   0  0  0  0  0  0  0  0  0  0  0  0
    1.8600    5.9286    7.8339 H   0  0  0  0  0  0  0  0  0  0  0  0
    3.1188    6.2201    9.0108 H   0  0  0  0  0  0  0  0  0  0  0  0
    1.5035    5.8093    9.5563 H   0  0  0  0  0  0  0  0  0  0  0  0
    3.7477    4.7024    7.0383 H   0  0  0  0  0  0  0  0  0  0  0  0
    4.7586    4.0063    8.2510 H   0  0  0  0  0  0  0  0  0  0  0  0
    5.9484    2.3258    6.5836 H   0  0  0  0  0  0  0  0  0  0  0  0
    5.2172    3.5967    5.6840 H   0  0  0  0  0  0  0  0  0  0  0  0
    4.9324    1.9302    5.2100 H   0  0  0  0  0  0  0  0  0  0  0  0
    5.0600    2.0043    9.5737 H   0  0  0  0  0  0  0  0  0  0  0  0
    6.0136    1.1802    8.3610 H   0  0  0  0  0  0  0  0  0  0  0  0
    5.0277    0.2653    9.4539 H   0  0  0  0  0  0  0  0  0  0  0  0
    2.3952   -2.3616    7.7381 H   0  0  0  0  0  0  0  0  0  0  0  0
    3.6885   -2.0714    8.8934 H   0  0  0  0  0  0  0  0  0  0  0  0
    1.3986   -0.8509    9.2835 H   0  0  0  0  0  0  0  0  0  0  0  0
   -0.3151    2.1188   10.2524 H   0  0  0  0  0  0  0  0  0  0  0  0
    0.4111    0.5764   10.6140 H   0  0  0  0  0  0  0  0  0  0  0  0
   -0.2411    0.8949    8.9988 H   0  0  0  0  0  0  0  0  0  0  0  0
    1.7049    2.6584   11.4240 H   0  0  0  0  0  0  0  0  0  0  0  0
    3.1338    1.7066   11.0449 H   0  0  0  0  0  0  0  0  0  0  0  0
    0.4337    4.8228    6.6773 H   0  0  0  0  0  0  0  0  0  0  0  0
   -2.7577    4.0212    3.6063 H   0  0  0  0  0  0  0  0  0  0  0  0
   -3.2289    2.3286    3.6836 H   0  0  0  0  0  0  0  0  0  0  0  0
   -1.8418    2.8071    2.7106 H   0  0  0  0  0  0  0  0  0  0  0  0
  1  2  1  0
  1 35  1  0
  1 36  1  0
  1 37  1  0
  3  2  1  6
  3 28  1  0
  3 32  1  0
  3  4  1  0
  4  5  1  0
  4 38  1  0
  4 39  1  0
  5  6  2  0
  5  7  1  0
  7 13  1  0
  7  8  1  0
  7 40  1  6
  8  9  1  0
  8 28  1  0
  8 41  1  1
  9 23  1  0
  9 10  1  0
  9 42  1  1
 10 26  1  0
 10 11  1  1
 10 12  1  0
 11 43  1  0
 11 44  1  0
 11 45  1  0
 12 13  1  0
 12 46  1  0
 12 47  1  0
 13 14  1  6
 13 15  1  0
 14 48  1  0
 14 49  1  0
 14 50  1  0
 15 22  1  0
 15 16  1  1
 15 17  1  0
 16 51  1  0
 16 52  1  0
 16 53  1  0
 17 18  1  0
 18 19  2  0
 18 20  1  0
 20 21  1  0
 20 54  1  0
 20 55  1  0
 21 22  2  0
 21 56  1  0
 22 23  1  0
 23 24  1  1
 23 25  1  0
 24 57  1  0
 24 58  1  0
 24 59  1  0
 25 26  1  0
 25 60  1  0
 25 61  1  0
 26 27  2  0
 28 29  1  0
 28 62  1  6
 29 30  1  0
 30 31  2  0
 30 32  1  0
 32 33  1  0
 32 34  1  1
 33 63  1  0
 33 64  1  0
 33 65  1  0
M  END
>  <i_m_ct_stereo_status>  (319) 
1

>  <s_m_source_file>  (319) 
/var/tmp/pbs.5076255.sched01/tmpk7n3yjou/123nw9z_609.sdf

>  <i_m_source_file_index>  (319) 
18

>  <i_lp_mmshare_version>  (319) 
48012

>  <i_f3d_flags>  (319) 
0

>  <s_epik_input>  (319) 
W0NIM11bQ0BdMShDbClDKD1PKU9bQ0BIXShbQ0BdMTJPW0NIM10pW0NASF0zW0NAQEhdKEMoPU8pW0NIMl0yKVtDQF00KFtDSDNdKVtDQEBdNShbQ0gzXSlDKD1bQ0hdW0NIMl1DKE81KT1PKVtDQF02KFtDSDNdKVtDQEhdM1tDQF0oW0NIM10pKFtDSDJdNClDKD1PKVtDSDJdNg==

>  <s_epik_cmdline>  (319) 
J2VwaWtfcHl0aG9uJywgJy1waHQnLCAnMi4wJywgJy1waCcsICc3LjAnLCAnLXRuJywgJzgnLCAnLW1hJywgJzIwMCcsICctaW1hZScsICc8aW5maWxlLm1hZT4nLCAnLW9tYWUnLCAnPG91dGZpbGUubWFlPic=

>  <r_lp_tautomer_probability>  (319) 
1

>  <r_epik_Ionization_Penalty>  (319) 
2.02804e-10

>  <r_epik_Ionization_Penalty_Charging>  (319) 
0

>  <r_epik_Ionization_Penalty_Neutral>  (319) 
2.02804e-10

>  <r_epik_State_Penalty>  (319) 
-0

>  <r_epik_Charging_Adjusted_Penalty>  (319) 
0

>  <i_epik_Tot_Q>  (319) 
0

>  <i_epik_Tot_abs_Q>  (319) 
0

>  <s_epik_Chemistry_Notes>  (319) 
This compound has an ester and may undergo hydrolysis at high or low pH.

>  <s_lp_Force_Field>  (319) 
OPLS3e

>  <r_lp_Energy>  (319) 
56.346

>  <b_lp_Chiralities_Consistent>  (319) 
1

>  <s_lp_Variant>  (319) 
98:0-1

>  <s_i_glide_gridfile>  (319) 
pfpi4k_grid

>  <i_i_glide_lignum>  (319) 
18

>  <i_i_glide_rotatable_bonds>  (319) 
1

>  <r_i_docking_score>  (319) 
-1.32173

>  <r_i_glide_ligand_efficiency>  (319) 
-0.0388744

>  <r_i_glide_ligand_efficiency_sa>  (319) 
-0.125938

>  <r_i_glide_ligand_efficiency_ln>  (319) 
-0.292007

>  <r_i_glide_gscore>  (319) 
-1.32173

>  <r_i_glide_lipo>  (319) 
-0.00714229

>  <r_i_glide_hbond>  (319) 
-0.0181452

>  <r_i_glide_metal>  (319) 
-0

>  <r_i_glide_rewards>  (319) 
-0.15737

>  <r_i_glide_evdw>  (319) 
-17.3046

>  <r_i_glide_ecoul>  (319) 
-1.78672

>  <r_i_glide_erotb>  (319) 
0

>  <r_i_glide_esite>  (319) 
-0.00583458

>  <r_i_glide_emodel>  (319) 
-21.0327

>  <r_i_glide_energy>  (319) 
-19.0913

>  <r_i_glide_einternal>  (319) 
0.0688196

>  <r_i_glide_intrahb_reward>  (319) 
-0

>  <i_i_glide_confnum>  (319) 
1

>  <i_i_glide_posenum>  (319) 
1

>  <r_i_glide_eff_state_penalty>  (319) 
0

>  <ligand_id>  (319) 
98

>  <original_smiles>  (319) 
COC12CC(=O)C3C(C4C5(C)CC3(C)C3(C)OC(=O)CC=C3C4(C)CC5=O)C1OC(=O)C2(C)Cl

>  <smiles>  (319) 
[H]C1=C2C(C([H])([H])[H])(OC(=O)C1([H])[H])C1(C([H])([H])[H])C([H])([H])C3(C([H])([H])[H])C(=O)C([H])([H])C2(C([H])([H])[H])C3([H])C2([H])C3([H])OC(=O)C(Cl)(C([H])([H])[H])C3(OC([H])([H])[H])C([H])([H])C(=O)C21[H]

$$$$
99:0:0
     RDKit          3D

 72 79  0  0  1  0  0  0  0  0999 V2000
    1.8918   -8.4650    8.2991 C   0  0  0  0  0  0  0  0  0  0  0  0
    1.8259   -8.4599    6.8916 O   0  0  0  0  0  0  0  0  0  0  0  0
    2.1232   -7.3850    6.1449 C   0  0  0  0  0  0  0  0  0  0  0  0
    2.3927   -6.2760    6.6115 O   0  0  0  0  0  0  0  0  0  0  0  0
    2.0734   -7.6904    4.6783 C   0  0  0  0  0  0  0  0  0  0  0  0
    1.6647   -6.7412    3.8455 C   0  0  0  0  0  0  0  0  0  0  0  0
    1.5704   -7.3931    2.5174 C   0  0  2  0  0  0  0  0  0  0  0  0
    0.2203   -8.2000    2.6029 C   0  0  2  0  0  0  0  0  0  0  0  0
   -0.8269   -7.7923    3.6862 C   0  0  0  0  0  0  0  0  0  0  0  0
   -0.3148   -9.1903    3.6797 C   0  0  2  0  0  0  0  0  0  0  0  0
    0.5224  -10.0969    4.6877 C   0  0  1  0  0  0  0  0  0  0  0  0
    0.8072  -11.2189    3.7593 C   0  0  0  0  0  0  0  0  0  0  0  0
    2.1081  -10.4207    3.5456 C   0  0  2  0  0  0  0  0  0  0  0  0
    2.1350  -10.4123    5.0179 C   0  0  1  0  0  0  0  0  0  0  0  0
    3.5614   -9.6955    4.7461 C   0  0  1  0  0  0  0  0  0  0  0  0
    4.8565  -10.4221    4.2436 C   0  0  2  0  0  0  0  0  0  0  0  0
    4.8744  -11.6999    4.8893 O   0  0  0  0  0  0  0  0  0  0  0  0
    4.9866  -11.7607    6.3078 C   0  0  0  0  0  0  0  0  0  0  0  0
    6.1540   -9.6436    4.5735 C   0  0  0  0  0  0  0  0  0  0  0  0
    7.2885  -10.3715    3.8357 C   0  0  0  0  0  0  0  0  0  0  0  0
    6.5577  -11.0744    2.7090 C   0  0  0  0  0  0  0  0  0  0  0  0
    7.1050  -11.8092    1.8790 O   0  0  0  0  0  0  0  0  0  0  0  0
    5.0697  -10.7689    2.7232 C   0  0  2  0  0  0  0  0  0  0  0  0
    4.8021   -9.7209    1.5900 C   0  0  0  0  0  0  0  0  0  0  0  0
    3.3927   -9.0873    1.3887 C   0  0  0  0  0  0  0  0  0  0  0  0
    2.9578   -8.1735    2.5562 C   0  0  1  0  0  0  0  0  0  0  0  0
    4.1016   -7.3176    2.8145 O   0  0  0  0  0  0  0  0  0  0  0  0
    4.3937   -6.2142    2.0700 C   0  0  0  0  0  0  0  0  0  0  0  0
    3.6088   -5.7056    1.2798 O   0  0  0  0  0  0  0  0  0  0  0  0
    5.7586   -5.7116    2.3340 C   0  0  0  0  0  0  0  0  0  0  0  0
    6.3675   -4.6472    1.7462 C   0  0  0  0  0  0  0  0  0  0  0  0
    5.9253   -3.7272    0.6786 C   0  0  0  0  0  0  0  0  0  0  0  0
    6.2217   -2.3438    0.7784 C   0  0  0  0  0  0  0  0  0  0  0  0
    5.7525   -1.4381   -0.1933 C   0  0  0  0  0  0  0  0  0  0  0  0
    4.9653   -1.8968   -1.2665 C   0  0  0  0  0  0  0  0  0  0  0  0
    4.6854   -3.2720   -1.3818 C   0  0  0  0  0  0  0  0  0  0  0  0
    5.2049   -4.1768   -0.4449 C   0  0  0  0  0  0  0  0  0  0  0  0
    2.6928   -8.9055    3.8432 C   0  0  2  0  0  0  0  0  0  0  0  0
    1.6675   -9.4757    8.6442 H   0  0  0  0  0  0  0  0  0  0  0  0
    1.1549   -7.7865    8.7242 H   0  0  0  0  0  0  0  0  0  0  0  0
    2.8896   -8.2059    8.6481 H   0  0  0  0  0  0  0  0  0  0  0  0
    1.2713   -5.7607    4.0813 H   0  0  0  0  0  0  0  0  0  0  0  0
    1.4690   -6.6843    1.7033 H   0  0  0  0  0  0  0  0  0  0  0  0
   -0.1647   -8.4266    1.6110 H   0  0  0  0  0  0  0  0  0  0  0  0
   -0.6118   -7.2312    4.5936 H   0  0  0  0  0  0  0  0  0  0  0  0
   -1.8462   -7.6592    3.3295 H   0  0  0  0  0  0  0  0  0  0  0  0
   -1.1555   -9.7896    3.3399 H   0  0  0  0  0  0  0  0  0  0  0  0
   -0.0762  -10.4232    5.5394 H   0  0  0  0  0  0  0  0  0  0  0  0
    0.9160  -12.2051    4.2226 H   0  0  0  0  0  0  0  0  0  0  0  0
    0.2247  -11.3253    2.8451 H   0  0  0  0  0  0  0  0  0  0  0  0
    2.7543  -11.1345    3.0582 H   0  0  0  0  0  0  0  0  0  0  0  0
    2.2939  -11.3710    5.5294 H   0  0  0  0  0  0  0  0  0  0  0  0
    3.8628   -9.1427    5.6324 H   0  0  0  0  0  0  0  0  0  0  0  0
    4.7524  -12.7753    6.6302 H   0  0  0  0  0  0  0  0  0  0  0  0
    4.2999  -11.0937    6.8276 H   0  0  0  0  0  0  0  0  0  0  0  0
    6.0025  -11.5386    6.6308 H   0  0  0  0  0  0  0  0  0  0  0  0
    6.0857   -8.6298    4.1831 H   0  0  0  0  0  0  0  0  0  0  0  0
    6.3543   -9.5499    5.6382 H   0  0  0  0  0  0  0  0  0  0  0  0
    8.0567   -9.6891    3.4676 H   0  0  0  0  0  0  0  0  0  0  0  0
    7.7581  -11.1142    4.4796 H   0  0  0  0  0  0  0  0  0  0  0  0
    4.5675  -11.7029    2.4816 H   0  0  0  0  0  0  0  0  0  0  0  0
    5.5572   -8.9349    1.6235 H   0  0  0  0  0  0  0  0  0  0  0  0
    5.0288  -10.2268    0.6520 H   0  0  0  0  0  0  0  0  0  0  0  0
    3.4567   -8.4703    0.4954 H   0  0  0  0  0  0  0  0  0  0  0  0
    2.6466   -9.8411    1.1397 H   0  0  0  0  0  0  0  0  0  0  0  0
    6.3232   -6.2561    3.0803 H   0  0  0  0  0  0  0  0  0  0  0  0
    7.3652   -4.4441    2.0856 H   0  0  0  0  0  0  0  0  0  0  0  0
    6.7983   -1.9684    1.6110 H   0  0  0  0  0  0  0  0  0  0  0  0
    5.9726   -0.3827   -0.1041 H   0  0  0  0  0  0  0  0  0  0  0  0
    4.5726   -1.2072   -2.0007 H   0  0  0  0  0  0  0  0  0  0  0  0
    4.0651   -3.6469   -2.1809 H   0  0  0  0  0  0  0  0  0  0  0  0
    5.0153   -5.2316   -0.5887 H   0  0  0  0  0  0  0  0  0  0  0  0
  1  2  1  0
  1 39  1  0
  1 40  1  0
  1 41  1  0
  2  3  1  0
  3  4  2  0
  3  5  1  0
 38  5  1  1
  5  6  2  0
  6  7  1  0
  6 42  1  0
  7 26  1  0
  7  8  1  0
  7 43  1  6
  8 10  1  0
  8  9  1  0
  8 44  1  6
  9 10  1  0
  9 45  1  0
  9 46  1  0
 10 11  1  0
 10 47  1  6
 11 14  1  0
 11 12  1  0
 11 48  1  1
 12 13  1  0
 12 49  1  0
 12 50  1  0
 13 38  1  0
 13 14  1  0
 13 51  1  6
 14 15  1  0
 14 52  1  1
 15 38  1  0
 15 16  1  0
 15 53  1  1
 16 23  1  0
 16 17  1  1
 16 19  1  0
 17 18  1  0
 18 54  1  0
 18 55  1  0
 18 56  1  0
 19 20  1  0
 19 57  1  0
 19 58  1  0
 20 21  1  0
 20 59  1  0
 20 60  1  0
 21 22  2  0
 21 23  1  0
 23 24  1  0
 23 61  1  6
 24 25  1  0
 24 62  1  0
 24 63  1  0
 25 26  1  0
 25 64  1  0
 25 65  1  0
 26 27  1  1
 26 38  1  0
 27 28  1  0
 28 29  2  0
 28 30  1  0
 30 31  2  3
 30 66  1  0
 31 32  1  0
 31 67  1  0
 32 37  1  0
 32 33  2  0
 33 34  1  0
 33 68  1  0
 34 35  2  0
 34 69  1  0
 35 36  1  0
 35 70  1  0
 36 37  2  0
 36 71  1  0
 37 72  1  0
M  END
>  <i_m_ct_stereo_status>  (320) 
1

>  <s_m_source_file>  (320) 
/var/tmp/pbs.5076255.sched01/tmpk7n3yjou/123nw9z_609.sdf

>  <i_m_source_file_index>  (320) 
19

>  <i_lp_mmshare_version>  (320) 
48012

>  <i_f3d_flags>  (320) 
0

>  <s_epik_input>  (320) 
Tz1DMVtDSDJdW0NIMl1bQ0BdKFtDQEhdMjMpKE9bQ0gzXSlbQ0BIXTFbQ0gyXVtDSDJdW0NAXTQoW0NASF0oW0NIXT1DNUMoPU8pT1tDSDNdKVtDQEhdKFtDSDJdNilbQ0BIXTZbQ0BASF0oW0NIMl03KVtDQEhdMltDQEBIXTdbQ0BAXTM0NSlPQyg9TykvW0NIXT1bQ0hdXGM4W2NIXVtjSF1bY0hdW2NIXVtjSF04

>  <s_epik_cmdline>  (320) 
J2VwaWtfcHl0aG9uJywgJy1waHQnLCAnMi4wJywgJy1waCcsICc3LjAnLCAnLXRuJywgJzgnLCAnLW1hJywgJzIwMCcsICctaW1hZScsICc8aW5maWxlLm1hZT4nLCAnLW9tYWUnLCAnPG91dGZpbGUubWFlPic=

>  <r_lp_tautomer_probability>  (320) 
1

>  <r_epik_Ionization_Penalty>  (320) 
9.37655e-12

>  <r_epik_Ionization_Penalty_Charging>  (320) 
0

>  <r_epik_Ionization_Penalty_Neutral>  (320) 
9.37655e-12

>  <r_epik_State_Penalty>  (320) 
-0

>  <r_epik_Charging_Adjusted_Penalty>  (320) 
0

>  <i_epik_Tot_Q>  (320) 
0

>  <i_epik_Tot_abs_Q>  (320) 
0

>  <s_epik_Chemistry_Notes>  (320) 
This compound has an ester and may undergo hydrolysis at high or low pH.

>  <s_lp_Force_Field>  (320) 
OPLS3e

>  <r_lp_Energy>  (320) 
228.722

>  <b_lp_Chiralities_Consistent>  (320) 
1

>  <s_lp_Variant>  (320) 
99:0-1

>  <s_i_glide_gridfile>  (320) 
pfpi4k_grid

>  <i_i_glide_lignum>  (320) 
19

>  <i_i_glide_rotatable_bonds>  (320) 
7

>  <r_i_docking_score>  (320) 
-2.17967

>  <r_i_glide_ligand_efficiency>  (320) 
-0.0573597

>  <r_i_glide_ligand_efficiency_sa>  (320) 
-0.192842

>  <r_i_glide_ligand_efficiency_ln>  (320) 
-0.470001

>  <r_i_glide_gscore>  (320) 
-2.17967

>  <r_i_glide_lipo>  (320) 
-0.472313

>  <r_i_glide_hbond>  (320) 
0

>  <r_i_glide_metal>  (320) 
-0

>  <r_i_glide_rewards>  (320) 
-0.0274388

>  <r_i_glide_evdw>  (320) 
-30.8883

>  <r_i_glide_ecoul>  (320) 
-2.74852

>  <r_i_glide_erotb>  (320) 
0.309849

>  <r_i_glide_esite>  (320) 
-0.0330754

>  <r_i_glide_emodel>  (320) 
-34.3264

>  <r_i_glide_energy>  (320) 
-33.6368

>  <r_i_glide_einternal>  (320) 
5.9909

>  <r_i_glide_intrahb_reward>  (320) 
-0

>  <i_i_glide_confnum>  (320) 
2

>  <i_i_glide_posenum>  (320) 
26

>  <r_i_glide_eff_state_penalty>  (320) 
0

>  <ligand_id>  (320) 
99

>  <original_smiles>  (320) 
COC(=O)C1=CC2C3CC3C3CC4C3C3C5(OC)CCC(=O)C5CCC2(OC(=O)C=Cc2ccccc2)C143

>  <smiles>  (320) 
[H]C(C(=O)OC12C([H])([H])C([H])([H])C3([H])C(=O)C([H])([H])C([H])([H])C3(OC([H])([H])[H])C3([H])C4([H])C5([H])C([H])([H])C4([H])C31C(C(=O)OC([H])([H])[H])=C([H])C2([H])C1([H])C([H])([H])C15[H])=C([H])c1c([H])c([H])c([H])c([H])c1[H]

$$$$
99:0:1
     RDKit          3D

 72 79  0  0  1  0  0  0  0  0999 V2000
    3.1611    5.3994    3.0461 C   0  0  0  0  0  0  0  0  0  0  0  0
    2.6173    4.0952    2.9019 O   0  0  0  0  0  0  0  0  0  0  0  0
    2.2318    3.4250    4.0144 C   0  0  0  0  0  0  0  0  0  0  0  0
    2.3725    3.8968    5.1361 O   0  0  0  0  0  0  0  0  0  0  0  0
    1.5774    2.1041    3.6983 C   0  0  0  0  0  0  0  0  0  0  0  0
    1.1575    1.8417    2.4736 C   0  0  0  0  0  0  0  0  0  0  0  0
    0.4317    0.5437    2.5434 C   0  0  2  0  0  0  0  0  0  0  0  0
   -0.9702    0.9777    3.1381 C   0  0  2  0  0  0  0  0  0  0  0  0
   -1.4000    2.4746    3.0454 C   0  0  0  0  0  0  0  0  0  0  0  0
   -1.3296    1.8451    4.3853 C   0  0  2  0  0  0  0  0  0  0  0  0
   -0.4713    2.0887    5.7154 C   0  0  1  0  0  0  0  0  0  0  0  0
   -0.8589    0.8446    6.4218 C   0  0  0  0  0  0  0  0  0  0  0  0
    0.4498    0.3407    5.7859 C   0  0  2  0  0  0  0  0  0  0  0  0
    1.0023    1.5916    6.3287 C   0  0  1  0  0  0  0  0  0  0  0  0
    2.3681    0.9223    5.7590 C   0  0  1  0  0  0  0  0  0  0  0  0
    3.1358   -0.2978    6.4071 C   0  0  2  0  0  0  0  0  0  0  0  0
    3.0181   -0.1272    7.8271 O   0  0  0  0  0  0  0  0  0  0  0  0
    3.6825    0.9710    8.4426 C   0  0  0  0  0  0  0  0  0  0  0  0
    4.6225   -0.3470    5.9831 C   0  0  0  0  0  0  0  0  0  0  0  0
    5.1743   -1.6716    6.5103 C   0  0  0  0  0  0  0  0  0  0  0  0
    3.9305   -2.5276    6.6255 C   0  0  0  0  0  0  0  0  0  0  0  0
    3.9353   -3.6899    7.0402 O   0  0  0  0  0  0  0  0  0  0  0  0
    2.6803   -1.7884    6.1745 C   0  0  2  0  0  0  0  0  0  0  0  0
    2.3030   -2.3274    4.7574 C   0  0  0  0  0  0  0  0  0  0  0  0
    1.1357   -1.6919    3.9492 C   0  0  0  0  0  0  0  0  0  0  0  0
    1.4580   -0.2476    3.4593 C   0  0  1  0  0  0  0  0  0  0  0  0
    2.7919   -0.2079    2.8893 O   0  0  0  0  0  0  0  0  0  0  0  0
    3.1015   -0.8830    1.7500 C   0  0  0  0  0  0  0  0  0  0  0  0
    2.4168   -1.7306    1.2851 O   0  0  0  0  0  0  0  0  0  0  0  0
    4.4162   -0.4261    1.2042 C   0  0  0  0  0  0  0  0  0  0  0  0
    4.8567   -0.6556   -0.0680 C   0  0  0  0  0  0  0  0  0  0  0  0
    4.2522   -1.3433   -1.2383 C   0  0  0  0  0  0  0  0  0  0  0  0
    3.5246   -2.5478   -1.1391 C   0  0  0  0  0  0  0  0  0  0  0  0
    2.8495   -3.0654   -2.2586 C   0  0  0  0  0  0  0  0  0  0  0  0
    3.0044   -2.4766   -3.5280 C   0  0  0  0  0  0  0  0  0  0  0  0
    3.8008   -1.3270   -3.6555 C   0  0  0  0  0  0  0  0  0  0  0  0
    4.3995   -0.7589   -2.5194 C   0  0  0  0  0  0  0  0  0  0  0  0
    1.4873    0.7681    4.5796 C   0  0  2  0  0  0  0  0  0  0  0  0
    3.4141    5.8007    2.0728 H   0  0  0  0  0  0  0  0  0  0  0  0
    4.0594    5.3744    3.6626 H   0  0  0  0  0  0  0  0  0  0  0  0
    2.4439    6.0695    3.5206 H   0  0  0  0  0  0  0  0  0  0  0  0
    1.1325    2.4891    1.6088 H   0  0  0  0  0  0  0  0  0  0  0  0
    0.3126    0.0899    1.5585 H   0  0  0  0  0  0  0  0  0  0  0  0
   -1.7339    0.2346    2.9318 H   0  0  0  0  0  0  0  0  0  0  0  0
   -0.7284    3.3199    2.9023 H   0  0  0  0  0  0  0  0  0  0  0  0
   -2.4011    2.6528    2.6596 H   0  0  0  0  0  0  0  0  0  0  0  0
   -2.3660    1.7655    4.7041 H   0  0  0  0  0  0  0  0  0  0  0  0
   -0.8079    2.9599    6.2654 H   0  0  0  0  0  0  0  0  0  0  0  0
   -0.8612    0.8955    7.5207 H   0  0  0  0  0  0  0  0  0  0  0  0
   -1.7344    0.2854    6.0935 H   0  0  0  0  0  0  0  0  0  0  0  0
    0.6509   -0.5618    6.3394 H   0  0  0  0  0  0  0  0  0  0  0  0
    1.0690    1.6652    7.4153 H   0  0  0  0  0  0  0  0  0  0  0  0
    3.1248    1.6810    5.6256 H   0  0  0  0  0  0  0  0  0  0  0  0
    3.3154    1.0664    9.4635 H   0  0  0  0  0  0  0  0  0  0  0  0
    3.5026    1.9216    7.9402 H   0  0  0  0  0  0  0  0  0  0  0  0
    4.7572    0.8007    8.5015 H   0  0  0  0  0  0  0  0  0  0  0  0
    4.6980   -0.3503    4.8952 H   0  0  0  0  0  0  0  0  0  0  0  0
    5.2129    0.5052    6.3234 H   0  0  0  0  0  0  0  0  0  0  0  0
    5.9164   -2.1222    5.8448 H   0  0  0  0  0  0  0  0  0  0  0  0
    5.6174   -1.5509    7.4990 H   0  0  0  0  0  0  0  0  0  0  0  0
    1.8831   -2.0607    6.8712 H   0  0  0  0  0  0  0  0  0  0  0  0
    3.2001   -2.3849    4.1399 H   0  0  0  0  0  0  0  0  0  0  0  0
    2.0304   -3.3754    4.8874 H   0  0  0  0  0  0  0  0  0  0  0  0
    0.9492   -2.3372    3.0983 H   0  0  0  0  0  0  0  0  0  0  0  0
    0.1851   -1.7606    4.4762 H   0  0  0  0  0  0  0  0  0  0  0  0
    5.0642    0.1077    1.8704 H   0  0  0  0  0  0  0  0  0  0  0  0
    5.8199   -0.2361   -0.2693 H   0  0  0  0  0  0  0  0  0  0  0  0
    3.4391   -3.0834   -0.2081 H   0  0  0  0  0  0  0  0  0  0  0  0
    2.2262   -3.9358   -2.1379 H   0  0  0  0  0  0  0  0  0  0  0  0
    2.5094   -2.9242   -4.3823 H   0  0  0  0  0  0  0  0  0  0  0  0
    3.9323   -0.8682   -4.6292 H   0  0  0  0  0  0  0  0  0  0  0  0
    4.9749    0.1413   -2.6261 H   0  0  0  0  0  0  0  0  0  0  0  0
  1  2  1  0
  1 39  1  0
  1 40  1  0
  1 41  1  0
  2  3  1  0
  3  4  2  0
  3  5  1  0
 38  5  1  6
  5  6  2  0
  6  7  1  0
  6 42  1  0
  7 26  1  0
  7  8  1  0
  7 43  1  6
  8 10  1  0
  8  9  1  0
  8 44  1  6
  9 10  1  0
  9 45  1  0
  9 46  1  0
 10 11  1  0
 10 47  1  1
 11 14  1  0
 11 12  1  0
 11 48  1  1
 12 13  1  0
 12 49  1  0
 12 50  1  0
 13 38  1  0
 13 14  1  0
 13 51  1  1
 14 15  1  0
 14 52  1  1
 15 38  1  0
 15 16  1  0
 15 53  1  6
 16 23  1  0
 16 17  1  1
 16 19  1  0
 17 18  1  0
 18 54  1  0
 18 55  1  0
 18 56  1  0
 19 20  1  0
 19 57  1  0
 19 58  1  0
 20 21  1  0
 20 59  1  0
 20 60  1  0
 21 22  2  0
 21 23  1  0
 23 24  1  0
 23 61  1  1
 24 25  1  0
 24 62  1  0
 24 63  1  0
 25 26  1  0
 25 64  1  0
 25 65  1  0
 26 27  1  6
 26 38  1  0
 27 28  1  0
 28 29  2  0
 28 30  1  0
 30 31  2  3
 30 66  1  0
 31 32  1  0
 31 67  1  0
 32 37  1  0
 32 33  2  0
 33 34  1  0
 33 68  1  0
 34 35  2  0
 34 69  1  0
 35 36  1  0
 35 70  1  0
 36 37  2  0
 36 71  1  0
 37 72  1  0
M  END
>  <i_m_ct_stereo_status>  (321) 
1

>  <s_m_source_file>  (321) 
/var/tmp/pbs.5076255.sched01/tmpk7n3yjou/123nw9z_609.sdf

>  <i_m_source_file_index>  (321) 
19

>  <i_lp_mmshare_version>  (321) 
48012

>  <i_f3d_flags>  (321) 
0

>  <s_epik_input>  (321) 
Tz1DMVtDSDJdW0NIMl1bQ0BdKFtDQEhdMjMpKE9bQ0gzXSlbQ0BIXTFbQ0gyXVtDSDJdW0NAXTQoW0NASF0oW0NIXT1DNUMoPU8pT1tDSDNdKVtDQEhdKFtDSDJdNilbQ0BIXTZbQ0BASF0oW0NIMl03KVtDQEhdMltDQEBIXTdbQ0BAXTM0NSlPQyg9TykvW0NIXT1bQ0hdXGM4W2NIXVtjSF1bY0hdW2NIXVtjSF04

>  <s_epik_cmdline>  (321) 
J2VwaWtfcHl0aG9uJywgJy1waHQnLCAnMi4wJywgJy1waCcsICc3LjAnLCAnLXRuJywgJzgnLCAnLW1hJywgJzIwMCcsICctaW1hZScsICc8aW5maWxlLm1hZT4nLCAnLW9tYWUnLCAnPG91dGZpbGUubWFlPic=

>  <r_lp_tautomer_probability>  (321) 
1

>  <r_epik_Ionization_Penalty>  (321) 
9.37655e-12

>  <r_epik_Ionization_Penalty_Charging>  (321) 
0

>  <r_epik_Ionization_Penalty_Neutral>  (321) 
9.37655e-12

>  <r_epik_State_Penalty>  (321) 
-0

>  <r_epik_Charging_Adjusted_Penalty>  (321) 
0

>  <i_epik_Tot_Q>  (321) 
0

>  <i_epik_Tot_abs_Q>  (321) 
0

>  <s_epik_Chemistry_Notes>  (321) 
This compound has an ester and may undergo hydrolysis at high or low pH.

>  <s_lp_Force_Field>  (321) 
OPLS3e

>  <r_lp_Energy>  (321) 
228.722

>  <b_lp_Chiralities_Consistent>  (321) 
1

>  <s_lp_Variant>  (321) 
99:0-1

>  <s_i_glide_gridfile>  (321) 
pfpi4k_grid

>  <i_i_glide_lignum>  (321) 
19

>  <i_i_glide_rotatable_bonds>  (321) 
7

>  <r_i_docking_score>  (321) 
-1.99785

>  <r_i_glide_ligand_efficiency>  (321) 
-0.0525749

>  <r_i_glide_ligand_efficiency_sa>  (321) 
-0.176756

>  <r_i_glide_ligand_efficiency_ln>  (321) 
-0.430794

>  <r_i_glide_gscore>  (321) 
-1.99785

>  <r_i_glide_lipo>  (321) 
-0.687801

>  <r_i_glide_hbond>  (321) 
0

>  <r_i_glide_metal>  (321) 
-0

>  <r_i_glide_rewards>  (321) 
0

>  <r_i_glide_evdw>  (321) 
-33.2921

>  <r_i_glide_ecoul>  (321) 
0.604505

>  <r_i_glide_erotb>  (321) 
0.309849

>  <r_i_glide_esite>  (321) 
-0.0459631

>  <r_i_glide_emodel>  (321) 
-33.2453

>  <r_i_glide_energy>  (321) 
-32.6876

>  <r_i_glide_einternal>  (321) 
4.04746

>  <r_i_glide_intrahb_reward>  (321) 
-0

>  <i_i_glide_confnum>  (321) 
1

>  <i_i_glide_posenum>  (321) 
27

>  <r_i_glide_eff_state_penalty>  (321) 
0

>  <ligand_id>  (321) 
99

>  <original_smiles>  (321) 
COC(=O)C1=CC2C3CC3C3CC4C3C3C5(OC)CCC(=O)C5CCC2(OC(=O)C=Cc2ccccc2)C143

>  <smiles>  (321) 
[H]C(C(=O)OC12C([H])([H])C([H])([H])C3([H])C(=O)C([H])([H])C([H])([H])C3(OC([H])([H])[H])C3([H])C4([H])C5([H])C([H])([H])C4([H])C31C(C(=O)OC([H])([H])[H])=C([H])C2([H])C1([H])C([H])([H])C15[H])=C([H])c1c([H])c([H])c([H])c([H])c1[H]

$$$$
99:0:2
     RDKit          3D

 72 79  0  0  1  0  0  0  0  0999 V2000
    3.1904    5.6876    3.0451 C   0  0  0  0  0  0  0  0  0  0  0  0
    2.6985    4.3616    2.9252 O   0  0  0  0  0  0  0  0  0  0  0  0
    2.2435    3.7265    4.0289 C   0  0  0  0  0  0  0  0  0  0  0  0
    2.2426    4.2587    5.1399 O   0  0  0  0  0  0  0  0  0  0  0  0
    1.7301    2.3496    3.7351 C   0  0  0  0  0  0  0  0  0  0  0  0
    1.4209    1.9798    2.4991 C   0  0  0  0  0  0  0  0  0  0  0  0
    0.7884    0.6385    2.6088 C   0  0  2  0  0  0  0  0  0  0  0  0
   -0.6869    0.9704    3.0937 C   0  0  2  0  0  0  0  0  0  0  0  0
   -1.2269    2.4222    2.9007 C   0  0  0  0  0  0  0  0  0  0  0  0
   -1.1920    1.8572    4.2736 C   0  0  2  0  0  0  0  0  0  0  0  0
   -0.4370    2.2501    5.6366 C   0  0  1  0  0  0  0  0  0  0  0  0
   -0.7632    1.0045    6.3777 C   0  0  0  0  0  0  0  0  0  0  0  0
    0.6257    0.5866    5.8563 C   0  0  2  0  0  0  0  0  0  0  0  0
    1.0273    1.8915    6.3729 C   0  0  1  0  0  0  0  0  0  0  0  0
    2.4766    1.3434    5.9006 C   0  0  1  0  0  0  0  0  0  0  0  0
    3.3024    0.2241    6.6569 C   0  0  2  0  0  0  0  0  0  0  0  0
    3.0749    0.4480    8.0614 O   0  0  0  0  0  0  0  0  0  0  0  0
    3.6060    1.6241    8.6656 C   0  0  0  0  0  0  0  0  0  0  0  0
    4.8160    0.2810    6.3361 C   0  0  0  0  0  0  0  0  0  0  0  0
    5.4401   -0.9629    6.9656 C   0  0  0  0  0  0  0  0  0  0  0  0
    4.2696   -1.9230    7.0545 C   0  0  0  0  0  0  0  0  0  0  0  0
    4.3427   -3.0610    7.5295 O   0  0  0  0  0  0  0  0  0  0  0  0
    2.9956   -1.3141    6.4810 C   0  0  2  0  0  0  0  0  0  0  0  0
    2.7606   -1.9515    5.0714 C   0  0  0  0  0  0  0  0  0  0  0  0
    1.6183   -1.4586    4.1392 C   0  0  0  0  0  0  0  0  0  0  0  0
    1.8276   -0.0104    3.6190 C   0  0  1  0  0  0  0  0  0  0  0  0
    3.1910    0.0764    3.1272 O   0  0  0  0  0  0  0  0  0  0  0  0
    3.6463   -0.5929    2.0349 C   0  0  0  0  0  0  0  0  0  0  0  0
    2.9720   -1.3394    1.3566 O   0  0  0  0  0  0  0  0  0  0  0  0
    5.0956   -0.3879    1.8550 C   0  0  0  0  0  0  0  0  0  0  0  0
    5.8397   -0.8385    0.8096 C   0  0  0  0  0  0  0  0  0  0  0  0
    5.4670   -1.5149   -0.4540 C   0  0  0  0  0  0  0  0  0  0  0  0
    4.2104   -1.3334   -1.0613 C   0  0  0  0  0  0  0  0  0  0  0  0
    3.8670   -2.0440   -2.2208 C   0  0  0  0  0  0  0  0  0  0  0  0
    4.8006   -2.9115   -2.8240 C   0  0  0  0  0  0  0  0  0  0  0  0
    6.0743   -3.0600   -2.2530 C   0  0  0  0  0  0  0  0  0  0  0  0
    6.3987   -2.3799   -1.0682 C   0  0  0  0  0  0  0  0  0  0  0  0
    1.6867    1.0594    4.6786 C   0  0  2  0  0  0  0  0  0  0  0  0
    3.5126    6.0543    2.0775 H   0  0  0  0  0  0  0  0  0  0  0  0
    4.0403    5.7215    3.7263 H   0  0  0  0  0  0  0  0  0  0  0  0
    2.4200    6.3560    3.4293 H   0  0  0  0  0  0  0  0  0  0  0  0
    1.3976    2.5777    1.6038 H   0  0  0  0  0  0  0  0  0  0  0  0
    0.7657    0.1302    1.6423 H   0  0  0  0  0  0  0  0  0  0  0  0
   -1.3631    0.1511    2.8772 H   0  0  0  0  0  0  0  0  0  0  0  0
   -0.6199    3.3166    2.7644 H   0  0  0  0  0  0  0  0  0  0  0  0
   -2.2072    2.5014    2.4442 H   0  0  0  0  0  0  0  0  0  0  0  0
   -2.2355    1.7034    4.5310 H   0  0  0  0  0  0  0  0  0  0  0  0
   -0.8943    3.1175    6.1100 H   0  0  0  0  0  0  0  0  0  0  0  0
   -0.8484    1.1008    7.4674 H   0  0  0  0  0  0  0  0  0  0  0  0
   -1.5698    0.3528    6.0330 H   0  0  0  0  0  0  0  0  0  0  0  0
    0.8565   -0.2842    6.4461 H   0  0  0  0  0  0  0  0  0  0  0  0
    1.0187    2.0515    7.4479 H   0  0  0  0  0  0  0  0  0  0  0  0
    3.1783    2.1614    5.7873 H   0  0  0  0  0  0  0  0  0  0  0  0
    3.1635    1.7339    9.6536 H   0  0  0  0  0  0  0  0  0  0  0  0
    3.3833    2.5304    8.1037 H   0  0  0  0  0  0  0  0  0  0  0  0
    4.6841    1.5476    8.7996 H   0  0  0  0  0  0  0  0  0  0  0  0
    4.9619    0.2401    5.2583 H   0  0  0  0  0  0  0  0  0  0  0  0
    5.3033    1.1964    6.6657 H   0  0  0  0  0  0  0  0  0  0  0  0
    6.2570   -1.3759    6.3725 H   0  0  0  0  0  0  0  0  0  0  0  0
    5.8067   -0.7579    7.9705 H   0  0  0  0  0  0  0  0  0  0  0  0
    2.1816   -1.6206    7.1370 H   0  0  0  0  0  0  0  0  0  0  0  0
    3.7026   -1.9648    4.5195 H   0  0  0  0  0  0  0  0  0  0  0  0
    2.5615   -3.0102    5.2406 H   0  0  0  0  0  0  0  0  0  0  0  0
    1.5934   -2.1310    3.2858 H   0  0  0  0  0  0  0  0  0  0  0  0
    0.6372   -1.6070    4.5869 H   0  0  0  0  0  0  0  0  0  0  0  0
    5.6087    0.1426    2.6465 H   0  0  0  0  0  0  0  0  0  0  0  0
    6.8966   -0.6470    0.9000 H   0  0  0  0  0  0  0  0  0  0  0  0
    3.4821   -0.6701   -0.6123 H   0  0  0  0  0  0  0  0  0  0  0  0
    2.8765   -1.9359   -2.6402 H   0  0  0  0  0  0  0  0  0  0  0  0
    4.5340   -3.4568   -3.7203 H   0  0  0  0  0  0  0  0  0  0  0  0
    6.8020   -3.7083   -2.7203 H   0  0  0  0  0  0  0  0  0  0  0  0
    7.3697   -2.5400   -0.6242 H   0  0  0  0  0  0  0  0  0  0  0  0
  1  2  1  0
  1 39  1  0
  1 40  1  0
  1 41  1  0
  2  3  1  0
  3  4  2  0
  3  5  1  0
 38  5  1  6
  5  6  2  0
  6  7  1  0
  6 42  1  0
  7 26  1  0
  7  8  1  0
  7 43  1  6
  8 10  1  0
  8  9  1  0
  8 44  1  6
  9 10  1  0
  9 45  1  0
  9 46  1  0
 10 11  1  0
 10 47  1  1
 11 14  1  0
 11 12  1  0
 11 48  1  1
 12 13  1  0
 12 49  1  0
 12 50  1  0
 13 38  1  0
 13 14  1  0
 13 51  1  1
 14 15  1  0
 14 52  1  1
 15 38  1  0
 15 16  1  0
 15 53  1  6
 16 23  1  0
 16 17  1  1
 16 19  1  0
 17 18  1  0
 18 54  1  0
 18 55  1  0
 18 56  1  0
 19 20  1  0
 19 57  1  0
 19 58  1  0
 20 21  1  0
 20 59  1  0
 20 60  1  0
 21 22  2  0
 21 23  1  0
 23 24  1  0
 23 61  1  1
 24 25  1  0
 24 62  1  0
 24 63  1  0
 25 26  1  0
 25 64  1  0
 25 65  1  0
 26 27  1  6
 26 38  1  0
 27 28  1  0
 28 29  2  0
 28 30  1  0
 30 31  2  3
 30 66  1  0
 31 32  1  0
 31 67  1  0
 32 37  1  0
 32 33  2  0
 33 34  1  0
 33 68  1  0
 34 35  2  0
 34 69  1  0
 35 36  1  0
 35 70  1  0
 36 37  2  0
 36 71  1  0
 37 72  1  0
M  END
>  <i_m_ct_stereo_status>  (322) 
1

>  <s_m_source_file>  (322) 
/var/tmp/pbs.5076255.sched01/tmpk7n3yjou/123nw9z_609.sdf

>  <i_m_source_file_index>  (322) 
19

>  <i_lp_mmshare_version>  (322) 
48012

>  <i_f3d_flags>  (322) 
0

>  <s_epik_input>  (322) 
Tz1DMVtDSDJdW0NIMl1bQ0BdKFtDQEhdMjMpKE9bQ0gzXSlbQ0BIXTFbQ0gyXVtDSDJdW0NAXTQoW0NASF0oW0NIXT1DNUMoPU8pT1tDSDNdKVtDQEhdKFtDSDJdNilbQ0BIXTZbQ0BASF0oW0NIMl03KVtDQEhdMltDQEBIXTdbQ0BAXTM0NSlPQyg9TykvW0NIXT1bQ0hdXGM4W2NIXVtjSF1bY0hdW2NIXVtjSF04

>  <s_epik_cmdline>  (322) 
J2VwaWtfcHl0aG9uJywgJy1waHQnLCAnMi4wJywgJy1waCcsICc3LjAnLCAnLXRuJywgJzgnLCAnLW1hJywgJzIwMCcsICctaW1hZScsICc8aW5maWxlLm1hZT4nLCAnLW9tYWUnLCAnPG91dGZpbGUubWFlPic=

>  <r_lp_tautomer_probability>  (322) 
1

>  <r_epik_Ionization_Penalty>  (322) 
9.37655e-12

>  <r_epik_Ionization_Penalty_Charging>  (322) 
0

>  <r_epik_Ionization_Penalty_Neutral>  (322) 
9.37655e-12

>  <r_epik_State_Penalty>  (322) 
-0

>  <r_epik_Charging_Adjusted_Penalty>  (322) 
0

>  <i_epik_Tot_Q>  (322) 
0

>  <i_epik_Tot_abs_Q>  (322) 
0

>  <s_epik_Chemistry_Notes>  (322) 
This compound has an ester and may undergo hydrolysis at high or low pH.

>  <s_lp_Force_Field>  (322) 
OPLS3e

>  <r_lp_Energy>  (322) 
228.722

>  <b_lp_Chiralities_Consistent>  (322) 
1

>  <s_lp_Variant>  (322) 
99:0-1

>  <s_i_glide_gridfile>  (322) 
pfpi4k_grid

>  <i_i_glide_lignum>  (322) 
19

>  <i_i_glide_rotatable_bonds>  (322) 
7

>  <r_i_docking_score>  (322) 
-1.97266

>  <r_i_glide_ligand_efficiency>  (322) 
-0.051912

>  <r_i_glide_ligand_efficiency_sa>  (322) 
-0.174527

>  <r_i_glide_ligand_efficiency_ln>  (322) 
-0.425363

>  <r_i_glide_gscore>  (322) 
-1.97266

>  <r_i_glide_lipo>  (322) 
-0.657989

>  <r_i_glide_hbond>  (322) 
0

>  <r_i_glide_metal>  (322) 
-0

>  <r_i_glide_rewards>  (322) 
-0.00567094

>  <r_i_glide_evdw>  (322) 
-32.2096

>  <r_i_glide_ecoul>  (322) 
0.0883581

>  <r_i_glide_erotb>  (322) 
0.309849

>  <r_i_glide_esite>  (322) 
-0.0216213

>  <r_i_glide_emodel>  (322) 
-34.9054

>  <r_i_glide_energy>  (322) 
-32.1212

>  <r_i_glide_einternal>  (322) 
0.835294

>  <r_i_glide_intrahb_reward>  (322) 
-0

>  <i_i_glide_confnum>  (322) 
3

>  <i_i_glide_posenum>  (322) 
2

>  <r_i_glide_eff_state_penalty>  (322) 
0

>  <ligand_id>  (322) 
99

>  <original_smiles>  (322) 
COC(=O)C1=CC2C3CC3C3CC4C3C3C5(OC)CCC(=O)C5CCC2(OC(=O)C=Cc2ccccc2)C143

>  <smiles>  (322) 
[H]C(C(=O)OC12C([H])([H])C([H])([H])C3([H])C(=O)C([H])([H])C([H])([H])C3(OC([H])([H])[H])C3([H])C4([H])C5([H])C([H])([H])C4([H])C31C(C(=O)OC([H])([H])[H])=C([H])C2([H])C1([H])C([H])([H])C15[H])=C([H])c1c([H])c([H])c([H])c([H])c1[H]

$$$$
100:0:0
     RDKit          3D

 13 13  0  0  1  0  0  0  0  0999 V2000
    5.8268   -3.3208    0.1367 O   0  0  0  0  0  0  0  0  0  0  0  0
    5.9002   -2.5353   -0.8390 C   0  0  0  0  0  0  0  0  0  0  0  0
    6.9289   -1.8624   -1.0889 O   0  0  0  0  0  0  0  0  0  0  0  0
    4.7223   -2.4010   -1.7558 C   0  0  0  0  0  0  0  0  0  0  0  0
    3.6782   -3.3450   -1.7507 C   0  0  0  0  0  0  0  0  0  0  0  0
    2.6239   -3.2728   -2.5865 N   0  0  0  0  0  0  0  0  0  0  0  0
    2.5770   -2.2766   -3.4846 C   0  0  0  0  0  0  0  0  0  0  0  0
    3.5553   -1.2664   -3.5674 C   0  0  0  0  0  0  0  0  0  0  0  0
    3.4179    0.0052   -4.7267 Cl  0  0  0  0  0  0  0  0  0  0  0  0
    4.6361   -1.3235   -2.6659 C   0  0  0  0  0  0  0  0  0  0  0  0
    3.6908   -4.1982   -1.0872 H   0  0  0  0  0  0  0  0  0  0  0  0
    1.7174   -2.2764   -4.1421 H   0  0  0  0  0  0  0  0  0  0  0  0
    5.3980   -0.5693   -2.6872 H   0  0  0  0  0  0  0  0  0  0  0  0
  1  2  2  0
  2  3  1  0
  2  4  1  0
  4 10  2  0
  4  5  1  0
  5  6  2  0
  5 11  1  0
  6  7  1  0
  7  8  2  0
  7 12  1  0
  8  9  1  0
  8 10  1  0
 10 13  1  0
M  CHG  1   3  -1
M  END
>  <i_m_ct_stereo_status>  (323) 
1

>  <s_m_source_file>  (323) 
/var/tmp/pbs.5076255.sched01/tmpk7n3yjou/123nw9z_609.sdf

>  <i_m_source_file_index>  (323) 
21

>  <i_lp_mmshare_version>  (323) 
48012

>  <i_f3d_flags>  (323) 
0

>  <s_epik_input>  (323) 
Tz1DKFtPSF0pYzFbY0hdbltjSF1jKENsKVtjSF0x

>  <s_epik_cmdline>  (323) 
J2VwaWtfcHl0aG9uJywgJy1waHQnLCAnMi4wJywgJy1waCcsICc3LjAnLCAnLXRuJywgJzgnLCAnLW1hJywgJzIwMCcsICctaW1hZScsICc8aW5maWxlLm1hZT4nLCAnLW9tYWUnLCAnPG91dGZpbGUubWFlPic=

>  <r_lp_tautomer_probability>  (323) 
1

>  <r_epik_Ionization_Penalty>  (323) 
0.000310127

>  <r_epik_Ionization_Penalty_Charging>  (323) 
8.17802e-05

>  <r_epik_Ionization_Penalty_Neutral>  (323) 
0.000228346

>  <r_epik_State_Penalty>  (323) 
-0

>  <r_epik_Charging_Adjusted_Penalty>  (323) 
8.17802e-05

>  <i_epik_Tot_Q>  (323) 
-1

>  <i_epik_Tot_abs_Q>  (323) 
1

>  <s_lp_Force_Field>  (323) 
OPLS3e

>  <r_lp_Energy>  (323) 
13.3026

>  <b_lp_Chiralities_Consistent>  (323) 
1

>  <s_lp_Variant>  (323) 
100:0-1

>  <s_i_glide_gridfile>  (323) 
pfpi4k_grid

>  <i_i_glide_lignum>  (323) 
21

>  <i_i_glide_rotatable_bonds>  (323) 
1

>  <r_i_docking_score>  (323) 
-4.14786

>  <r_i_glide_ligand_efficiency>  (323) 
-0.414786

>  <r_i_glide_ligand_efficiency_sa>  (323) 
-0.89363

>  <r_i_glide_ligand_efficiency_ln>  (323) 
-1.25594

>  <r_i_glide_gscore>  (323) 
-4.14786

>  <r_i_glide_lipo>  (323) 
-0.622081

>  <r_i_glide_hbond>  (323) 
-0.2

>  <r_i_glide_metal>  (323) 
-0

>  <r_i_glide_rewards>  (323) 
-2.25

>  <r_i_glide_evdw>  (323) 
-16.9756

>  <r_i_glide_ecoul>  (323) 
-1.40726

>  <r_i_glide_erotb>  (323) 
0

>  <r_i_glide_esite>  (323) 
-0.0159157

>  <r_i_glide_emodel>  (323) 
-26.3778

>  <r_i_glide_energy>  (323) 
-18.3828

>  <r_i_glide_einternal>  (323) 
0.453259

>  <r_i_glide_intrahb_reward>  (323) 
-0

>  <i_i_glide_confnum>  (323) 
2

>  <i_i_glide_posenum>  (323) 
25

>  <r_i_glide_eff_state_penalty>  (323) 
0

>  <ligand_id>  (323) 
100

>  <original_smiles>  (323) 
O=C(O)c1cncc(Cl)c1

>  <smiles>  (323) 
[H]c1nc([H])c(C(=O)[O-])c([H])c1Cl

$$$$
100:0:1
     RDKit          3D

 13 13  0  0  1  0  0  0  0  0999 V2000
   -2.1837    0.5436    6.7950 O   0  0  0  0  0  0  0  0  0  0  0  0
   -1.7900   -0.0185    5.7482 C   0  0  0  0  0  0  0  0  0  0  0  0
   -2.0390   -1.2275    5.5383 O   0  0  0  0  0  0  0  0  0  0  0  0
   -1.0088    0.7710    4.7480 C   0  0  0  0  0  0  0  0  0  0  0  0
   -0.3142    0.1419    3.6934 C   0  0  0  0  0  0  0  0  0  0  0  0
    0.4113    0.8154    2.7785 N   0  0  0  0  0  0  0  0  0  0  0  0
    0.4613    2.1600    2.8766 C   0  0  0  0  0  0  0  0  0  0  0  0
   -0.1966    2.8889    3.8924 C   0  0  0  0  0  0  0  0  0  0  0  0
   -0.0953    4.6105    3.9895 Cl  0  0  0  0  0  0  0  0  0  0  0  0
   -0.9445    2.1765    4.8472 C   0  0  0  0  0  0  0  0  0  0  0  0
   -0.3271   -0.9351    3.5881 H   0  0  0  0  0  0  0  0  0  0  0  0
    1.0514    2.6588    2.1250 H   0  0  0  0  0  0  0  0  0  0  0  0
   -1.4590    2.7030    5.6360 H   0  0  0  0  0  0  0  0  0  0  0  0
  1  2  2  0
  2  3  1  0
  2  4  1  0
  4 10  2  0
  4  5  1  0
  5  6  2  0
  5 11  1  0
  6  7  1  0
  7  8  2  0
  7 12  1  0
  8  9  1  0
  8 10  1  0
 10 13  1  0
M  CHG  1   3  -1
M  END
>  <i_m_ct_stereo_status>  (324) 
1

>  <s_m_source_file>  (324) 
/var/tmp/pbs.5076255.sched01/tmpk7n3yjou/123nw9z_609.sdf

>  <i_m_source_file_index>  (324) 
21

>  <i_lp_mmshare_version>  (324) 
48012

>  <i_f3d_flags>  (324) 
0

>  <s_epik_input>  (324) 
Tz1DKFtPSF0pYzFbY0hdbltjSF1jKENsKVtjSF0x

>  <s_epik_cmdline>  (324) 
J2VwaWtfcHl0aG9uJywgJy1waHQnLCAnMi4wJywgJy1waCcsICc3LjAnLCAnLXRuJywgJzgnLCAnLW1hJywgJzIwMCcsICctaW1hZScsICc8aW5maWxlLm1hZT4nLCAnLW9tYWUnLCAnPG91dGZpbGUubWFlPic=

>  <r_lp_tautomer_probability>  (324) 
1

>  <r_epik_Ionization_Penalty>  (324) 
0.000310127

>  <r_epik_Ionization_Penalty_Charging>  (324) 
8.17802e-05

>  <r_epik_Ionization_Penalty_Neutral>  (324) 
0.000228346

>  <r_epik_State_Penalty>  (324) 
-0

>  <r_epik_Charging_Adjusted_Penalty>  (324) 
8.17802e-05

>  <i_epik_Tot_Q>  (324) 
-1

>  <i_epik_Tot_abs_Q>  (324) 
1

>  <s_lp_Force_Field>  (324) 
OPLS3e

>  <r_lp_Energy>  (324) 
13.3026

>  <b_lp_Chiralities_Consistent>  (324) 
1

>  <s_lp_Variant>  (324) 
100:0-1

>  <s_i_glide_gridfile>  (324) 
pfpi4k_grid

>  <i_i_glide_lignum>  (324) 
21

>  <i_i_glide_rotatable_bonds>  (324) 
1

>  <r_i_docking_score>  (324) 
-3.85856

>  <r_i_glide_ligand_efficiency>  (324) 
-0.385856

>  <r_i_glide_ligand_efficiency_sa>  (324) 
-0.831301

>  <r_i_glide_ligand_efficiency_ln>  (324) 
-1.16834

>  <r_i_glide_gscore>  (324) 
-3.85856

>  <r_i_glide_lipo>  (324) 
0

>  <r_i_glide_hbond>  (324) 
-0.207528

>  <r_i_glide_metal>  (324) 
-0

>  <r_i_glide_rewards>  (324) 
-2.25

>  <r_i_glide_evdw>  (324) 
-9.7467

>  <r_i_glide_ecoul>  (324) 
-5.5557

>  <r_i_glide_erotb>  (324) 
0

>  <r_i_glide_esite>  (324) 
-0.0803403

>  <r_i_glide_emodel>  (324) 
-22.8098

>  <r_i_glide_energy>  (324) 
-15.3024

>  <r_i_glide_einternal>  (324) 
0.305181

>  <r_i_glide_intrahb_reward>  (324) 
-0

>  <i_i_glide_confnum>  (324) 
1

>  <i_i_glide_posenum>  (324) 
39

>  <r_i_glide_eff_state_penalty>  (324) 
0

>  <ligand_id>  (324) 
100

>  <original_smiles>  (324) 
O=C(O)c1cncc(Cl)c1

>  <smiles>  (324) 
[H]c1nc([H])c(C(=O)[O-])c([H])c1Cl

$$$$
100:0:2
     RDKit          3D

 13 13  0  0  1  0  0  0  0  0999 V2000
    2.9217   -4.5548    2.1846 O   0  0  0  0  0  0  0  0  0  0  0  0
    2.6179   -4.5605    0.9741 C   0  0  0  0  0  0  0  0  0  0  0  0
    1.8151   -5.3961    0.4927 O   0  0  0  0  0  0  0  0  0  0  0  0
    3.2139   -3.5123    0.0711 C   0  0  0  0  0  0  0  0  0  0  0  0
    4.1365   -2.5533    0.5561 C   0  0  0  0  0  0  0  0  0  0  0  0
    4.7137   -1.6048   -0.2190 N   0  0  0  0  0  0  0  0  0  0  0  0
    4.3656   -1.5645   -1.5232 C   0  0  0  0  0  0  0  0  0  0  0  0
    3.4597   -2.4707   -2.1111 C   0  0  0  0  0  0  0  0  0  0  0  0
    3.1066   -2.3865   -3.7998 Cl  0  0  0  0  0  0  0  0  0  0  0  0
    2.8699   -3.4553   -1.2968 C   0  0  0  0  0  0  0  0  0  0  0  0
    4.4380   -2.5406    1.5953 H   0  0  0  0  0  0  0  0  0  0  0  0
    4.8425   -0.7989   -2.1179 H   0  0  0  0  0  0  0  0  0  0  0  0
    2.1676   -4.1628   -1.7198 H   0  0  0  0  0  0  0  0  0  0  0  0
  1  2  2  0
  2  3  1  0
  2  4  1  0
  4 10  2  0
  4  5  1  0
  5  6  2  0
  5 11  1  0
  6  7  1  0
  7  8  2  0
  7 12  1  0
  8  9  1  0
  8 10  1  0
 10 13  1  0
M  CHG  1   3  -1
M  END
>  <i_m_ct_stereo_status>  (325) 
1

>  <s_m_source_file>  (325) 
/var/tmp/pbs.5076255.sched01/tmpk7n3yjou/123nw9z_609.sdf

>  <i_m_source_file_index>  (325) 
21

>  <i_lp_mmshare_version>  (325) 
48012

>  <i_f3d_flags>  (325) 
0

>  <s_epik_input>  (325) 
Tz1DKFtPSF0pYzFbY0hdbltjSF1jKENsKVtjSF0x

>  <s_epik_cmdline>  (325) 
J2VwaWtfcHl0aG9uJywgJy1waHQnLCAnMi4wJywgJy1waCcsICc3LjAnLCAnLXRuJywgJzgnLCAnLW1hJywgJzIwMCcsICctaW1hZScsICc8aW5maWxlLm1hZT4nLCAnLW9tYWUnLCAnPG91dGZpbGUubWFlPic=

>  <r_lp_tautomer_probability>  (325) 
1

>  <r_epik_Ionization_Penalty>  (325) 
0.000310127

>  <r_epik_Ionization_Penalty_Charging>  (325) 
8.17802e-05

>  <r_epik_Ionization_Penalty_Neutral>  (325) 
0.000228346

>  <r_epik_State_Penalty>  (325) 
-0

>  <r_epik_Charging_Adjusted_Penalty>  (325) 
8.17802e-05

>  <i_epik_Tot_Q>  (325) 
-1

>  <i_epik_Tot_abs_Q>  (325) 
1

>  <s_lp_Force_Field>  (325) 
OPLS3e

>  <r_lp_Energy>  (325) 
13.3026

>  <b_lp_Chiralities_Consistent>  (325) 
1

>  <s_lp_Variant>  (325) 
100:0-1

>  <s_i_glide_gridfile>  (325) 
pfpi4k_grid

>  <i_i_glide_lignum>  (325) 
21

>  <i_i_glide_rotatable_bonds>  (325) 
1

>  <r_i_docking_score>  (325) 
-3.56419

>  <r_i_glide_ligand_efficiency>  (325) 
-0.356419

>  <r_i_glide_ligand_efficiency_sa>  (325) 
-0.767882

>  <r_i_glide_ligand_efficiency_ln>  (325) 
-1.07921

>  <r_i_glide_gscore>  (325) 
-3.56419

>  <r_i_glide_lipo>  (325) 
-0.239019

>  <r_i_glide_hbond>  (325) 
-0.127647

>  <r_i_glide_metal>  (325) 
-0

>  <r_i_glide_rewards>  (325) 
-2.25

>  <r_i_glide_evdw>  (325) 
-13.4357

>  <r_i_glide_ecoul>  (325) 
-1.66562

>  <r_i_glide_erotb>  (325) 
0

>  <r_i_glide_esite>  (325) 
-0.0258982

>  <r_i_glide_emodel>  (325) 
-22.2842

>  <r_i_glide_energy>  (325) 
-15.1014

>  <r_i_glide_einternal>  (325) 
0.000328459

>  <r_i_glide_intrahb_reward>  (325) 
-0

>  <i_i_glide_confnum>  (325) 
1

>  <i_i_glide_posenum>  (325) 
6

>  <r_i_glide_eff_state_penalty>  (325) 
0

>  <ligand_id>  (325) 
100

>  <original_smiles>  (325) 
O=C(O)c1cncc(Cl)c1

>  <smiles>  (325) 
[H]c1nc([H])c(C(=O)[O-])c([H])c1Cl

$$$$
101:0:0
     RDKit          3D

 38 41  0  0  1  0  0  0  0  0999 V2000
    0.3778   -7.4747    2.7728 C   0  0  0  0  0  0  0  0  0  0  0  0
    1.6859   -7.6727    1.9966 C   0  0  0  0  0  0  0  0  0  0  0  0
    2.2439   -6.4012    1.4532 C   0  0  0  0  0  0  0  0  0  0  0  0
    3.2275   -5.6538    1.9605 N   0  0  0  0  0  0  0  0  0  0  0  0
    3.2698   -4.6255    1.0650 C   0  0  0  0  0  0  0  0  0  0  0  0
    4.2718   -3.5070    1.1432 C   0  0  2  0  0  0  0  0  0  0  0  0
    3.5804   -2.0880    1.1388 C   0  0  1  0  0  0  0  0  0  0  0  0
    3.8651   -1.2995    2.3943 C   0  0  0  0  0  0  0  0  0  0  0  0
    2.9477   -0.8712    3.3276 C   0  0  0  0  0  0  0  0  0  0  0  0
    3.7017    0.0241    4.6277 S   0  0  0  0  0  0  0  0  0  0  0  0
    5.2508   -0.2285    3.8422 C   0  0  0  0  0  0  0  0  0  0  0  0
    5.1781   -0.9199    2.7074 N   0  0  0  0  0  0  0  0  0  0  0  0
    3.8713   -1.2483   -0.1563 C   0  0  0  0  0  0  0  0  0  0  0  0
    5.1187   -1.7537   -0.8675 C   0  0  0  0  0  0  0  0  0  0  0  0
    6.2172   -1.4629   -0.2594 N   0  0  0  0  0  0  0  0  0  0  0  0
    6.6153   -2.7347    0.3126 C   0  0  2  0  0  0  0  0  0  0  0  0
    8.2161   -3.3661   -0.6829 Br  0  0  0  0  0  0  0  0  0  0  0  0
    5.3873   -3.6466    0.0488 C   0  0  2  0  0  0  0  0  0  0  0  0
    4.8822   -3.0709   -1.1802 N   0  0  0  0  0  0  0  0  0  0  0  0
    5.3186   -3.6179   -2.4565 C   0  0  0  0  0  0  0  0  0  0  0  0
    2.3794   -4.6875    0.0784 N   0  0  0  0  0  0  0  0  0  0  0  0
    1.6621   -5.8553    0.3572 O   0  0  0  0  0  0  0  0  0  0  0  0
    0.0116   -8.4261    3.1572 H   0  0  0  0  0  0  0  0  0  0  0  0
   -0.4025   -7.0603    2.1364 H   0  0  0  0  0  0  0  0  0  0  0  0
    0.5165   -6.8083    3.6232 H   0  0  0  0  0  0  0  0  0  0  0  0
    2.4355   -8.1233    2.6477 H   0  0  0  0  0  0  0  0  0  0  0  0
    1.5237   -8.3687    1.1704 H   0  0  0  0  0  0  0  0  0  0  0  0
    4.7641   -3.6351    2.1057 H   0  0  0  0  0  0  0  0  0  0  0  0
    2.5032   -2.2493    1.1249 H   0  0  0  0  0  0  0  0  0  0  0  0
    1.8784   -1.0146    3.3307 H   0  0  0  0  0  0  0  0  0  0  0  0
    6.2041    0.1355    4.2043 H   0  0  0  0  0  0  0  0  0  0  0  0
    3.0269   -1.3552   -0.8463 H   0  0  0  0  0  0  0  0  0  0  0  0
    3.9629   -0.1873    0.0666 H   0  0  0  0  0  0  0  0  0  0  0  0
    6.8835   -2.6521    1.3643 H   0  0  0  0  0  0  0  0  0  0  0  0
    5.7018   -4.6835   -0.0523 H   0  0  0  0  0  0  0  0  0  0  0  0
    4.6747   -3.2365   -3.2513 H   0  0  0  0  0  0  0  0  0  0  0  0
    5.2677   -4.7073   -2.4658 H   0  0  0  0  0  0  0  0  0  0  0  0
    6.3410   -3.3086   -2.6848 H   0  0  0  0  0  0  0  0  0  0  0  0
  1  2  1  0
  1 23  1  0
  1 24  1  0
  1 25  1  0
  2  3  1  0
  2 26  1  0
  2 27  1  0
  3 22  1  0
  3  4  2  0
  4  5  1  0
  5  6  1  0
  5 21  2  0
  6  7  1  0
  6 28  1  1
  6 18  1  0
  7  8  1  0
  7 13  1  0
  7 29  1  1
  8 12  1  0
  8  9  2  0
  9 10  1  0
  9 30  1  0
 10 11  1  0
 11 12  2  0
 11 31  1  0
 13 32  1  0
 13 33  1  0
 13 14  1  0
 14 15  2  0
 14 19  1  0
 15 16  1  0
 16 18  1  0
 16 17  1  0
 16 34  1  1
 18 19  1  0
 18 35  1  6
 19 20  1  0
 20 36  1  0
 20 37  1  0
 20 38  1  0
 21 22  1  0
M  END
>  <i_m_ct_stereo_status>  (326) 
1

>  <s_m_source_file>  (326) 
/var/tmp/pbs.5076255.sched01/tmpk7n3yjou/123nw9z_609.sdf

>  <i_m_source_file_index>  (326) 
22

>  <i_lp_mmshare_version>  (326) 
48012

>  <i_f3d_flags>  (326) 
0

>  <s_epik_input>  (326) 
W0NIM11bQ0gyXWMxbmMobm8xKVtDQEBIXShbQ0BASF0oQyg9TjIpQnIpTjNbQ0gzXSlbQ0BIXShbQ0gyXVtDQEhdMjMpYzRbY0hdc1tjSF1uNA==

>  <s_epik_cmdline>  (326) 
J2VwaWtfcHl0aG9uJywgJy1waHQnLCAnMi4wJywgJy1waCcsICc3LjAnLCAnLXRuJywgJzgnLCAnLW1hJywgJzIwMCcsICctaW1hZScsICc8aW5maWxlLm1hZT4nLCAnLW9tYWUnLCAnPG91dGZpbGUubWFlPic=

>  <r_lp_tautomer_probability>  (326) 
1

>  <r_epik_Ionization_Penalty>  (326) 
0.0271361

>  <r_epik_Ionization_Penalty_Charging>  (326) 
0

>  <r_epik_Ionization_Penalty_Neutral>  (326) 
0.0271361

>  <r_epik_State_Penalty>  (326) 
0.0221477

>  <r_epik_Charging_Adjusted_Penalty>  (326) 
0.0221477

>  <i_epik_Tot_Q>  (326) 
0

>  <i_epik_Tot_abs_Q>  (326) 
0

>  <s_epik_Chemistry_Notes>  (326) 
This compound has an imine and may undergo hydrolysis.

>  <s_lp_Force_Field>  (326) 
OPLS3e

>  <r_lp_Energy>  (326) 
57.1609

>  <b_lp_Chiralities_Consistent>  (326) 
1

>  <s_lp_Variant>  (326) 
101:0-1

>  <s_i_glide_gridfile>  (326) 
pfpi4k_grid

>  <i_i_glide_lignum>  (326) 
22

>  <i_i_glide_rotatable_bonds>  (326) 
3

>  <r_i_docking_score>  (326) 
-3.05925

>  <r_i_glide_ligand_efficiency>  (326) 
-0.139057

>  <r_i_glide_ligand_efficiency_sa>  (326) 
-0.389642

>  <r_i_glide_ligand_efficiency_ln>  (326) 
-0.747791

>  <r_i_glide_gscore>  (326) 
-3.05925

>  <r_i_glide_lipo>  (326) 
-0.547786

>  <r_i_glide_hbond>  (326) 
-0.0455092

>  <r_i_glide_metal>  (326) 
-0

>  <r_i_glide_rewards>  (326) 
-0.83094

>  <r_i_glide_evdw>  (326) 
-27.2114

>  <r_i_glide_ecoul>  (326) 
-2.40476

>  <r_i_glide_erotb>  (326) 
0.265776

>  <r_i_glide_esite>  (326) 
-0.179506

>  <r_i_glide_emodel>  (326) 
-35.261

>  <r_i_glide_energy>  (326) 
-29.6161

>  <r_i_glide_einternal>  (326) 
0.508218

>  <r_i_glide_intrahb_reward>  (326) 
-0

>  <i_i_glide_confnum>  (326) 
2

>  <i_i_glide_posenum>  (326) 
9

>  <r_i_glide_eff_state_penalty>  (326) 
0

>  <ligand_id>  (326) 
101

>  <original_smiles>  (326) 
CCc1nc(C2C(c3cscn3)CC3N=C(Br)C2N3C)no1

>  <smiles>  (326) 
[H]c1nc(C2([H])C([H])([H])C3=NC([H])(Br)C([H])(N3C([H])([H])[H])C2([H])c2noc(C([H])([H])C([H])([H])[H])n2)c([H])s1

$$$$
101:0:1
     RDKit          3D

 38 41  0  0  1  0  0  0  0  0999 V2000
    2.3421   -8.7291    1.9587 C   0  0  0  0  0  0  0  0  0  0  0  0
    1.6248   -7.4389    2.3633 C   0  0  0  0  0  0  0  0  0  0  0  0
    2.2099   -6.2279    1.7216 C   0  0  0  0  0  0  0  0  0  0  0  0
    3.1915   -5.4550    2.1867 N   0  0  0  0  0  0  0  0  0  0  0  0
    3.3263   -4.5559    1.1698 C   0  0  0  0  0  0  0  0  0  0  0  0
    4.3316   -3.4389    1.1954 C   0  0  2  0  0  0  0  0  0  0  0  0
    3.6461   -2.0179    1.1747 C   0  0  1  0  0  0  0  0  0  0  0  0
    3.9763   -1.1945    2.3989 C   0  0  0  0  0  0  0  0  0  0  0  0
    3.0886   -0.7113    3.3339 C   0  0  0  0  0  0  0  0  0  0  0  0
    3.8895    0.2063    4.5903 S   0  0  0  0  0  0  0  0  0  0  0  0
    5.4151   -0.1112    3.7863 C   0  0  0  0  0  0  0  0  0  0  0  0
    5.3031   -0.8322    2.6729 N   0  0  0  0  0  0  0  0  0  0  0  0
    3.9053   -1.2153   -0.1493 C   0  0  0  0  0  0  0  0  0  0  0  0
    5.1303   -1.7469   -0.8809 C   0  0  0  0  0  0  0  0  0  0  0  0
    6.2447   -1.4515   -0.3063 N   0  0  0  0  0  0  0  0  0  0  0  0
    6.6524   -2.7052    0.2904 C   0  0  2  0  0  0  0  0  0  0  0  0
    8.2250   -3.3766   -0.7187 Br  0  0  0  0  0  0  0  0  0  0  0  0
    5.4161   -3.6157    0.0791 C   0  0  2  0  0  0  0  0  0  0  0  0
    4.8804   -3.0703   -1.1510 N   0  0  0  0  0  0  0  0  0  0  0  0
    5.2706   -3.6592   -2.4231 C   0  0  0  0  0  0  0  0  0  0  0  0
    2.4998   -4.7262    0.1436 N   0  0  0  0  0  0  0  0  0  0  0  0
    1.7558   -5.8559    0.4999 O   0  0  0  0  0  0  0  0  0  0  0  0
    1.8972   -9.5978    2.4425 H   0  0  0  0  0  0  0  0  0  0  0  0
    3.3943   -8.6929    2.2356 H   0  0  0  0  0  0  0  0  0  0  0  0
    2.2855   -8.8949    0.8821 H   0  0  0  0  0  0  0  0  0  0  0  0
    0.5690   -7.5056    2.0968 H   0  0  0  0  0  0  0  0  0  0  0  0
    1.6711   -7.3115    3.4445 H   0  0  0  0  0  0  0  0  0  0  0  0
    4.8481   -3.5445    2.1467 H   0  0  0  0  0  0  0  0  0  0  0  0
    2.5688   -2.1802    1.1961 H   0  0  0  0  0  0  0  0  0  0  0  0
    2.0170   -0.8271    3.3628 H   0  0  0  0  0  0  0  0  0  0  0  0
    6.3854    0.2412    4.1180 H   0  0  0  0  0  0  0  0  0  0  0  0
    3.0410   -1.3329   -0.8112 H   0  0  0  0  0  0  0  0  0  0  0  0
    4.0109   -0.1497    0.0413 H   0  0  0  0  0  0  0  0  0  0  0  0
    6.9511   -2.5956    1.3307 H   0  0  0  0  0  0  0  0  0  0  0  0
    5.7215   -4.6572   -0.0019 H   0  0  0  0  0  0  0  0  0  0  0  0
    4.6046   -3.2954   -3.2082 H   0  0  0  0  0  0  0  0  0  0  0  0
    5.2087   -4.7486   -2.3991 H   0  0  0  0  0  0  0  0  0  0  0  0
    6.2879   -3.3652   -2.6916 H   0  0  0  0  0  0  0  0  0  0  0  0
  1  2  1  0
  1 23  1  0
  1 24  1  0
  1 25  1  0
  2  3  1  0
  2 26  1  0
  2 27  1  0
  3 22  1  0
  3  4  2  0
  4  5  1  0
  5  6  1  0
  5 21  2  0
  6  7  1  0
  6 28  1  1
  6 18  1  0
  7  8  1  0
  7 13  1  0
  7 29  1  1
  8 12  1  0
  8  9  2  0
  9 10  1  0
  9 30  1  0
 10 11  1  0
 11 12  2  0
 11 31  1  0
 13 32  1  0
 13 33  1  0
 13 14  1  0
 14 15  2  0
 14 19  1  0
 15 16  1  0
 16 18  1  0
 16 17  1  0
 16 34  1  1
 18 19  1  0
 18 35  1  6
 19 20  1  0
 20 36  1  0
 20 37  1  0
 20 38  1  0
 21 22  1  0
M  END
>  <i_m_ct_stereo_status>  (327) 
1

>  <s_m_source_file>  (327) 
/var/tmp/pbs.5076255.sched01/tmpk7n3yjou/123nw9z_609.sdf

>  <i_m_source_file_index>  (327) 
22

>  <i_lp_mmshare_version>  (327) 
48012

>  <i_f3d_flags>  (327) 
0

>  <s_epik_input>  (327) 
W0NIM11bQ0gyXWMxbmMobm8xKVtDQEBIXShbQ0BASF0oQyg9TjIpQnIpTjNbQ0gzXSlbQ0BIXShbQ0gyXVtDQEhdMjMpYzRbY0hdc1tjSF1uNA==

>  <s_epik_cmdline>  (327) 
J2VwaWtfcHl0aG9uJywgJy1waHQnLCAnMi4wJywgJy1waCcsICc3LjAnLCAnLXRuJywgJzgnLCAnLW1hJywgJzIwMCcsICctaW1hZScsICc8aW5maWxlLm1hZT4nLCAnLW9tYWUnLCAnPG91dGZpbGUubWFlPic=

>  <r_lp_tautomer_probability>  (327) 
1

>  <r_epik_Ionization_Penalty>  (327) 
0.0271361

>  <r_epik_Ionization_Penalty_Charging>  (327) 
0

>  <r_epik_Ionization_Penalty_Neutral>  (327) 
0.0271361

>  <r_epik_State_Penalty>  (327) 
0.0221477

>  <r_epik_Charging_Adjusted_Penalty>  (327) 
0.0221477

>  <i_epik_Tot_Q>  (327) 
0

>  <i_epik_Tot_abs_Q>  (327) 
0

>  <s_epik_Chemistry_Notes>  (327) 
This compound has an imine and may undergo hydrolysis.

>  <s_lp_Force_Field>  (327) 
OPLS3e

>  <r_lp_Energy>  (327) 
57.1609

>  <b_lp_Chiralities_Consistent>  (327) 
1

>  <s_lp_Variant>  (327) 
101:0-1

>  <s_i_glide_gridfile>  (327) 
pfpi4k_grid

>  <i_i_glide_lignum>  (327) 
22

>  <i_i_glide_rotatable_bonds>  (327) 
3

>  <r_i_docking_score>  (327) 
-2.98803

>  <r_i_glide_ligand_efficiency>  (327) 
-0.13582

>  <r_i_glide_ligand_efficiency_sa>  (327) 
-0.380572

>  <r_i_glide_ligand_efficiency_ln>  (327) 
-0.730384

>  <r_i_glide_gscore>  (327) 
-2.98803

>  <r_i_glide_lipo>  (327) 
-0.503259

>  <r_i_glide_hbond>  (327) 
-0.0596702

>  <r_i_glide_metal>  (327) 
-0

>  <r_i_glide_rewards>  (327) 
-0.830841

>  <r_i_glide_evdw>  (327) 
-27.2912

>  <r_i_glide_ecoul>  (327) 
-2.22833

>  <r_i_glide_erotb>  (327) 
0.265776

>  <r_i_glide_esite>  (327) 
-0.161227

>  <r_i_glide_emodel>  (327) 
-35.2853

>  <r_i_glide_energy>  (327) 
-29.5195

>  <r_i_glide_einternal>  (327) 
0.0727769

>  <r_i_glide_intrahb_reward>  (327) 
-0

>  <i_i_glide_confnum>  (327) 
2

>  <i_i_glide_posenum>  (327) 
4

>  <r_i_glide_eff_state_penalty>  (327) 
0

>  <ligand_id>  (327) 
101

>  <original_smiles>  (327) 
CCc1nc(C2C(c3cscn3)CC3N=C(Br)C2N3C)no1

>  <smiles>  (327) 
[H]c1nc(C2([H])C([H])([H])C3=NC([H])(Br)C([H])(N3C([H])([H])[H])C2([H])c2noc(C([H])([H])C([H])([H])[H])n2)c([H])s1

$$$$
101:0:2
     RDKit          3D

 38 41  0  0  1  0  0  0  0  0999 V2000
   -0.3614    1.1504    2.4589 C   0  0  0  0  0  0  0  0  0  0  0  0
    0.7035    0.3526    3.2239 C   0  0  0  0  0  0  0  0  0  0  0  0
    1.8136   -0.1399    2.3592 C   0  0  0  0  0  0  0  0  0  0  0  0
    2.0112   -1.3870    1.9264 N   0  0  0  0  0  0  0  0  0  0  0  0
    3.1057   -1.2129    1.1273 C   0  0  0  0  0  0  0  0  0  0  0  0
    3.7352   -2.3191    0.3387 C   0  0  2  0  0  0  0  0  0  0  0  0
    5.2030   -2.6250    0.8270 C   0  0  1  0  0  0  0  0  0  0  0  0
    5.3612   -4.0371    1.3373 C   0  0  0  0  0  0  0  0  0  0  0  0
    5.6052   -4.4225    2.6356 C   0  0  0  0  0  0  0  0  0  0  0  0
    5.7392   -6.1573    2.7974 S   0  0  0  0  0  0  0  0  0  0  0  0
    5.4378   -6.2960    1.0735 C   0  0  0  0  0  0  0  0  0  0  0  0
    5.2590   -5.1274    0.4630 N   0  0  0  0  0  0  0  0  0  0  0  0
    6.3071   -2.2620   -0.2283 C   0  0  0  0  0  0  0  0  0  0  0  0
    5.7172   -2.1785   -1.6281 C   0  0  0  0  0  0  0  0  0  0  0  0
    5.4109   -3.3212   -2.1286 N   0  0  0  0  0  0  0  0  0  0  0  0
    3.9599   -3.3173   -2.0531 C   0  0  2  0  0  0  0  0  0  0  0  0
    3.2493   -3.1123   -3.9140 Br  0  0  0  0  0  0  0  0  0  0  0  0
    3.6481   -2.0588   -1.2057 C   0  0  2  0  0  0  0  0  0  0  0  0
    4.7465   -1.2018   -1.5879 N   0  0  0  0  0  0  0  0  0  0  0  0
    4.5596   -0.2974   -2.7135 C   0  0  0  0  0  0  0  0  0  0  0  0
    3.6192    0.0140    1.1187 N   0  0  0  0  0  0  0  0  0  0  0  0
    2.7378    0.7448    1.9195 O   0  0  0  0  0  0  0  0  0  0  0  0
   -1.1587    1.4860    3.1226 H   0  0  0  0  0  0  0  0  0  0  0  0
   -0.8164    0.5462    1.6766 H   0  0  0  0  0  0  0  0  0  0  0  0
    0.0721    2.0328    1.9865 H   0  0  0  0  0  0  0  0  0  0  0  0
    1.1317    0.9678    4.0172 H   0  0  0  0  0  0  0  0  0  0  0  0
    0.2417   -0.5105    3.7014 H   0  0  0  0  0  0  0  0  0  0  0  0
    3.1251   -3.1975    0.5411 H   0  0  0  0  0  0  0  0  0  0  0  0
    5.3973   -1.9660    1.6772 H   0  0  0  0  0  0  0  0  0  0  0  0
    5.7278   -3.8020    3.5115 H   0  0  0  0  0  0  0  0  0  0  0  0
    5.3920   -7.2230    0.5121 H   0  0  0  0  0  0  0  0  0  0  0  0
    6.7200   -1.2836    0.0223 H   0  0  0  0  0  0  0  0  0  0  0  0
    7.1413   -2.9617   -0.2061 H   0  0  0  0  0  0  0  0  0  0  0  0
    3.5658   -4.2296   -1.6036 H   0  0  0  0  0  0  0  0  0  0  0  0
    2.6702   -1.6762   -1.4886 H   0  0  0  0  0  0  0  0  0  0  0  0
    5.3634    0.4300   -2.6962 H   0  0  0  0  0  0  0  0  0  0  0  0
    3.6075    0.2334   -2.7115 H   0  0  0  0  0  0  0  0  0  0  0  0
    4.6200   -0.8286   -3.6608 H   0  0  0  0  0  0  0  0  0  0  0  0
  1  2  1  0
  1 23  1  0
  1 24  1  0
  1 25  1  0
  2  3  1  0
  2 26  1  0
  2 27  1  0
  3 22  1  0
  3  4  2  0
  4  5  1  0
  5  6  1  0
  5 21  2  0
  6  7  1  0
  6 28  1  6
  6 18  1  0
  7  8  1  0
  7 13  1  0
  7 29  1  1
  8 12  1  0
  8  9  2  0
  9 10  1  0
  9 30  1  0
 10 11  1  0
 11 12  2  0
 11 31  1  0
 13 32  1  0
 13 33  1  0
 13 14  1  0
 14 15  2  0
 14 19  1  0
 15 16  1  0
 16 18  1  0
 16 17  1  0
 16 34  1  1
 18 19  1  0
 18 35  1  1
 19 20  1  0
 20 36  1  0
 20 37  1  0
 20 38  1  0
 21 22  1  0
M  END
>  <i_m_ct_stereo_status>  (328) 
1

>  <s_m_source_file>  (328) 
/var/tmp/pbs.5076255.sched01/tmpk7n3yjou/123nw9z_609.sdf

>  <i_m_source_file_index>  (328) 
22

>  <i_lp_mmshare_version>  (328) 
48012

>  <i_f3d_flags>  (328) 
0

>  <s_epik_input>  (328) 
W0NIM11bQ0gyXWMxbmMobm8xKVtDQEBIXShbQ0BASF0oQyg9TjIpQnIpTjNbQ0gzXSlbQ0BIXShbQ0gyXVtDQEhdMjMpYzRbY0hdc1tjSF1uNA==

>  <s_epik_cmdline>  (328) 
J2VwaWtfcHl0aG9uJywgJy1waHQnLCAnMi4wJywgJy1waCcsICc3LjAnLCAnLXRuJywgJzgnLCAnLW1hJywgJzIwMCcsICctaW1hZScsICc8aW5maWxlLm1hZT4nLCAnLW9tYWUnLCAnPG91dGZpbGUubWFlPic=

>  <r_lp_tautomer_probability>  (328) 
1

>  <r_epik_Ionization_Penalty>  (328) 
0.0271361

>  <r_epik_Ionization_Penalty_Charging>  (328) 
0

>  <r_epik_Ionization_Penalty_Neutral>  (328) 
0.0271361

>  <r_epik_State_Penalty>  (328) 
0.0221477

>  <r_epik_Charging_Adjusted_Penalty>  (328) 
0.0221477

>  <i_epik_Tot_Q>  (328) 
0

>  <i_epik_Tot_abs_Q>  (328) 
0

>  <s_epik_Chemistry_Notes>  (328) 
This compound has an imine and may undergo hydrolysis.

>  <s_lp_Force_Field>  (328) 
OPLS3e

>  <r_lp_Energy>  (328) 
57.1609

>  <b_lp_Chiralities_Consistent>  (328) 
1

>  <s_lp_Variant>  (328) 
101:0-1

>  <s_i_glide_gridfile>  (328) 
pfpi4k_grid

>  <i_i_glide_lignum>  (328) 
22

>  <i_i_glide_rotatable_bonds>  (328) 
3

>  <r_i_docking_score>  (328) 
-2.52666

>  <r_i_glide_ligand_efficiency>  (328) 
-0.114848

>  <r_i_glide_ligand_efficiency_sa>  (328) 
-0.32181

>  <r_i_glide_ligand_efficiency_ln>  (328) 
-0.617609

>  <r_i_glide_gscore>  (328) 
-2.52666

>  <r_i_glide_lipo>  (328) 
-0.358425

>  <r_i_glide_hbond>  (328) 
0

>  <r_i_glide_metal>  (328) 
-0

>  <r_i_glide_rewards>  (328) 
-0.802638

>  <r_i_glide_evdw>  (328) 
-28.341

>  <r_i_glide_ecoul>  (328) 
-0.470267

>  <r_i_glide_erotb>  (328) 
0.265776

>  <r_i_glide_esite>  (328) 
-0.143788

>  <r_i_glide_emodel>  (328) 
-33.535

>  <r_i_glide_energy>  (328) 
-28.8113

>  <r_i_glide_einternal>  (328) 
0.160213

>  <r_i_glide_intrahb_reward>  (328) 
-0

>  <i_i_glide_confnum>  (328) 
2

>  <i_i_glide_posenum>  (328) 
2

>  <r_i_glide_eff_state_penalty>  (328) 
0

>  <ligand_id>  (328) 
101

>  <original_smiles>  (328) 
CCc1nc(C2C(c3cscn3)CC3N=C(Br)C2N3C)no1

>  <smiles>  (328) 
[H]c1nc(C2([H])C([H])([H])C3=NC([H])(Br)C([H])(N3C([H])([H])[H])C2([H])c2noc(C([H])([H])C([H])([H])[H])n2)c([H])s1

$$$$
101:1:0
     RDKit          3D

 38 41  0  0  1  0  0  0  0  0999 V2000
   -2.6793    4.4179    9.4011 C   0  0  0  0  0  0  0  0  0  0  0  0
   -2.7977    2.8933    9.5201 C   0  0  0  0  0  0  0  0  0  0  0  0
   -1.8628    2.1511    8.6227 C   0  0  0  0  0  0  0  0  0  0  0  0
   -2.1321    1.6042    7.4321 N   0  0  0  0  0  0  0  0  0  0  0  0
   -0.9077    1.1113    7.0802 C   0  0  0  0  0  0  0  0  0  0  0  0
   -0.6567    0.4527    5.7534 C   0  0  2  0  0  0  0  0  0  0  0  0
    0.4451   -0.6811    5.7550 C   0  0  1  0  0  0  0  0  0  0  0  0
    0.0412   -1.9054    6.5336 C   0  0  0  0  0  0  0  0  0  0  0  0
    0.6448   -2.4121    7.6617 C   0  0  0  0  0  0  0  0  0  0  0  0
   -0.1268   -3.8749    8.2234 S   0  0  0  0  0  0  0  0  0  0  0  0
   -1.2430   -3.7460    6.8820 C   0  0  0  0  0  0  0  0  0  0  0  0
   -1.0546   -2.6680    6.1114 N   0  0  0  0  0  0  0  0  0  0  0  0
    0.9495   -1.0408    4.3160 C   0  0  0  0  0  0  0  0  0  0  0  0
    0.8870    0.2175    3.4721 C   0  0  0  0  0  0  0  0  0  0  0  0
    1.6917    1.1718    3.7980 N   0  0  0  0  0  0  0  0  0  0  0  0
    0.8067    2.1973    4.2926 C   0  0  2  0  0  0  0  0  0  0  0  0
    1.6499    3.0173    5.8958 Br  0  0  0  0  0  0  0  0  0  0  0  0
   -0.5257    1.4311    4.5216 C   0  0  1  0  0  0  0  0  0  0  0  0
   -0.4468    0.5740    3.3572 N   0  0  0  0  0  0  0  0  0  0  0  0
   -0.9424    1.0922    2.0845 C   0  0  0  0  0  0  0  0  0  0  0  0
    0.0481    1.2736    7.9888 N   0  0  0  0  0  0  0  0  0  0  0  0
   -0.5760    2.0013    9.0079 O   0  0  0  0  0  0  0  0  0  0  0  0
   -3.3805    4.9117   10.0712 H   0  0  0  0  0  0  0  0  0  0  0  0
   -2.8955    4.7568    8.3892 H   0  0  0  0  0  0  0  0  0  0  0  0
   -1.6785    4.7585    9.6658 H   0  0  0  0  0  0  0  0  0  0  0  0
   -2.6098    2.5841   10.5513 H   0  0  0  0  0  0  0  0  0  0  0  0
   -3.8153    2.5870    9.2823 H   0  0  0  0  0  0  0  0  0  0  0  0
   -1.5875   -0.0756    5.5454 H   0  0  0  0  0  0  0  0  0  0  0  0
    1.3216   -0.2380    6.2347 H   0  0  0  0  0  0  0  0  0  0  0  0
    1.5062   -2.0255    8.1878 H   0  0  0  0  0  0  0  0  0  0  0  0
   -2.0561   -4.4375    6.6854 H   0  0  0  0  0  0  0  0  0  0  0  0
    1.9716   -1.4223    4.3432 H   0  0  0  0  0  0  0  0  0  0  0  0
    0.3281   -1.8104    3.8522 H   0  0  0  0  0  0  0  0  0  0  0  0
    0.6787    2.9863    3.5510 H   0  0  0  0  0  0  0  0  0  0  0  0
   -1.3962    2.0879    4.4659 H   0  0  0  0  0  0  0  0  0  0  0  0
   -0.8166    0.3462    1.2971 H   0  0  0  0  0  0  0  0  0  0  0  0
   -0.3782    1.9729    1.7681 H   0  0  0  0  0  0  0  0  0  0  0  0
   -1.9997    1.3618    2.1365 H   0  0  0  0  0  0  0  0  0  0  0  0
  1  2  1  0
  1 23  1  0
  1 24  1  0
  1 25  1  0
  2  3  1  0
  2 26  1  0
  2 27  1  0
  3 22  1  0
  3  4  2  0
  4  5  1  0
  5  6  1  0
  5 21  2  0
  6  7  1  0
  6 28  1  6
  6 18  1  0
  7  8  1  0
  7 13  1  0
  7 29  1  1
  8 12  1  0
  8  9  2  0
  9 10  1  0
  9 30  1  0
 10 11  1  0
 11 12  2  0
 11 31  1  0
 13 32  1  0
 13 33  1  0
 13 14  1  0
 14 15  2  0
 14 19  1  0
 15 16  1  0
 16 18  1  0
 16 17  1  0
 16 34  1  6
 18 19  1  0
 18 35  1  6
 19 20  1  0
 20 36  1  0
 20 37  1  0
 20 38  1  0
 21 22  1  0
M  END
>  <i_m_ct_stereo_status>  (329) 
1

>  <s_m_source_file>  (329) 
/var/tmp/pbs.5076255.sched01/tmpk7n3yjou/123nw9z_609.sdf

>  <i_m_source_file_index>  (329) 
23

>  <i_lp_mmshare_version>  (329) 
48012

>  <i_f3d_flags>  (329) 
0

>  <s_epik_input>  (329) 
W0NIM11bQ0gyXWMxbmMobm8xKVtDQEBIXShbQ0BASF0oQyg9TjIpQnIpTjNbQ0gzXSlbQ0BIXShbQ0gyXVtDQEhdMjMpYzRbY0hdc1tjSF1uNA==

>  <s_epik_cmdline>  (329) 
J2VwaWtfcHl0aG9uJywgJy1waHQnLCAnMi4wJywgJy1waCcsICc3LjAnLCAnLXRuJywgJzgnLCAnLW1hJywgJzIwMCcsICctaW1hZScsICc8aW5maWxlLm1hZT4nLCAnLW9tYWUnLCAnPG91dGZpbGUubWFlPic=

>  <r_lp_tautomer_probability>  (329) 
1

>  <r_epik_Ionization_Penalty>  (329) 
0.0271361

>  <r_epik_Ionization_Penalty_Charging>  (329) 
0

>  <r_epik_Ionization_Penalty_Neutral>  (329) 
0.0271361

>  <r_epik_State_Penalty>  (329) 
0.0221477

>  <r_epik_Charging_Adjusted_Penalty>  (329) 
0.0221477

>  <i_epik_Tot_Q>  (329) 
0

>  <i_epik_Tot_abs_Q>  (329) 
0

>  <s_epik_Chemistry_Notes>  (329) 
This compound has an imine and may undergo hydrolysis.

>  <s_lp_Force_Field>  (329) 
OPLS3e

>  <r_lp_Energy>  (329) 
56.3702

>  <b_lp_Chiralities_Consistent>  (329) 
1

>  <s_lp_Variant>  (329) 
101:0-2

>  <s_i_glide_gridfile>  (329) 
pfpi4k_grid

>  <i_i_glide_lignum>  (329) 
23

>  <i_i_glide_rotatable_bonds>  (329) 
3

>  <r_i_docking_score>  (329) 
-2.21216

>  <r_i_glide_ligand_efficiency>  (329) 
-0.100553

>  <r_i_glide_ligand_efficiency_sa>  (329) 
-0.281753

>  <r_i_glide_ligand_efficiency_ln>  (329) 
-0.540733

>  <r_i_glide_gscore>  (329) 
-2.21216

>  <r_i_glide_lipo>  (329) 
-0.0456892

>  <r_i_glide_hbond>  (329) 
-0.0569444

>  <r_i_glide_metal>  (329) 
-0

>  <r_i_glide_rewards>  (329) 
-0.802638

>  <r_i_glide_evdw>  (329) 
-20.2956

>  <r_i_glide_ecoul>  (329) 
-2.94941

>  <r_i_glide_erotb>  (329) 
0.265776

>  <r_i_glide_esite>  (329) 
-0.115477

>  <r_i_glide_emodel>  (329) 
-26.6044

>  <r_i_glide_energy>  (329) 
-23.245

>  <r_i_glide_einternal>  (329) 
0.177964

>  <r_i_glide_intrahb_reward>  (329) 
-0

>  <i_i_glide_confnum>  (329) 
1

>  <i_i_glide_posenum>  (329) 
1

>  <r_i_glide_eff_state_penalty>  (329) 
0

>  <ligand_id>  (329) 
101

>  <original_smiles>  (329) 
CCc1nc(C2C(c3cscn3)CC3N=C(Br)C2N3C)no1

>  <smiles>  (329) 
[H]c1nc(C2([H])C([H])([H])C3=NC([H])(Br)C([H])(N3C([H])([H])[H])C2([H])c2noc(C([H])([H])C([H])([H])[H])n2)c([H])s1

$$$$
101:1:1
     RDKit          3D

 38 41  0  0  1  0  0  0  0  0999 V2000
   -0.5205    1.5953   11.2544 C   0  0  0  0  0  0  0  0  0  0  0  0
   -0.8368    2.7118   10.2577 C   0  0  0  0  0  0  0  0  0  0  0  0
   -1.2383    2.1703    8.9288 C   0  0  0  0  0  0  0  0  0  0  0  0
   -0.4427    1.5227    8.0772 N   0  0  0  0  0  0  0  0  0  0  0  0
   -1.2836    1.2902    7.0270 C   0  0  0  0  0  0  0  0  0  0  0  0
   -0.8616    0.6612    5.7290 C   0  0  2  0  0  0  0  0  0  0  0  0
    0.3645   -0.3072    5.8730 C   0  0  1  0  0  0  0  0  0  0  0  0
    0.0450   -1.5799    6.6314 C   0  0  0  0  0  0  0  0  0  0  0  0
    0.5657   -1.9760    7.8329 C   0  0  0  0  0  0  0  0  0  0  0  0
   -0.0342   -3.5382    8.3470 S   0  0  0  0  0  0  0  0  0  0  0  0
   -0.9950   -3.5912    6.8686 C   0  0  0  0  0  0  0  0  0  0  0  0
   -0.8764   -2.5069    6.1023 N   0  0  0  0  0  0  0  0  0  0  0  0
    1.0776   -0.5978    4.5137 C   0  0  0  0  0  0  0  0  0  0  0  0
    0.9502    0.6264    3.6321 C   0  0  0  0  0  0  0  0  0  0  0  0
    1.5694    1.6831    4.0670 N   0  0  0  0  0  0  0  0  0  0  0  0
    0.5071    2.5851    4.4205 C   0  0  2  0  0  0  0  0  0  0  0  0
    1.0532    3.5276    6.0851 Br  0  0  0  0  0  0  0  0  0  0  0  0
   -0.7232    1.6425    4.5031 C   0  0  1  0  0  0  0  0  0  0  0  0
   -0.3996    0.7879    3.3761 N   0  0  0  0  0  0  0  0  0  0  0  0
   -0.8136    1.2314    2.0492 C   0  0  0  0  0  0  0  0  0  0  0  0
   -2.5375    1.6775    7.2168 N   0  0  0  0  0  0  0  0  0  0  0  0
   -2.5153    2.2765    8.4882 O   0  0  0  0  0  0  0  0  0  0  0  0
   -0.2313    2.0061   12.2181 H   0  0  0  0  0  0  0  0  0  0  0  0
    0.2966    0.9666   10.8993 H   0  0  0  0  0  0  0  0  0  0  0  0
   -1.3832    0.9554   11.4146 H   0  0  0  0  0  0  0  0  0  0  0  0
   -1.6341    3.3492   10.6407 H   0  0  0  0  0  0  0  0  0  0  0  0
    0.0399    3.3395   10.1077 H   0  0  0  0  0  0  0  0  0  0  0  0
   -1.7014    0.0222    5.4467 H   0  0  0  0  0  0  0  0  0  0  0  0
    1.1160    0.2485    6.4390 H   0  0  0  0  0  0  0  0  0  0  0  0
    1.2938   -1.4693    8.4613 H   0  0  0  0  0  0  0  0  0  0  0  0
   -1.6673   -4.4010    6.5775 H   0  0  0  0  0  0  0  0  0  0  0  0
    2.1286   -0.8413    4.6720 H   0  0  0  0  0  0  0  0  0  0  0  0
    0.6264   -1.4518    4.0012 H   0  0  0  0  0  0  0  0  0  0  0  0
    0.3617    3.3406    3.6438 H   0  0  0  0  0  0  0  0  0  0  0  0
   -1.6598    2.1758    4.3360 H   0  0  0  0  0  0  0  0  0  0  0  0
   -0.5018    0.5097    1.2907 H   0  0  0  0  0  0  0  0  0  0  0  0
   -0.3345    2.1765    1.7792 H   0  0  0  0  0  0  0  0  0  0  0  0
   -1.8955    1.3623    1.9753 H   0  0  0  0  0  0  0  0  0  0  0  0
  1  2  1  0
  1 23  1  0
  1 24  1  0
  1 25  1  0
  2  3  1  0
  2 26  1  0
  2 27  1  0
  3 22  1  0
  3  4  2  0
  4  5  1  0
  5  6  1  0
  5 21  2  0
  6  7  1  0
  6 28  1  6
  6 18  1  0
  7  8  1  0
  7 13  1  0
  7 29  1  1
  8 12  1  0
  8  9  2  0
  9 10  1  0
  9 30  1  0
 10 11  1  0
 11 12  2  0
 11 31  1  0
 13 32  1  0
 13 33  1  0
 13 14  1  0
 14 15  2  0
 14 19  1  0
 15 16  1  0
 16 18  1  0
 16 17  1  0
 16 34  1  6
 18 19  1  0
 18 35  1  6
 19 20  1  0
 20 36  1  0
 20 37  1  0
 20 38  1  0
 21 22  1  0
M  END
>  <i_m_ct_stereo_status>  (330) 
1

>  <s_m_source_file>  (330) 
/var/tmp/pbs.5076255.sched01/tmpk7n3yjou/123nw9z_609.sdf

>  <i_m_source_file_index>  (330) 
23

>  <i_lp_mmshare_version>  (330) 
48012

>  <i_f3d_flags>  (330) 
0

>  <s_epik_input>  (330) 
W0NIM11bQ0gyXWMxbmMobm8xKVtDQEBIXShbQ0BASF0oQyg9TjIpQnIpTjNbQ0gzXSlbQ0BIXShbQ0gyXVtDQEhdMjMpYzRbY0hdc1tjSF1uNA==

>  <s_epik_cmdline>  (330) 
J2VwaWtfcHl0aG9uJywgJy1waHQnLCAnMi4wJywgJy1waCcsICc3LjAnLCAnLXRuJywgJzgnLCAnLW1hJywgJzIwMCcsICctaW1hZScsICc8aW5maWxlLm1hZT4nLCAnLW9tYWUnLCAnPG91dGZpbGUubWFlPic=

>  <r_lp_tautomer_probability>  (330) 
1

>  <r_epik_Ionization_Penalty>  (330) 
0.0271361

>  <r_epik_Ionization_Penalty_Charging>  (330) 
0

>  <r_epik_Ionization_Penalty_Neutral>  (330) 
0.0271361

>  <r_epik_State_Penalty>  (330) 
0.0221477

>  <r_epik_Charging_Adjusted_Penalty>  (330) 
0.0221477

>  <i_epik_Tot_Q>  (330) 
0

>  <i_epik_Tot_abs_Q>  (330) 
0

>  <s_epik_Chemistry_Notes>  (330) 
This compound has an imine and may undergo hydrolysis.

>  <s_lp_Force_Field>  (330) 
OPLS3e

>  <r_lp_Energy>  (330) 
56.3702

>  <b_lp_Chiralities_Consistent>  (330) 
1

>  <s_lp_Variant>  (330) 
101:0-2

>  <s_i_glide_gridfile>  (330) 
pfpi4k_grid

>  <i_i_glide_lignum>  (330) 
23

>  <i_i_glide_rotatable_bonds>  (330) 
3

>  <r_i_docking_score>  (330) 
-2.15248

>  <r_i_glide_ligand_efficiency>  (330) 
-0.0978398

>  <r_i_glide_ligand_efficiency_sa>  (330) 
-0.274151

>  <r_i_glide_ligand_efficiency_ln>  (330) 
-0.526143

>  <r_i_glide_gscore>  (330) 
-2.15248

>  <r_i_glide_lipo>  (330) 
0

>  <r_i_glide_hbond>  (330) 
0

>  <r_i_glide_metal>  (330) 
-0

>  <r_i_glide_rewards>  (330) 
-0.802638

>  <r_i_glide_evdw>  (330) 
-19.5959

>  <r_i_glide_ecoul>  (330) 
-3.264

>  <r_i_glide_erotb>  (330) 
0.265776

>  <r_i_glide_esite>  (330) 
-0.146216

>  <r_i_glide_emodel>  (330) 
-25.485

>  <r_i_glide_energy>  (330) 
-22.8599

>  <r_i_glide_einternal>  (330) 
0.797187

>  <r_i_glide_intrahb_reward>  (330) 
-0

>  <i_i_glide_confnum>  (330) 
1

>  <i_i_glide_posenum>  (330) 
14

>  <r_i_glide_eff_state_penalty>  (330) 
0

>  <ligand_id>  (330) 
101

>  <original_smiles>  (330) 
CCc1nc(C2C(c3cscn3)CC3N=C(Br)C2N3C)no1

>  <smiles>  (330) 
[H]c1nc(C2([H])C([H])([H])C3=NC([H])(Br)C([H])(N3C([H])([H])[H])C2([H])c2noc(C([H])([H])C([H])([H])[H])n2)c([H])s1

$$$$
101:1:2
     RDKit          3D

 38 41  0  0  1  0  0  0  0  0999 V2000
   -1.8763   -4.1063    7.0551 C   0  0  0  0  0  0  0  0  0  0  0  0
   -0.5590   -3.9118    6.2960 C   0  0  0  0  0  0  0  0  0  0  0  0
   -0.2522   -2.4807    6.0093 C   0  0  0  0  0  0  0  0  0  0  0  0
   -0.5872   -1.7713    4.9278 N   0  0  0  0  0  0  0  0  0  0  0  0
   -0.0261   -0.5587    5.2142 C   0  0  0  0  0  0  0  0  0  0  0  0
   -0.1638    0.6388    4.3148 C   0  0  2  0  0  0  0  0  0  0  0  0
    1.1293    1.5360    4.1858 C   0  0  1  0  0  0  0  0  0  0  0  0
    2.2686    0.8469    3.4826 C   0  0  0  0  0  0  0  0  0  0  0  0
    3.4929    0.5126    4.0088 C   0  0  0  0  0  0  0  0  0  0  0  0
    4.5223   -0.2701    2.8313 S   0  0  0  0  0  0  0  0  0  0  0  0
    3.2295   -0.0897    1.6543 C   0  0  0  0  0  0  0  0  0  0  0  0
    2.1336    0.4964    2.1310 N   0  0  0  0  0  0  0  0  0  0  0  0
    0.8293    2.9479    3.5744 C   0  0  0  0  0  0  0  0  0  0  0  0
   -0.5672    3.3541    3.9967 C   0  0  0  0  0  0  0  0  0  0  0  0
   -0.7617    3.6008    5.2500 N   0  0  0  0  0  0  0  0  0  0  0  0
   -1.6150    2.5121    5.6659 C   0  0  2  0  0  0  0  0  0  0  0  0
   -1.0474    1.9199    7.4778 Br  0  0  0  0  0  0  0  0  0  0  0  0
   -1.4864    1.4900    4.4945 C   0  0  1  0  0  0  0  0  0  0  0  0
   -1.4553    2.4649    3.4231 N   0  0  0  0  0  0  0  0  0  0  0  0
   -2.7173    2.9720    2.8895 C   0  0  0  0  0  0  0  0  0  0  0  0
    0.5708   -0.4881    6.3989 N   0  0  0  0  0  0  0  0  0  0  0  0
    0.3864   -1.7587    6.9541 O   0  0  0  0  0  0  0  0  0  0  0  0
   -2.0656   -5.1622    7.2350 H   0  0  0  0  0  0  0  0  0  0  0  0
   -2.7212   -3.7096    6.4944 H   0  0  0  0  0  0  0  0  0  0  0  0
   -1.8452   -3.6168    8.0264 H   0  0  0  0  0  0  0  0  0  0  0  0
    0.2654   -4.3330    6.8754 H   0  0  0  0  0  0  0  0  0  0  0  0
   -0.5780   -4.4539    5.3490 H   0  0  0  0  0  0  0  0  0  0  0  0
   -0.2883    0.2043    3.3193 H   0  0  0  0  0  0  0  0  0  0  0  0
    1.4368    1.7492    5.2108 H   0  0  0  0  0  0  0  0  0  0  0  0
    3.8507    0.6817    5.0104 H   0  0  0  0  0  0  0  0  0  0  0  0
    3.2771   -0.4169    0.6231 H   0  0  0  0  0  0  0  0  0  0  0  0
    1.5595    3.6857    3.9133 H   0  0  0  0  0  0  0  0  0  0  0  0
    0.8770    2.9251    2.4827 H   0  0  0  0  0  0  0  0  0  0  0  0
   -2.6455    2.8502    5.7591 H   0  0  0  0  0  0  0  0  0  0  0  0
   -2.3613    0.8447    4.4106 H   0  0  0  0  0  0  0  0  0  0  0  0
   -2.5389    3.6924    2.0853 H   0  0  0  0  0  0  0  0  0  0  0  0
   -3.2965    3.4819    3.6625 H   0  0  0  0  0  0  0  0  0  0  0  0
   -3.3314    2.1703    2.4811 H   0  0  0  0  0  0  0  0  0  0  0  0
  1  2  1  0
  1 23  1  0
  1 24  1  0
  1 25  1  0
  2  3  1  0
  2 26  1  0
  2 27  1  0
  3 22  1  0
  3  4  2  0
  4  5  1  0
  5  6  1  0
  5 21  2  0
  6  7  1  0
  6 28  1  6
  6 18  1  0
  7  8  1  0
  7 13  1  0
  7 29  1  1
  8 12  1  0
  8  9  2  0
  9 10  1  0
  9 30  1  0
 10 11  1  0
 11 12  2  0
 11 31  1  0
 13 32  1  0
 13 33  1  0
 13 14  1  0
 14 15  2  0
 14 19  1  0
 15 16  1  0
 16 18  1  0
 16 17  1  0
 16 34  1  1
 18 19  1  0
 18 35  1  6
 19 20  1  0
 20 36  1  0
 20 37  1  0
 20 38  1  0
 21 22  1  0
M  END
>  <i_m_ct_stereo_status>  (331) 
1

>  <s_m_source_file>  (331) 
/var/tmp/pbs.5076255.sched01/tmpk7n3yjou/123nw9z_609.sdf

>  <i_m_source_file_index>  (331) 
23

>  <i_lp_mmshare_version>  (331) 
48012

>  <i_f3d_flags>  (331) 
0

>  <s_epik_input>  (331) 
W0NIM11bQ0gyXWMxbmMobm8xKVtDQEBIXShbQ0BASF0oQyg9TjIpQnIpTjNbQ0gzXSlbQ0BIXShbQ0gyXVtDQEhdMjMpYzRbY0hdc1tjSF1uNA==

>  <s_epik_cmdline>  (331) 
J2VwaWtfcHl0aG9uJywgJy1waHQnLCAnMi4wJywgJy1waCcsICc3LjAnLCAnLXRuJywgJzgnLCAnLW1hJywgJzIwMCcsICctaW1hZScsICc8aW5maWxlLm1hZT4nLCAnLW9tYWUnLCAnPG91dGZpbGUubWFlPic=

>  <r_lp_tautomer_probability>  (331) 
1

>  <r_epik_Ionization_Penalty>  (331) 
0.0271361

>  <r_epik_Ionization_Penalty_Charging>  (331) 
0

>  <r_epik_Ionization_Penalty_Neutral>  (331) 
0.0271361

>  <r_epik_State_Penalty>  (331) 
0.0221477

>  <r_epik_Charging_Adjusted_Penalty>  (331) 
0.0221477

>  <i_epik_Tot_Q>  (331) 
0

>  <i_epik_Tot_abs_Q>  (331) 
0

>  <s_epik_Chemistry_Notes>  (331) 
This compound has an imine and may undergo hydrolysis.

>  <s_lp_Force_Field>  (331) 
OPLS3e

>  <r_lp_Energy>  (331) 
56.3702

>  <b_lp_Chiralities_Consistent>  (331) 
1

>  <s_lp_Variant>  (331) 
101:0-2

>  <s_i_glide_gridfile>  (331) 
pfpi4k_grid

>  <i_i_glide_lignum>  (331) 
23

>  <i_i_glide_rotatable_bonds>  (331) 
3

>  <r_i_docking_score>  (331) 
-2.09488

>  <r_i_glide_ligand_efficiency>  (331) 
-0.0952217

>  <r_i_glide_ligand_efficiency_sa>  (331) 
-0.266815

>  <r_i_glide_ligand_efficiency_ln>  (331) 
-0.512064

>  <r_i_glide_gscore>  (331) 
-2.09488

>  <r_i_glide_lipo>  (331) 
-0.127639

>  <r_i_glide_hbond>  (331) 
0

>  <r_i_glide_metal>  (331) 
-0

>  <r_i_glide_rewards>  (331) 
-0.802638

>  <r_i_glide_evdw>  (331) 
-23.8001

>  <r_i_glide_ecoul>  (331) 
-0.552861

>  <r_i_glide_erotb>  (331) 
0.265776

>  <r_i_glide_esite>  (331) 
-0.15744

>  <r_i_glide_emodel>  (331) 
-26.873

>  <r_i_glide_energy>  (331) 
-24.353

>  <r_i_glide_einternal>  (331) 
1.37403

>  <r_i_glide_intrahb_reward>  (331) 
-0

>  <i_i_glide_confnum>  (331) 
1

>  <i_i_glide_posenum>  (331) 
2

>  <r_i_glide_eff_state_penalty>  (331) 
0

>  <ligand_id>  (331) 
101

>  <original_smiles>  (331) 
CCc1nc(C2C(c3cscn3)CC3N=C(Br)C2N3C)no1

>  <smiles>  (331) 
[H]c1nc(C2([H])C([H])([H])C3=NC([H])(Br)C([H])(N3C([H])([H])[H])C2([H])c2noc(C([H])([H])C([H])([H])[H])n2)c([H])s1

$$$$
101:2:0
     RDKit          3D

 39 42  0  0  1  0  0  0  0  0999 V2000
    4.5033   -8.8850    1.1217 C   0  0  0  0  0  0  0  0  0  0  0  0
    3.9995   -7.8773    2.1659 C   0  0  0  0  0  0  0  0  0  0  0  0
    3.3901   -6.6499    1.5720 C   0  0  0  0  0  0  0  0  0  0  0  0
    3.9814   -5.4729    1.3796 N   0  0  0  0  0  0  0  0  0  0  0  0
    2.9863   -4.7760    0.7482 C   0  0  0  0  0  0  0  0  0  0  0  0
    3.0985   -3.3112    0.4024 C   0  0  2  0  0  0  0  0  0  0  0  0
    4.3148   -3.0529   -0.5715 C   0  0  1  0  0  0  0  0  0  0  0  0
    3.9248   -2.3462   -1.8468 C   0  0  0  0  0  0  0  0  0  0  0  0
    4.2288   -1.0534   -2.2461 C   0  0  0  0  0  0  0  0  0  0  0  0
    3.6018   -0.6864   -3.8321 S   0  0  0  0  0  0  0  0  0  0  0  0
    2.9528   -2.3295   -3.9054 C   0  0  0  0  0  0  0  0  0  0  0  0
    3.2176   -3.0463   -2.8190 N   0  0  0  0  0  0  0  0  0  0  0  0
    5.5475   -2.3851    0.1176 C   0  0  0  0  0  0  0  0  0  0  0  0
    5.0518   -1.6412    1.3114 C   0  0  0  0  0  0  0  0  0  0  0  0
    4.2937   -0.5700    1.0230 N   0  0  0  0  0  0  0  0  0  0  0  0
    2.9187   -0.9333    1.3550 C   0  0  2  0  0  0  0  0  0  0  0  0
    2.4265    0.1128    2.9769 Br  0  0  0  0  0  0  0  0  0  0  0  0
    3.0860   -2.4275    1.6943 C   0  0  2  0  0  0  0  0  0  0  0  0
    4.4660   -2.4589    2.1953 N   0  0  0  0  0  0  0  0  0  0  0  0
    4.7165   -2.2339    3.6186 C   0  0  0  0  0  0  0  0  0  0  0  0
    1.8553   -5.4510    0.5561 N   0  0  0  0  0  0  0  0  0  0  0  0
    2.1136   -6.7014    1.1213 O   0  0  0  0  0  0  0  0  0  0  0  0
    4.9391   -9.7550    1.6118 H   0  0  0  0  0  0  0  0  0  0  0  0
    5.2721   -8.4511    0.4812 H   0  0  0  0  0  0  0  0  0  0  0  0
    3.6933   -9.2483    0.4889 H   0  0  0  0  0  0  0  0  0  0  0  0
    3.2613   -8.3489    2.8163 H   0  0  0  0  0  0  0  0  0  0  0  0
    4.8282   -7.5583    2.7965 H   0  0  0  0  0  0  0  0  0  0  0  0
    2.1932   -3.0529   -0.1585 H   0  0  0  0  0  0  0  0  0  0  0  0
    4.6569   -4.0430   -0.8875 H   0  0  0  0  0  0  0  0  0  0  0  0
    4.7839   -0.2884   -1.7353 H   0  0  0  0  0  0  0  0  0  0  0  0
    2.3768   -2.7727   -4.7177 H   0  0  0  0  0  0  0  0  0  0  0  0
    6.2070   -3.1727    0.4709 H   0  0  0  0  0  0  0  0  0  0  0  0
    6.1612   -1.7731   -0.5441 H   0  0  0  0  0  0  0  0  0  0  0  0
    2.2404   -0.6941    0.5389 H   0  0  0  0  0  0  0  0  0  0  0  0
    2.3415   -2.7592    2.4285 H   0  0  0  0  0  0  0  0  0  0  0  0
    5.7493   -2.4901    3.8394 H   0  0  0  0  0  0  0  0  0  0  0  0
    4.0560   -2.8077    4.2681 H   0  0  0  0  0  0  0  0  0  0  0  0
    4.6142   -1.1765    3.8513 H   0  0  0  0  0  0  0  0  0  0  0  0
    4.4699    0.0877    0.2708 H   0  0  0  0  0  0  0  0  0  0  0  0
  1  2  1  0
  1 23  1  0
  1 24  1  0
  1 25  1  0
  2  3  1  0
  2 26  1  0
  2 27  1  0
  3 22  1  0
  3  4  2  0
  4  5  1  0
  5  6  1  0
  5 21  2  0
  6  7  1  0
  6 28  1  6
  6 18  1  0
  7  8  1  0
  7 13  1  0
  7 29  1  6
  8 12  1  0
  8  9  2  0
  9 10  1  0
  9 30  1  0
 10 11  1  0
 11 12  2  0
 11 31  1  0
 13 32  1  0
 13 33  1  0
 13 14  1  0
 14 15  2  0
 14 19  1  0
 15 16  1  0
 15 39  1  0
 16 18  1  0
 16 17  1  0
 16 34  1  6
 18 19  1  0
 18 35  1  1
 19 20  1  0
 20 36  1  0
 20 37  1  0
 20 38  1  0
 21 22  1  0
M  CHG  1  15   1
M  END
>  <i_m_ct_stereo_status>  (332) 
1

>  <s_m_source_file>  (332) 
/var/tmp/pbs.5076255.sched01/tmpk7n3yjou/123nw9z_609.sdf

>  <i_m_source_file_index>  (332) 
24

>  <i_lp_mmshare_version>  (332) 
48012

>  <i_f3d_flags>  (332) 
0

>  <s_epik_input>  (332) 
W0NIM11bQ0gyXWMxbmMobm8xKVtDQEBIXShbQ0BASF0oQyg9TjIpQnIpTjNbQ0gzXSlbQ0BIXShbQ0gyXVtDQEhdMjMpYzRbY0hdc1tjSF1uNA==

>  <s_epik_cmdline>  (332) 
J2VwaWtfcHl0aG9uJywgJy1waHQnLCAnMi4wJywgJy1waCcsICc3LjAnLCAnLXRuJywgJzgnLCAnLW1hJywgJzIwMCcsICctaW1hZScsICc8aW5maWxlLm1hZT4nLCAnLW9tYWUnLCAnPG91dGZpbGUubWFlPic=

>  <r_lp_tautomer_probability>  (332) 
1

>  <r_epik_Ionization_Penalty>  (332) 
1.84154

>  <r_epik_Ionization_Penalty_Charging>  (332) 
1.84152

>  <r_epik_Ionization_Penalty_Neutral>  (332) 
1.35005e-05

>  <r_epik_State_Penalty>  (332) 
1.9583

>  <r_epik_Charging_Adjusted_Penalty>  (332) 
3.79982

>  <i_epik_Tot_Q>  (332) 
1

>  <i_epik_Tot_abs_Q>  (332) 
1

>  <s_epik_Chemistry_Notes>  (332) 
This compound has an imine and may undergo hydrolysis.

>  <s_lp_Force_Field>  (332) 
OPLS3e

>  <r_lp_Energy>  (332) 
63.6619

>  <b_lp_Chiralities_Consistent>  (332) 
1

>  <s_lp_Variant>  (332) 
101:0-3

>  <s_i_glide_gridfile>  (332) 
pfpi4k_grid

>  <i_i_glide_lignum>  (332) 
24

>  <i_i_glide_rotatable_bonds>  (332) 
3

>  <r_i_docking_score>  (332) 
-3.42012

>  <r_i_glide_ligand_efficiency>  (332) 
-0.15546

>  <r_i_glide_ligand_efficiency_sa>  (332) 
-0.435606

>  <r_i_glide_ligand_efficiency_ln>  (332) 
-0.836003

>  <r_i_glide_gscore>  (332) 
-3.42012

>  <r_i_glide_lipo>  (332) 
-0.480147

>  <r_i_glide_hbond>  (332) 
0

>  <r_i_glide_metal>  (332) 
-0

>  <r_i_glide_rewards>  (332) 
-0.915731

>  <r_i_glide_evdw>  (332) 
-27.6045

>  <r_i_glide_ecoul>  (332) 
-5.19729

>  <r_i_glide_erotb>  (332) 
0.264524

>  <r_i_glide_esite>  (332) 
-0.128953

>  <r_i_glide_emodel>  (332) 
-39.3463

>  <r_i_glide_energy>  (332) 
-32.8018

>  <r_i_glide_einternal>  (332) 
1.79323

>  <r_i_glide_intrahb_reward>  (332) 
-0

>  <i_i_glide_confnum>  (332) 
3

>  <i_i_glide_posenum>  (332) 
18

>  <r_i_glide_eff_state_penalty>  (332) 
0

>  <ligand_id>  (332) 
101

>  <original_smiles>  (332) 
CCc1nc(C2C(c3cscn3)CC3N=C(Br)C2N3C)no1

>  <smiles>  (332) 
[H]c1nc(C2([H])C([H])([H])C3=[N+]([H])C([H])(Br)C([H])(N3C([H])([H])[H])C2([H])c2noc(C([H])([H])C([H])([H])[H])n2)c([H])s1

$$$$
101:2:1
     RDKit          3D

 39 42  0  0  1  0  0  0  0  0999 V2000
    3.6787   -7.8146    3.8669 C   0  0  0  0  0  0  0  0  0  0  0  0
    4.1238   -7.6848    2.4050 C   0  0  0  0  0  0  0  0  0  0  0  0
    3.5150   -6.5197    1.6939 C   0  0  0  0  0  0  0  0  0  0  0  0
    4.0398   -5.3052    1.5459 N   0  0  0  0  0  0  0  0  0  0  0  0
    3.0662   -4.6783    0.8197 C   0  0  0  0  0  0  0  0  0  0  0  0
    3.1532   -3.2238    0.4189 C   0  0  2  0  0  0  0  0  0  0  0  0
    4.3664   -2.9801   -0.5658 C   0  0  1  0  0  0  0  0  0  0  0  0
    3.9611   -2.3141   -1.8639 C   0  0  0  0  0  0  0  0  0  0  0  0
    4.2416   -1.0373   -2.3013 C   0  0  0  0  0  0  0  0  0  0  0  0
    3.5970   -0.7208   -3.8947 S   0  0  0  0  0  0  0  0  0  0  0  0
    2.9804   -2.3662   -3.9125 C   0  0  0  0  0  0  0  0  0  0  0  0
    3.2594   -3.0544   -2.8095 N   0  0  0  0  0  0  0  0  0  0  0  0
    5.5870   -2.2635    0.0984 C   0  0  0  0  0  0  0  0  0  0  0  0
    5.0677   -1.4990    1.2683 C   0  0  0  0  0  0  0  0  0  0  0  0
    4.2901   -0.4409    0.9546 N   0  0  0  0  0  0  0  0  0  0  0  0
    2.9209   -0.8226    1.2971 C   0  0  2  0  0  0  0  0  0  0  0  0
    2.4093    0.2476    2.8896 Br  0  0  0  0  0  0  0  0  0  0  0  0
    3.1222   -2.3003    1.6780 C   0  0  2  0  0  0  0  0  0  0  0  0
    4.5052   -2.3035    2.1753 N   0  0  0  0  0  0  0  0  0  0  0  0
    4.7532   -2.0307    3.5947 C   0  0  0  0  0  0  0  0  0  0  0  0
    1.9915   -5.4127    0.5595 N   0  0  0  0  0  0  0  0  0  0  0  0
    2.2683   -6.6381    1.1769 O   0  0  0  0  0  0  0  0  0  0  0  0
    4.1543   -8.6756    4.3315 H   0  0  0  0  0  0  0  0  0  0  0  0
    2.6009   -7.9548    3.9423 H   0  0  0  0  0  0  0  0  0  0  0  0
    3.9507   -6.9338    4.4482 H   0  0  0  0  0  0  0  0  0  0  0  0
    5.2059   -7.5707    2.3566 H   0  0  0  0  0  0  0  0  0  0  0  0
    3.8760   -8.5939    1.8545 H   0  0  0  0  0  0  0  0  0  0  0  0
    2.2412   -3.0117   -0.1501 H   0  0  0  0  0  0  0  0  0  0  0  0
    4.7293   -3.9688   -0.8587 H   0  0  0  0  0  0  0  0  0  0  0  0
    4.7880   -0.2435   -1.8107 H   0  0  0  0  0  0  0  0  0  0  0  0
    2.4123   -2.8406   -4.7007 H   0  0  0  0  0  0  0  0  0  0  0  0
    6.2631   -3.0250    0.4751 H   0  0  0  0  0  0  0  0  0  0  0  0
    6.1825   -1.6542   -0.5797 H   0  0  0  0  0  0  0  0  0  0  0  0
    2.2243   -0.6304    0.4836 H   0  0  0  0  0  0  0  0  0  0  0  0
    2.3911   -2.6386    2.4199 H   0  0  0  0  0  0  0  0  0  0  0  0
    5.7943   -2.2635    3.8206 H   0  0  0  0  0  0  0  0  0  0  0  0
    4.1037   -2.6049    4.2593 H   0  0  0  0  0  0  0  0  0  0  0  0
    4.6274   -0.9666    3.8050 H   0  0  0  0  0  0  0  0  0  0  0  0
    4.4598    0.1993    0.1854 H   0  0  0  0  0  0  0  0  0  0  0  0
  1  2  1  0
  1 23  1  0
  1 24  1  0
  1 25  1  0
  2  3  1  0
  2 26  1  0
  2 27  1  0
  3 22  1  0
  3  4  2  0
  4  5  1  0
  5  6  1  0
  5 21  2  0
  6  7  1  0
  6 28  1  6
  6 18  1  0
  7  8  1  0
  7 13  1  0
  7 29  1  6
  8 12  1  0
  8  9  2  0
  9 10  1  0
  9 30  1  0
 10 11  1  0
 11 12  2  0
 11 31  1  0
 13 32  1  0
 13 33  1  0
 13 14  1  0
 14 15  2  0
 14 19  1  0
 15 16  1  0
 15 39  1  0
 16 18  1  0
 16 17  1  0
 16 34  1  6
 18 19  1  0
 18 35  1  1
 19 20  1  0
 20 36  1  0
 20 37  1  0
 20 38  1  0
 21 22  1  0
M  CHG  1  15   1
M  END
>  <i_m_ct_stereo_status>  (333) 
1

>  <s_m_source_file>  (333) 
/var/tmp/pbs.5076255.sched01/tmpk7n3yjou/123nw9z_609.sdf

>  <i_m_source_file_index>  (333) 
24

>  <i_lp_mmshare_version>  (333) 
48012

>  <i_f3d_flags>  (333) 
0

>  <s_epik_input>  (333) 
W0NIM11bQ0gyXWMxbmMobm8xKVtDQEBIXShbQ0BASF0oQyg9TjIpQnIpTjNbQ0gzXSlbQ0BIXShbQ0gyXVtDQEhdMjMpYzRbY0hdc1tjSF1uNA==

>  <s_epik_cmdline>  (333) 
J2VwaWtfcHl0aG9uJywgJy1waHQnLCAnMi4wJywgJy1waCcsICc3LjAnLCAnLXRuJywgJzgnLCAnLW1hJywgJzIwMCcsICctaW1hZScsICc8aW5maWxlLm1hZT4nLCAnLW9tYWUnLCAnPG91dGZpbGUubWFlPic=

>  <r_lp_tautomer_probability>  (333) 
1

>  <r_epik_Ionization_Penalty>  (333) 
1.84154

>  <r_epik_Ionization_Penalty_Charging>  (333) 
1.84152

>  <r_epik_Ionization_Penalty_Neutral>  (333) 
1.35005e-05

>  <r_epik_State_Penalty>  (333) 
1.9583

>  <r_epik_Charging_Adjusted_Penalty>  (333) 
3.79982

>  <i_epik_Tot_Q>  (333) 
1

>  <i_epik_Tot_abs_Q>  (333) 
1

>  <s_epik_Chemistry_Notes>  (333) 
This compound has an imine and may undergo hydrolysis.

>  <s_lp_Force_Field>  (333) 
OPLS3e

>  <r_lp_Energy>  (333) 
63.6619

>  <b_lp_Chiralities_Consistent>  (333) 
1

>  <s_lp_Variant>  (333) 
101:0-3

>  <s_i_glide_gridfile>  (333) 
pfpi4k_grid

>  <i_i_glide_lignum>  (333) 
24

>  <i_i_glide_rotatable_bonds>  (333) 
3

>  <r_i_docking_score>  (333) 
-3.27501

>  <r_i_glide_ligand_efficiency>  (333) 
-0.148864

>  <r_i_glide_ligand_efficiency_sa>  (333) 
-0.417123

>  <r_i_glide_ligand_efficiency_ln>  (333) 
-0.800531

>  <r_i_glide_gscore>  (333) 
-3.27501

>  <r_i_glide_lipo>  (333) 
-0.450279

>  <r_i_glide_hbond>  (333) 
0

>  <r_i_glide_metal>  (333) 
-0

>  <r_i_glide_rewards>  (333) 
-0.929127

>  <r_i_glide_evdw>  (333) 
-26.4672

>  <r_i_glide_ecoul>  (333) 
-4.87951

>  <r_i_glide_erotb>  (333) 
0.264524

>  <r_i_glide_esite>  (333) 
-0.104839

>  <r_i_glide_emodel>  (333) 
-37.6686

>  <r_i_glide_energy>  (333) 
-31.3467

>  <r_i_glide_einternal>  (333) 
1.60838

>  <r_i_glide_intrahb_reward>  (333) 
-0

>  <i_i_glide_confnum>  (333) 
3

>  <i_i_glide_posenum>  (333) 
19

>  <r_i_glide_eff_state_penalty>  (333) 
0

>  <ligand_id>  (333) 
101

>  <original_smiles>  (333) 
CCc1nc(C2C(c3cscn3)CC3N=C(Br)C2N3C)no1

>  <smiles>  (333) 
[H]c1nc(C2([H])C([H])([H])C3=[N+]([H])C([H])(Br)C([H])(N3C([H])([H])[H])C2([H])c2noc(C([H])([H])C([H])([H])[H])n2)c([H])s1

$$$$
101:2:2
     RDKit          3D

 39 42  0  0  1  0  0  0  0  0999 V2000
    5.2529   -1.4485   -0.1142 C   0  0  0  0  0  0  0  0  0  0  0  0
    3.9562   -1.6354    0.6825 C   0  0  0  0  0  0  0  0  0  0  0  0
    3.3868   -3.0137    0.5881 C   0  0  0  0  0  0  0  0  0  0  0  0
    3.5769   -4.0220    1.4378 N   0  0  0  0  0  0  0  0  0  0  0  0
    2.8551   -5.0139    0.8481 C   0  0  0  0  0  0  0  0  0  0  0  0
    2.7499   -6.4102    1.4017 C   0  0  2  0  0  0  0  0  0  0  0  0
    1.9174   -6.4279    2.7429 C   0  0  1  0  0  0  0  0  0  0  0  0
    0.7316   -7.3808    2.7357 C   0  0  0  0  0  0  0  0  0  0  0  0
    0.7471   -8.7384    2.5572 C   0  0  0  0  0  0  0  0  0  0  0  0
   -0.8430   -9.4506    2.6518 S   0  0  0  0  0  0  0  0  0  0  0  0
   -1.4835   -7.8505    2.9484 C   0  0  0  0  0  0  0  0  0  0  0  0
   -0.5639   -6.8826    2.9528 N   0  0  0  0  0  0  0  0  0  0  0  0
    2.7881   -6.6208    4.0241 C   0  0  0  0  0  0  0  0  0  0  0  0
    4.0599   -7.2784    3.5942 C   0  0  0  0  0  0  0  0  0  0  0  0
    3.9365   -8.5671    3.2160 N   0  0  0  0  0  0  0  0  0  0  0  0
    4.1035   -8.5744    1.7582 C   0  0  2  0  0  0  0  0  0  0  0  0
    5.8484   -9.4408    1.3627 Br  0  0  0  0  0  0  0  0  0  0  0  0
    4.1665   -7.0637    1.4716 C   0  0  2  0  0  0  0  0  0  0  0  0
    4.7453   -6.5441    2.7145 N   0  0  0  0  0  0  0  0  0  0  0  0
    6.2042   -6.4649    2.8398 C   0  0  0  0  0  0  0  0  0  0  0  0
    2.2169   -4.6696   -0.2645 N   0  0  0  0  0  0  0  0  0  0  0  0
    2.6214   -3.3440   -0.4773 O   0  0  0  0  0  0  0  0  0  0  0  0
    5.6224   -0.4306    0.0012 H   0  0  0  0  0  0  0  0  0  0  0  0
    5.0897   -1.6262   -1.1759 H   0  0  0  0  0  0  0  0  0  0  0  0
    6.0338   -2.1263    0.2296 H   0  0  0  0  0  0  0  0  0  0  0  0
    4.1399   -1.4306    1.7366 H   0  0  0  0  0  0  0  0  0  0  0  0
    3.1983   -0.9252    0.3484 H   0  0  0  0  0  0  0  0  0  0  0  0
    2.1581   -6.9748    0.6826 H   0  0  0  0  0  0  0  0  0  0  0  0
    1.4908   -5.4271    2.8422 H   0  0  0  0  0  0  0  0  0  0  0  0
    1.5648   -9.4148    2.3713 H   0  0  0  0  0  0  0  0  0  0  0  0
   -2.5389   -7.6416    3.1061 H   0  0  0  0  0  0  0  0  0  0  0  0
    3.0475   -5.6337    4.4142 H   0  0  0  0  0  0  0  0  0  0  0  0
    2.2812   -7.1493    4.8357 H   0  0  0  0  0  0  0  0  0  0  0  0
    3.3219   -9.1133    1.2196 H   0  0  0  0  0  0  0  0  0  0  0  0
    4.7590   -6.8405    0.5816 H   0  0  0  0  0  0  0  0  0  0  0  0
    6.4533   -5.8802    3.7270 H   0  0  0  0  0  0  0  0  0  0  0  0
    6.6771   -6.0116    1.9644 H   0  0  0  0  0  0  0  0  0  0  0  0
    6.6238   -7.4611    2.9985 H   0  0  0  0  0  0  0  0  0  0  0  0
    3.3272   -9.2309    3.6807 H   0  0  0  0  0  0  0  0  0  0  0  0
  1  2  1  0
  1 23  1  0
  1 24  1  0
  1 25  1  0
  2  3  1  0
  2 26  1  0
  2 27  1  0
  3 22  1  0
  3  4  2  0
  4  5  1  0
  5  6  1  0
  5 21  2  0
  6  7  1  0
  6 28  1  6
  6 18  1  0
  7  8  1  0
  7 13  1  0
  7 29  1  1
  8 12  1  0
  8  9  2  0
  9 10  1  0
  9 30  1  0
 10 11  1  0
 11 12  2  0
 11 31  1  0
 13 32  1  0
 13 33  1  0
 13 14  1  0
 14 15  2  0
 14 19  1  0
 15 16  1  0
 15 39  1  0
 16 18  1  0
 16 17  1  0
 16 34  1  6
 18 19  1  0
 18 35  1  6
 19 20  1  0
 20 36  1  0
 20 37  1  0
 20 38  1  0
 21 22  1  0
M  CHG  1  15   1
M  END
>  <i_m_ct_stereo_status>  (334) 
1

>  <s_m_source_file>  (334) 
/var/tmp/pbs.5076255.sched01/tmpk7n3yjou/123nw9z_609.sdf

>  <i_m_source_file_index>  (334) 
24

>  <i_lp_mmshare_version>  (334) 
48012

>  <i_f3d_flags>  (334) 
0

>  <s_epik_input>  (334) 
W0NIM11bQ0gyXWMxbmMobm8xKVtDQEBIXShbQ0BASF0oQyg9TjIpQnIpTjNbQ0gzXSlbQ0BIXShbQ0gyXVtDQEhdMjMpYzRbY0hdc1tjSF1uNA==

>  <s_epik_cmdline>  (334) 
J2VwaWtfcHl0aG9uJywgJy1waHQnLCAnMi4wJywgJy1waCcsICc3LjAnLCAnLXRuJywgJzgnLCAnLW1hJywgJzIwMCcsICctaW1hZScsICc8aW5maWxlLm1hZT4nLCAnLW9tYWUnLCAnPG91dGZpbGUubWFlPic=

>  <r_lp_tautomer_probability>  (334) 
1

>  <r_epik_Ionization_Penalty>  (334) 
1.84154

>  <r_epik_Ionization_Penalty_Charging>  (334) 
1.84152

>  <r_epik_Ionization_Penalty_Neutral>  (334) 
1.35005e-05

>  <r_epik_State_Penalty>  (334) 
1.9583

>  <r_epik_Charging_Adjusted_Penalty>  (334) 
3.79982

>  <i_epik_Tot_Q>  (334) 
1

>  <i_epik_Tot_abs_Q>  (334) 
1

>  <s_epik_Chemistry_Notes>  (334) 
This compound has an imine and may undergo hydrolysis.

>  <s_lp_Force_Field>  (334) 
OPLS3e

>  <r_lp_Energy>  (334) 
63.6619

>  <b_lp_Chiralities_Consistent>  (334) 
1

>  <s_lp_Variant>  (334) 
101:0-3

>  <s_i_glide_gridfile>  (334) 
pfpi4k_grid

>  <i_i_glide_lignum>  (334) 
24

>  <i_i_glide_rotatable_bonds>  (334) 
3

>  <r_i_docking_score>  (334) 
-2.55642

>  <r_i_glide_ligand_efficiency>  (334) 
-0.116201

>  <r_i_glide_ligand_efficiency_sa>  (334) 
-0.3256

>  <r_i_glide_ligand_efficiency_ln>  (334) 
-0.624883

>  <r_i_glide_gscore>  (334) 
-2.55642

>  <r_i_glide_lipo>  (334) 
-0.182164

>  <r_i_glide_hbond>  (334) 
-0.16

>  <r_i_glide_metal>  (334) 
-0

>  <r_i_glide_rewards>  (334) 
-0.795766

>  <r_i_glide_evdw>  (334) 
-23.4476

>  <r_i_glide_ecoul>  (334) 
-2.58394

>  <r_i_glide_erotb>  (334) 
0.264524

>  <r_i_glide_esite>  (334) 
-0.123045

>  <r_i_glide_emodel>  (334) 
-30.5897

>  <r_i_glide_energy>  (334) 
-26.0316

>  <r_i_glide_einternal>  (334) 
1.94771

>  <r_i_glide_intrahb_reward>  (334) 
-0

>  <i_i_glide_confnum>  (334) 
2

>  <i_i_glide_posenum>  (334) 
40

>  <r_i_glide_eff_state_penalty>  (334) 
0

>  <ligand_id>  (334) 
101

>  <original_smiles>  (334) 
CCc1nc(C2C(c3cscn3)CC3N=C(Br)C2N3C)no1

>  <smiles>  (334) 
[H]c1nc(C2([H])C([H])([H])C3=[N+]([H])C([H])(Br)C([H])(N3C([H])([H])[H])C2([H])c2noc(C([H])([H])C([H])([H])[H])n2)c([H])s1

$$$$
101:3:0
     RDKit          3D

 39 42  0  0  1  0  0  0  0  0999 V2000
    2.4655   -2.3714    5.2568 C   0  0  0  0  0  0  0  0  0  0  0  0
    1.3092   -3.3634    5.4310 C   0  0  0  0  0  0  0  0  0  0  0  0
    1.4474   -4.5867    4.5877 C   0  0  0  0  0  0  0  0  0  0  0  0
    1.9848   -5.7592    4.9334 N   0  0  0  0  0  0  0  0  0  0  0  0
    1.8667   -6.4634    3.7673 C   0  0  0  0  0  0  0  0  0  0  0  0
    2.2417   -7.9168    3.6568 C   0  0  2  0  0  0  0  0  0  0  0  0
    2.7992   -8.3122    2.2258 C   0  0  1  0  0  0  0  0  0  0  0  0
    4.1045   -7.6277    1.8845 C   0  0  0  0  0  0  0  0  0  0  0  0
    4.3147   -6.6537    0.9330 C   0  0  0  0  0  0  0  0  0  0  0  0
    5.9663   -6.0890    0.9047 S   0  0  0  0  0  0  0  0  0  0  0  0
    6.3354   -7.2632    2.1649 C   0  0  0  0  0  0  0  0  0  0  0  0
    5.2755   -7.9614    2.5868 N   0  0  0  0  0  0  0  0  0  0  0  0
    2.8769   -9.8536    2.0339 C   0  0  0  0  0  0  0  0  0  0  0  0
    1.7377  -10.3862    2.8356 C   0  0  0  0  0  0  0  0  0  0  0  0
    0.4794  -10.0838    2.4565 N   0  0  0  0  0  0  0  0  0  0  0  0
   -0.0760   -9.2500    3.5059 C   0  0  2  0  0  0  0  0  0  0  0  0
   -1.1353   -7.7574    2.7317 Br  0  0  0  0  0  0  0  0  0  0  0  0
    1.2038   -8.9188    4.2990 C   0  0  1  0  0  0  0  0  0  0  0  0
    1.8759  -10.2139    4.1566 N   0  0  0  0  0  0  0  0  0  0  0  0
    1.4701  -11.3134    5.0424 C   0  0  0  0  0  0  0  0  0  0  0  0
    1.3082   -5.7982    2.7597 N   0  0  0  0  0  0  0  0  0  0  0  0
    1.0345   -4.5359    3.3007 O   0  0  0  0  0  0  0  0  0  0  0  0
    2.3191   -1.4974    5.8899 H   0  0  0  0  0  0  0  0  0  0  0  0
    2.5402   -2.0221    4.2267 H   0  0  0  0  0  0  0  0  0  0  0  0
    3.4192   -2.8218    5.5306 H   0  0  0  0  0  0  0  0  0  0  0  0
    1.2358   -3.6706    6.4744 H   0  0  0  0  0  0  0  0  0  0  0  0
    0.3665   -2.8769    5.1766 H   0  0  0  0  0  0  0  0  0  0  0  0
    3.1077   -8.0077    4.3147 H   0  0  0  0  0  0  0  0  0  0  0  0
    2.0489   -7.9944    1.4996 H   0  0  0  0  0  0  0  0  0  0  0  0
    3.6066   -6.2141    0.2457 H   0  0  0  0  0  0  0  0  0  0  0  0
    7.3178   -7.4248    2.6021 H   0  0  0  0  0  0  0  0  0  0  0  0
    2.8315  -10.1598    0.9878 H   0  0  0  0  0  0  0  0  0  0  0  0
    3.8010  -10.2566    2.4537 H   0  0  0  0  0  0  0  0  0  0  0  0
   -0.7631   -9.8526    4.0872 H   0  0  0  0  0  0  0  0  0  0  0  0
    1.0034   -8.6901    5.3480 H   0  0  0  0  0  0  0  0  0  0  0  0
    2.0572  -12.2086    4.8272 H   0  0  0  0  0  0  0  0  0  0  0  0
    0.4187  -11.5765    4.9100 H   0  0  0  0  0  0  0  0  0  0  0  0
    1.6328  -11.0389    6.0812 H   0  0  0  0  0  0  0  0  0  0  0  0
    0.2284   -9.9178    1.4831 H   0  0  0  0  0  0  0  0  0  0  0  0
  1  2  1  0
  1 23  1  0
  1 24  1  0
  1 25  1  0
  2  3  1  0
  2 26  1  0
  2 27  1  0
  3 22  1  0
  3  4  2  0
  4  5  1  0
  5  6  1  0
  5 21  2  0
  6  7  1  0
  6 28  1  1
  6 18  1  0
  7  8  1  0
  7 13  1  0
  7 29  1  6
  8 12  1  0
  8  9  2  0
  9 10  1  0
  9 30  1  0
 10 11  1  0
 11 12  2  0
 11 31  1  0
 13 32  1  0
 13 33  1  0
 13 14  1  0
 14 15  2  0
 14 19  1  0
 15 16  1  0
 15 39  1  0
 16 18  1  0
 16 17  1  0
 16 34  1  1
 18 19  1  0
 18 35  1  1
 19 20  1  0
 20 36  1  0
 20 37  1  0
 20 38  1  0
 21 22  1  0
M  CHG  1  15   1
M  END
>  <i_m_ct_stereo_status>  (335) 
1

>  <s_m_source_file>  (335) 
/var/tmp/pbs.5076255.sched01/tmpk7n3yjou/123nw9z_609.sdf

>  <i_m_source_file_index>  (335) 
25

>  <i_lp_mmshare_version>  (335) 
48012

>  <i_f3d_flags>  (335) 
0

>  <s_epik_input>  (335) 
W0NIM11bQ0gyXWMxbmMobm8xKVtDQEBIXShbQ0BASF0oQyg9TjIpQnIpTjNbQ0gzXSlbQ0BIXShbQ0gyXVtDQEhdMjMpYzRbY0hdc1tjSF1uNA==

>  <s_epik_cmdline>  (335) 
J2VwaWtfcHl0aG9uJywgJy1waHQnLCAnMi4wJywgJy1waCcsICc3LjAnLCAnLXRuJywgJzgnLCAnLW1hJywgJzIwMCcsICctaW1hZScsICc8aW5maWxlLm1hZT4nLCAnLW9tYWUnLCAnPG91dGZpbGUubWFlPic=

>  <r_lp_tautomer_probability>  (335) 
1

>  <r_epik_Ionization_Penalty>  (335) 
1.84154

>  <r_epik_Ionization_Penalty_Charging>  (335) 
1.84152

>  <r_epik_Ionization_Penalty_Neutral>  (335) 
1.35005e-05

>  <r_epik_State_Penalty>  (335) 
1.9583

>  <r_epik_Charging_Adjusted_Penalty>  (335) 
3.79982

>  <i_epik_Tot_Q>  (335) 
1

>  <i_epik_Tot_abs_Q>  (335) 
1

>  <s_epik_Chemistry_Notes>  (335) 
This compound has an imine and may undergo hydrolysis.

>  <s_lp_Force_Field>  (335) 
OPLS3e

>  <r_lp_Energy>  (335) 
62.615

>  <b_lp_Chiralities_Consistent>  (335) 
1

>  <s_lp_Variant>  (335) 
101:0-4

>  <s_i_glide_gridfile>  (335) 
pfpi4k_grid

>  <i_i_glide_lignum>  (335) 
25

>  <i_i_glide_rotatable_bonds>  (335) 
3

>  <r_i_docking_score>  (335) 
-3.22837

>  <r_i_glide_ligand_efficiency>  (335) 
-0.146744

>  <r_i_glide_ligand_efficiency_sa>  (335) 
-0.411182

>  <r_i_glide_ligand_efficiency_ln>  (335) 
-0.78913

>  <r_i_glide_gscore>  (335) 
-3.22837

>  <r_i_glide_lipo>  (335) 
-0.247999

>  <r_i_glide_hbond>  (335) 
0

>  <r_i_glide_metal>  (335) 
-0

>  <r_i_glide_rewards>  (335) 
-0.941592

>  <r_i_glide_evdw>  (335) 
-19.8957

>  <r_i_glide_ecoul>  (335) 
-8.23604

>  <r_i_glide_erotb>  (335) 
0.264524

>  <r_i_glide_esite>  (335) 
-0.0731042

>  <r_i_glide_emodel>  (335) 
-36.0913

>  <r_i_glide_energy>  (335) 
-28.1318

>  <r_i_glide_einternal>  (335) 
0.294482

>  <r_i_glide_intrahb_reward>  (335) 
-0

>  <i_i_glide_confnum>  (335) 
2

>  <i_i_glide_posenum>  (335) 
2

>  <r_i_glide_eff_state_penalty>  (335) 
0

>  <ligand_id>  (335) 
101

>  <original_smiles>  (335) 
CCc1nc(C2C(c3cscn3)CC3N=C(Br)C2N3C)no1

>  <smiles>  (335) 
[H]c1nc(C2([H])C([H])([H])C3=[N+]([H])C([H])(Br)C([H])(N3C([H])([H])[H])C2([H])c2noc(C([H])([H])C([H])([H])[H])n2)c([H])s1

$$$$
101:3:1
     RDKit          3D

 39 42  0  0  1  0  0  0  0  0999 V2000
   -0.0532   -3.2488    6.2327 C   0  0  0  0  0  0  0  0  0  0  0  0
    1.3275   -3.3625    5.5712 C   0  0  0  0  0  0  0  0  0  0  0  0
    1.4866   -4.5632    4.7001 C   0  0  0  0  0  0  0  0  0  0  0  0
    1.9963   -5.7499    5.0288 N   0  0  0  0  0  0  0  0  0  0  0  0
    1.8862   -6.4276    3.8498 C   0  0  0  0  0  0  0  0  0  0  0  0
    2.2841   -7.8733    3.6984 C   0  0  2  0  0  0  0  0  0  0  0  0
    2.8209   -8.2364    2.2513 C   0  0  1  0  0  0  0  0  0  0  0  0
    4.1107   -7.5297    1.8967 C   0  0  0  0  0  0  0  0  0  0  0  0
    4.2892   -6.5358    0.9599 C   0  0  0  0  0  0  0  0  0  0  0  0
    5.9372   -5.9627    0.9058 S   0  0  0  0  0  0  0  0  0  0  0  0
    6.3461   -7.1476    2.1347 C   0  0  0  0  0  0  0  0  0  0  0  0
    5.3012   -7.8603    2.5645 N   0  0  0  0  0  0  0  0  0  0  0  0
    2.9127   -9.7737    2.0290 C   0  0  0  0  0  0  0  0  0  0  0  0
    1.7887  -10.3325    2.8350 C   0  0  0  0  0  0  0  0  0  0  0  0
    0.5248  -10.0334    2.4773 N   0  0  0  0  0  0  0  0  0  0  0  0
   -0.0193   -9.2297    3.5621 C   0  0  2  0  0  0  0  0  0  0  0  0
   -1.1152   -7.7336    2.8434 Br  0  0  0  0  0  0  0  0  0  0  0  0
    1.2704   -8.8992    4.3401 C   0  0  1  0  0  0  0  0  0  0  0  0
    1.9464  -10.1863    4.1580 N   0  0  0  0  0  0  0  0  0  0  0  0
    1.5792  -11.3013    5.0446 C   0  0  0  0  0  0  0  0  0  0  0  0
    1.3138   -5.7491    2.8573 N   0  0  0  0  0  0  0  0  0  0  0  0
    1.0277   -4.5017    3.4282 O   0  0  0  0  0  0  0  0  0  0  0  0
   -0.1063   -2.3491    6.8453 H   0  0  0  0  0  0  0  0  0  0  0  0
   -0.2583   -4.1022    6.8796 H   0  0  0  0  0  0  0  0  0  0  0  0
   -0.8479   -3.1833    5.4894 H   0  0  0  0  0  0  0  0  0  0  0  0
    1.5147   -2.4762    4.9645 H   0  0  0  0  0  0  0  0  0  0  0  0
    2.1036   -3.3897    6.3368 H   0  0  0  0  0  0  0  0  0  0  0  0
    3.1630   -7.9642    4.3405 H   0  0  0  0  0  0  0  0  0  0  0  0
    2.0518   -7.9147    1.5449 H   0  0  0  0  0  0  0  0  0  0  0  0
    3.5629   -6.0871    0.2962 H   0  0  0  0  0  0  0  0  0  0  0  0
    7.3333   -7.3069    2.5493 H   0  0  0  0  0  0  0  0  0  0  0  0
    2.8529  -10.0617    0.9783 H   0  0  0  0  0  0  0  0  0  0  0  0
    3.8464  -10.1744    2.4293 H   0  0  0  0  0  0  0  0  0  0  0  0
   -0.6778   -9.8549    4.1553 H   0  0  0  0  0  0  0  0  0  0  0  0
    1.0868   -8.6927    5.3958 H   0  0  0  0  0  0  0  0  0  0  0  0
    2.1720  -12.1846    4.7986 H   0  0  0  0  0  0  0  0  0  0  0  0
    0.5308  -11.5759    4.9242 H   0  0  0  0  0  0  0  0  0  0  0  0
    1.7583  -11.0459    6.0794 H   0  0  0  0  0  0  0  0  0  0  0  0
    0.2475   -9.8651    1.5152 H   0  0  0  0  0  0  0  0  0  0  0  0
  1  2  1  0
  1 23  1  0
  1 24  1  0
  1 25  1  0
  2  3  1  0
  2 26  1  0
  2 27  1  0
  3 22  1  0
  3  4  2  0
  4  5  1  0
  5  6  1  0
  5 21  2  0
  6  7  1  0
  6 28  1  1
  6 18  1  0
  7  8  1  0
  7 13  1  0
  7 29  1  6
  8 12  1  0
  8  9  2  0
  9 10  1  0
  9 30  1  0
 10 11  1  0
 11 12  2  0
 11 31  1  0
 13 32  1  0
 13 33  1  0
 13 14  1  0
 14 15  2  0
 14 19  1  0
 15 16  1  0
 15 39  1  0
 16 18  1  0
 16 17  1  0
 16 34  1  1
 18 19  1  0
 18 35  1  1
 19 20  1  0
 20 36  1  0
 20 37  1  0
 20 38  1  0
 21 22  1  0
M  CHG  1  15   1
M  END
>  <i_m_ct_stereo_status>  (336) 
1

>  <s_m_source_file>  (336) 
/var/tmp/pbs.5076255.sched01/tmpk7n3yjou/123nw9z_609.sdf

>  <i_m_source_file_index>  (336) 
25

>  <i_lp_mmshare_version>  (336) 
48012

>  <i_f3d_flags>  (336) 
0

>  <s_epik_input>  (336) 
W0NIM11bQ0gyXWMxbmMobm8xKVtDQEBIXShbQ0BASF0oQyg9TjIpQnIpTjNbQ0gzXSlbQ0BIXShbQ0gyXVtDQEhdMjMpYzRbY0hdc1tjSF1uNA==

>  <s_epik_cmdline>  (336) 
J2VwaWtfcHl0aG9uJywgJy1waHQnLCAnMi4wJywgJy1waCcsICc3LjAnLCAnLXRuJywgJzgnLCAnLW1hJywgJzIwMCcsICctaW1hZScsICc8aW5maWxlLm1hZT4nLCAnLW9tYWUnLCAnPG91dGZpbGUubWFlPic=

>  <r_lp_tautomer_probability>  (336) 
1

>  <r_epik_Ionization_Penalty>  (336) 
1.84154

>  <r_epik_Ionization_Penalty_Charging>  (336) 
1.84152

>  <r_epik_Ionization_Penalty_Neutral>  (336) 
1.35005e-05

>  <r_epik_State_Penalty>  (336) 
1.9583

>  <r_epik_Charging_Adjusted_Penalty>  (336) 
3.79982

>  <i_epik_Tot_Q>  (336) 
1

>  <i_epik_Tot_abs_Q>  (336) 
1

>  <s_epik_Chemistry_Notes>  (336) 
This compound has an imine and may undergo hydrolysis.

>  <s_lp_Force_Field>  (336) 
OPLS3e

>  <r_lp_Energy>  (336) 
62.615

>  <b_lp_Chiralities_Consistent>  (336) 
1

>  <s_lp_Variant>  (336) 
101:0-4

>  <s_i_glide_gridfile>  (336) 
pfpi4k_grid

>  <i_i_glide_lignum>  (336) 
25

>  <i_i_glide_rotatable_bonds>  (336) 
3

>  <r_i_docking_score>  (336) 
-3.18755

>  <r_i_glide_ligand_efficiency>  (336) 
-0.144889

>  <r_i_glide_ligand_efficiency_sa>  (336) 
-0.405983

>  <r_i_glide_ligand_efficiency_ln>  (336) 
-0.779153

>  <r_i_glide_gscore>  (336) 
-3.18755

>  <r_i_glide_lipo>  (336) 
-0.258548

>  <r_i_glide_hbond>  (336) 
0

>  <r_i_glide_metal>  (336) 
-0

>  <r_i_glide_rewards>  (336) 
-0.932493

>  <r_i_glide_evdw>  (336) 
-20.6415

>  <r_i_glide_ecoul>  (336) 
-7.73925

>  <r_i_glide_erotb>  (336) 
0.264524

>  <r_i_glide_esite>  (336) 
-0.0680656

>  <r_i_glide_emodel>  (336) 
-36.199

>  <r_i_glide_energy>  (336) 
-28.3808

>  <r_i_glide_einternal>  (336) 
0.337677

>  <r_i_glide_intrahb_reward>  (336) 
-0

>  <i_i_glide_confnum>  (336) 
2

>  <i_i_glide_posenum>  (336) 
38

>  <r_i_glide_eff_state_penalty>  (336) 
0

>  <ligand_id>  (336) 
101

>  <original_smiles>  (336) 
CCc1nc(C2C(c3cscn3)CC3N=C(Br)C2N3C)no1

>  <smiles>  (336) 
[H]c1nc(C2([H])C([H])([H])C3=[N+]([H])C([H])(Br)C([H])(N3C([H])([H])[H])C2([H])c2noc(C([H])([H])C([H])([H])[H])n2)c([H])s1

$$$$
101:3:2
     RDKit          3D

 39 42  0  0  1  0  0  0  0  0999 V2000
    5.9919   -5.2723    0.4875 C   0  0  0  0  0  0  0  0  0  0  0  0
    4.5154   -5.6467    0.3055 C   0  0  0  0  0  0  0  0  0  0  0  0
    3.9987   -6.5780    1.3505 C   0  0  0  0  0  0  0  0  0  0  0  0
    3.8099   -7.8929    1.2502 N   0  0  0  0  0  0  0  0  0  0  0  0
    3.3240   -8.2000    2.4822 C   0  0  0  0  0  0  0  0  0  0  0  0
    2.9916   -9.6109    2.8888 C   0  0  2  0  0  0  0  0  0  0  0  0
    1.8875   -9.7033    4.0204 C   0  0  1  0  0  0  0  0  0  0  0  0
    0.5319   -9.1745    3.6163 C   0  0  0  0  0  0  0  0  0  0  0  0
   -0.2621   -9.6023    2.5651 C   0  0  0  0  0  0  0  0  0  0  0  0
   -1.7808   -8.7436    2.4898 S   0  0  0  0  0  0  0  0  0  0  0  0
   -1.2757   -7.8161    3.8948 C   0  0  0  0  0  0  0  0  0  0  0  0
   -0.0638   -8.1450    4.3541 N   0  0  0  0  0  0  0  0  0  0  0  0
    1.7997  -11.1137    4.6712 C   0  0  0  0  0  0  0  0  0  0  0  0
    3.1964  -11.6339    4.6238 C   0  0  0  0  0  0  0  0  0  0  0  0
    4.1342  -10.9912    5.3523 N   0  0  0  0  0  0  0  0  0  0  0  0
    5.0567  -10.3995    4.3876 C   0  0  2  0  0  0  0  0  0  0  0  0
    5.5960   -8.5729    4.9595 Br  0  0  0  0  0  0  0  0  0  0  0  0
    4.2426  -10.5476    3.0863 C   0  0  1  0  0  0  0  0  0  0  0  0
    3.6395  -11.8526    3.3725 N   0  0  0  0  0  0  0  0  0  0  0  0
    4.4436  -13.0569    3.1133 C   0  0  0  0  0  0  0  0  0  0  0  0
    3.2564   -7.1733    3.3299 N   0  0  0  0  0  0  0  0  0  0  0  0
    3.7132   -6.0843    2.5780 O   0  0  0  0  0  0  0  0  0  0  0  0
    6.3053   -4.5835   -0.2946 H   0  0  0  0  0  0  0  0  0  0  0  0
    6.6374   -6.1488    0.4414 H   0  0  0  0  0  0  0  0  0  0  0  0
    6.1611   -4.7796    1.4449 H   0  0  0  0  0  0  0  0  0  0  0  0
    3.8990   -4.7470    0.3211 H   0  0  0  0  0  0  0  0  0  0  0  0
    4.3705   -6.1130   -0.6694 H   0  0  0  0  0  0  0  0  0  0  0  0
    2.5083  -10.0309    2.0040 H   0  0  0  0  0  0  0  0  0  0  0  0
    2.2445   -9.0747    4.8367 H   0  0  0  0  0  0  0  0  0  0  0  0
   -0.0637  -10.3729    1.8342 H   0  0  0  0  0  0  0  0  0  0  0  0
   -1.8558   -7.0349    4.3774 H   0  0  0  0  0  0  0  0  0  0  0  0
    1.4015  -11.0795    5.6806 H   0  0  0  0  0  0  0  0  0  0  0  0
    1.1621  -11.7779    4.0850 H   0  0  0  0  0  0  0  0  0  0  0  0
    5.9605  -11.0008    4.3359 H   0  0  0  0  0  0  0  0  0  0  0  0
    4.8692  -10.5848    2.1917 H   0  0  0  0  0  0  0  0  0  0  0  0
    3.8581  -13.9372    3.3750 H   0  0  0  0  0  0  0  0  0  0  0  0
    5.3372  -13.0752    3.7392 H   0  0  0  0  0  0  0  0  0  0  0  0
    4.7463  -13.1424    2.0793 H   0  0  0  0  0  0  0  0  0  0  0  0
    3.9346  -10.5341    6.2352 H   0  0  0  0  0  0  0  0  0  0  0  0
  1  2  1  0
  1 23  1  0
  1 24  1  0
  1 25  1  0
  2  3  1  0
  2 26  1  0
  2 27  1  0
  3 22  1  0
  3  4  2  0
  4  5  1  0
  5  6  1  0
  5 21  2  0
  6  7  1  0
  6 28  1  6
  6 18  1  0
  7  8  1  0
  7 13  1  0
  7 29  1  1
  8 12  1  0
  8  9  2  0
  9 10  1  0
  9 30  1  0
 10 11  1  0
 11 12  2  0
 11 31  1  0
 13 32  1  0
 13 33  1  0
 13 14  1  0
 14 15  2  0
 14 19  1  0
 15 16  1  0
 15 39  1  0
 16 18  1  0
 16 17  1  0
 16 34  1  6
 18 19  1  0
 18 35  1  6
 19 20  1  0
 20 36  1  0
 20 37  1  0
 20 38  1  0
 21 22  1  0
M  CHG  1  15   1
M  END
>  <i_m_ct_stereo_status>  (337) 
1

>  <s_m_source_file>  (337) 
/var/tmp/pbs.5076255.sched01/tmpk7n3yjou/123nw9z_609.sdf

>  <i_m_source_file_index>  (337) 
25

>  <i_lp_mmshare_version>  (337) 
48012

>  <i_f3d_flags>  (337) 
0

>  <s_epik_input>  (337) 
W0NIM11bQ0gyXWMxbmMobm8xKVtDQEBIXShbQ0BASF0oQyg9TjIpQnIpTjNbQ0gzXSlbQ0BIXShbQ0gyXVtDQEhdMjMpYzRbY0hdc1tjSF1uNA==

>  <s_epik_cmdline>  (337) 
J2VwaWtfcHl0aG9uJywgJy1waHQnLCAnMi4wJywgJy1waCcsICc3LjAnLCAnLXRuJywgJzgnLCAnLW1hJywgJzIwMCcsICctaW1hZScsICc8aW5maWxlLm1hZT4nLCAnLW9tYWUnLCAnPG91dGZpbGUubWFlPic=

>  <r_lp_tautomer_probability>  (337) 
1

>  <r_epik_Ionization_Penalty>  (337) 
1.84154

>  <r_epik_Ionization_Penalty_Charging>  (337) 
1.84152

>  <r_epik_Ionization_Penalty_Neutral>  (337) 
1.35005e-05

>  <r_epik_State_Penalty>  (337) 
1.9583

>  <r_epik_Charging_Adjusted_Penalty>  (337) 
3.79982

>  <i_epik_Tot_Q>  (337) 
1

>  <i_epik_Tot_abs_Q>  (337) 
1

>  <s_epik_Chemistry_Notes>  (337) 
This compound has an imine and may undergo hydrolysis.

>  <s_lp_Force_Field>  (337) 
OPLS3e

>  <r_lp_Energy>  (337) 
62.615

>  <b_lp_Chiralities_Consistent>  (337) 
1

>  <s_lp_Variant>  (337) 
101:0-4

>  <s_i_glide_gridfile>  (337) 
pfpi4k_grid

>  <i_i_glide_lignum>  (337) 
25

>  <i_i_glide_rotatable_bonds>  (337) 
3

>  <r_i_docking_score>  (337) 
-3.16266

>  <r_i_glide_ligand_efficiency>  (337) 
-0.143757

>  <r_i_glide_ligand_efficiency_sa>  (337) 
-0.402814

>  <r_i_glide_ligand_efficiency_ln>  (337) 
-0.77307

>  <r_i_glide_gscore>  (337) 
-3.16266

>  <r_i_glide_lipo>  (337) 
-0.476609

>  <r_i_glide_hbond>  (337) 
0

>  <r_i_glide_metal>  (337) 
-0

>  <r_i_glide_rewards>  (337) 
-0.795766

>  <r_i_glide_evdw>  (337) 
-23.4401

>  <r_i_glide_ecoul>  (337) 
-5.83535

>  <r_i_glide_erotb>  (337) 
0.264524

>  <r_i_glide_esite>  (337) 
-0.107503

>  <r_i_glide_emodel>  (337) 
-36.0313

>  <r_i_glide_energy>  (337) 
-29.2754

>  <r_i_glide_einternal>  (337) 
2.30077

>  <r_i_glide_intrahb_reward>  (337) 
-0

>  <i_i_glide_confnum>  (337) 
2

>  <i_i_glide_posenum>  (337) 
36

>  <r_i_glide_eff_state_penalty>  (337) 
0

>  <ligand_id>  (337) 
101

>  <original_smiles>  (337) 
CCc1nc(C2C(c3cscn3)CC3N=C(Br)C2N3C)no1

>  <smiles>  (337) 
[H]c1nc(C2([H])C([H])([H])C3=[N+]([H])C([H])(Br)C([H])(N3C([H])([H])[H])C2([H])c2noc(C([H])([H])C([H])([H])[H])n2)c([H])s1

$$$$
103:0:0
     RDKit          3D

 39 42  0  0  1  0  0  0  0  0999 V2000
    0.3132   -9.1229    2.8073 C   0  0  0  0  0  0  0  0  0  0  0  0
    0.9199   -7.9223    2.1718 C   0  0  0  0  0  0  0  0  0  0  0  0
    2.0514   -7.2060    2.4163 C   0  0  0  0  0  0  0  0  0  0  0  0
    2.0270   -6.1998    1.4133 C   0  0  0  0  0  0  0  0  0  0  0  0
    3.0879   -5.1568    1.3352 C   0  0  0  0  0  0  0  0  0  0  0  0
    3.6282   -4.7348    2.3588 O   0  0  0  0  0  0  0  0  0  0  0  0
    3.3741   -4.7586    0.0834 N   0  0  0  0  0  0  0  0  0  0  0  0
    4.2847   -3.6858   -0.3222 C   0  0  2  0  0  0  0  0  0  0  0  0
    3.7856   -2.3193    0.2186 C   0  0  0  0  0  0  0  0  0  0  0  0
    4.7406   -1.1997   -0.2343 C   0  0  1  0  0  0  0  0  0  0  0  0
    6.1572   -1.4955    0.3056 C   0  0  0  0  0  0  0  0  0  0  0  0
    6.6648   -2.8343   -0.2800 C   0  0  2  0  0  0  0  0  0  0  0  0
    6.6801   -2.7822   -1.8215 C   0  0  0  0  0  0  0  0  0  0  0  0
    5.2557   -2.4867   -2.3350 C   0  0  2  0  0  0  0  0  0  0  0  0
    4.7669   -1.1332   -1.7750 C   0  0  0  0  0  0  0  0  0  0  0  0
    4.3035   -3.6113   -1.8724 C   0  0  0  0  0  0  0  0  0  0  0  0
    5.7297   -3.9655    0.1745 C   0  0  0  0  0  0  0  0  0  0  0  0
    0.9442   -6.2627    0.6574 N   0  0  0  0  0  0  0  0  0  0  0  0
    0.2349   -7.3672    1.1352 O   0  0  0  0  0  0  0  0  0  0  0  0
    0.9320   -9.4887    3.6272 H   0  0  0  0  0  0  0  0  0  0  0  0
    0.2086   -9.9265    2.0808 H   0  0  0  0  0  0  0  0  0  0  0  0
   -0.6761   -8.8865    3.1958 H   0  0  0  0  0  0  0  0  0  0  0  0
    2.7931   -7.3742    3.1860 H   0  0  0  0  0  0  0  0  0  0  0  0
    2.8946   -5.2451   -0.6645 H   0  0  0  0  0  0  0  0  0  0  0  0
    2.7725   -2.1179   -0.1355 H   0  0  0  0  0  0  0  0  0  0  0  0
    3.7318   -2.3185    1.3074 H   0  0  0  0  0  0  0  0  0  0  0  0
    4.3868   -0.2478    0.1630 H   0  0  0  0  0  0  0  0  0  0  0  0
    6.8383   -0.6798    0.0707 H   0  0  0  0  0  0  0  0  0  0  0  0
    6.1297   -1.5532    1.3945 H   0  0  0  0  0  0  0  0  0  0  0  0
    7.6690   -3.0361    0.0919 H   0  0  0  0  0  0  0  0  0  0  0  0
    7.3860   -2.0356   -2.1769 H   0  0  0  0  0  0  0  0  0  0  0  0
    7.0276   -3.7323   -2.2257 H   0  0  0  0  0  0  0  0  0  0  0  0
    5.2668   -2.4469   -3.4243 H   0  0  0  0  0  0  0  0  0  0  0  0
    3.7701   -0.9060   -2.1562 H   0  0  0  0  0  0  0  0  0  0  0  0
    5.4135   -0.3227   -2.1084 H   0  0  0  0  0  0  0  0  0  0  0  0
    4.6265   -4.5632   -2.2974 H   0  0  0  0  0  0  0  0  0  0  0  0
    3.2994   -3.4306   -2.2625 H   0  0  0  0  0  0  0  0  0  0  0  0
    5.7804   -4.0260    1.2610 H   0  0  0  0  0  0  0  0  0  0  0  0
    6.0783   -4.9276   -0.2042 H   0  0  0  0  0  0  0  0  0  0  0  0
  1  2  1  0
  1 20  1  0
  1 21  1  0
  1 22  1  0
  2 19  1  0
  2  3  2  0
  3  4  1  0
  3 23  1  0
  4  5  1  0
  4 18  2  0
  5  6  2  0
  5  7  1  0
  8  7  1  6
  7 24  1  0
  8 16  1  0
  8 17  1  0
  8  9  1  0
  9 10  1  0
  9 25  1  0
  9 26  1  0
 10 15  1  0
 10 11  1  0
 10 27  1  1
 11 12  1  0
 11 28  1  0
 11 29  1  0
 12 13  1  0
 12 17  1  0
 12 30  1  1
 13 14  1  0
 13 31  1  0
 13 32  1  0
 14 15  1  0
 14 16  1  0
 14 33  1  6
 15 34  1  0
 15 35  1  0
 16 36  1  0
 16 37  1  0
 17 38  1  0
 17 39  1  0
 18 19  1  0
M  END
>  <i_m_ct_stereo_status>  (338) 
1

>  <s_m_source_file>  (338) 
/var/tmp/pbs.5076255.sched01/tmpk7n3yjou/123nw9z_609.sdf

>  <i_m_source_file_index>  (338) 
27

>  <i_lp_mmshare_version>  (338) 
48012

>  <i_f3d_flags>  (338) 
0

>  <s_epik_input>  (338) 
W0NIM11jMVtjSF1jKG5vMSlDKD1PKVtOSF1DMjNbQ0gyXVtDQEBIXTRbQ0gyXVtDQEhdKFtDSDJdMylbQ0gyXVtDQEBIXShbQ0gyXTQpW0NIMl0y

>  <s_epik_cmdline>  (338) 
J2VwaWtfcHl0aG9uJywgJy1waHQnLCAnMi4wJywgJy1waCcsICc3LjAnLCAnLXRuJywgJzgnLCAnLW1hJywgJzIwMCcsICctaW1hZScsICc8aW5maWxlLm1hZT4nLCAnLW9tYWUnLCAnPG91dGZpbGUubWFlPic=

>  <r_lp_tautomer_probability>  (338) 
1

>  <r_epik_Ionization_Penalty>  (338) 
2.04548e-06

>  <r_epik_Ionization_Penalty_Charging>  (338) 
0

>  <r_epik_Ionization_Penalty_Neutral>  (338) 
2.04548e-06

>  <r_epik_State_Penalty>  (338) 
-0

>  <r_epik_Charging_Adjusted_Penalty>  (338) 
0

>  <i_epik_Tot_Q>  (338) 
0

>  <i_epik_Tot_abs_Q>  (338) 
0

>  <s_lp_Force_Field>  (338) 
OPLS3e

>  <r_lp_Energy>  (338) 
-3.87179

>  <b_lp_Chiralities_Consistent>  (338) 
1

>  <s_lp_Variant>  (338) 
103:0-1

>  <s_i_glide_gridfile>  (338) 
pfpi4k_grid

>  <i_i_glide_lignum>  (338) 
27

>  <i_i_glide_rotatable_bonds>  (338) 
3

>  <r_i_docking_score>  (338) 
-3.49072

>  <r_i_glide_ligand_efficiency>  (338) 
-0.183722

>  <r_i_glide_ligand_efficiency_sa>  (338) 
-0.490244

>  <r_i_glide_ligand_efficiency_ln>  (338) 
-0.884971

>  <r_i_glide_gscore>  (338) 
-3.49072

>  <r_i_glide_lipo>  (338) 
-0.274985

>  <r_i_glide_hbond>  (338) 
-0.250447

>  <r_i_glide_metal>  (338) 
-0

>  <r_i_glide_rewards>  (338) 
-1.6341

>  <r_i_glide_evdw>  (338) 
-21.9255

>  <r_i_glide_ecoul>  (338) 
-5.32592

>  <r_i_glide_erotb>  (338) 
0.783535

>  <r_i_glide_esite>  (338) 
-0.219551

>  <r_i_glide_emodel>  (338) 
-32.5414

>  <r_i_glide_energy>  (338) 
-27.2515

>  <r_i_glide_einternal>  (338) 
1.81932

>  <r_i_glide_intrahb_reward>  (338) 
-0

>  <i_i_glide_confnum>  (338) 
2

>  <i_i_glide_posenum>  (338) 
12

>  <r_i_glide_eff_state_penalty>  (338) 
0

>  <ligand_id>  (338) 
103

>  <original_smiles>  (338) 
Cc1cc(C(=O)NC23CC4CC(CC(C4)C2)C3)no1

>  <smiles>  (338) 
[H]c1c(C(=O)N([H])C23C([H])([H])C4([H])C([H])([H])C([H])(C([H])([H])C([H])(C4([H])[H])C2([H])[H])C3([H])[H])noc1C([H])([H])[H]

$$$$
103:0:1
     RDKit          3D

 39 42  0  0  1  0  0  0  0  0999 V2000
    3.3594    0.8065   -4.9666 C   0  0  0  0  0  0  0  0  0  0  0  0
    3.6756   -0.3963   -4.1520 C   0  0  0  0  0  0  0  0  0  0  0  0
    4.2147   -0.5960   -2.9247 C   0  0  0  0  0  0  0  0  0  0  0  0
    4.2153   -2.0098   -2.7976 C   0  0  0  0  0  0  0  0  0  0  0  0
    4.7578   -2.6560   -1.5751 C   0  0  0  0  0  0  0  0  0  0  0  0
    5.8824   -2.3552   -1.1741 O   0  0  0  0  0  0  0  0  0  0  0  0
    3.9056   -3.5063   -0.9823 N   0  0  0  0  0  0  0  0  0  0  0  0
    4.1433   -4.3296    0.2014 C   0  0  2  0  0  0  0  0  0  0  0  0
    4.5012   -3.4504    1.4297 C   0  0  0  0  0  0  0  0  0  0  0  0
    4.7288   -4.3423    2.6613 C   0  0  1  0  0  0  0  0  0  0  0  0
    3.4347   -5.1160    2.9731 C   0  0  0  0  0  0  0  0  0  0  0  0
    3.0754   -6.0135    1.7698 C   0  0  2  0  0  0  0  0  0  0  0  0
    4.2194   -7.0097    1.4847 C   0  0  0  0  0  0  0  0  0  0  0  0
    5.5075   -6.2266    1.1723 C   0  0  2  0  0  0  0  0  0  0  0  0
    5.8785   -5.3339    2.3762 C   0  0  0  0  0  0  0  0  0  0  0  0
    5.2805   -5.3457   -0.0705 C   0  0  0  0  0  0  0  0  0  0  0  0
    2.8504   -5.1271    0.5243 C   0  0  0  0  0  0  0  0  0  0  0  0
    3.7592   -2.6265   -3.8712 N   0  0  0  0  0  0  0  0  0  0  0  0
    3.4154   -1.5847   -4.7181 O   0  0  0  0  0  0  0  0  0  0  0  0
    3.6100    1.7213   -4.4299 H   0  0  0  0  0  0  0  0  0  0  0  0
    2.2985    0.8239   -5.2153 H   0  0  0  0  0  0  0  0  0  0  0  0
    3.9194    0.7933   -5.8990 H   0  0  0  0  0  0  0  0  0  0  0  0
    4.5560    0.1421   -2.2214 H   0  0  0  0  0  0  0  0  0  0  0  0
    3.0138   -3.6104   -1.4438 H   0  0  0  0  0  0  0  0  0  0  0  0
    5.4110   -2.8749    1.2688 H   0  0  0  0  0  0  0  0  0  0  0  0
    3.7064   -2.7276    1.6227 H   0  0  0  0  0  0  0  0  0  0  0  0
    4.9962   -3.7104    3.5085 H   0  0  0  0  0  0  0  0  0  0  0  0
    3.5583   -5.7143    3.8773 H   0  0  0  0  0  0  0  0  0  0  0  0
    2.6247   -4.4108    3.1682 H   0  0  0  0  0  0  0  0  0  0  0  0
    2.1655   -6.5694    1.9965 H   0  0  0  0  0  0  0  0  0  0  0  0
    4.3768   -7.6719    2.3381 H   0  0  0  0  0  0  0  0  0  0  0  0
    3.9573   -7.6468    0.6386 H   0  0  0  0  0  0  0  0  0  0  0  0
    6.3202   -6.9277    0.9774 H   0  0  0  0  0  0  0  0  0  0  0  0
    6.8010   -4.7912    2.1652 H   0  0  0  0  0  0  0  0  0  0  0  0
    6.0752   -5.9488    3.2566 H   0  0  0  0  0  0  0  0  0  0  0  0
    5.0175   -5.9612   -0.9323 H   0  0  0  0  0  0  0  0  0  0  0  0
    6.2160   -4.8431   -0.3117 H   0  0  0  0  0  0  0  0  0  0  0  0
    2.0186   -4.4466    0.7072 H   0  0  0  0  0  0  0  0  0  0  0  0
    2.5572   -5.7544   -0.3208 H   0  0  0  0  0  0  0  0  0  0  0  0
  1  2  1  0
  1 20  1  0
  1 21  1  0
  1 22  1  0
  2 19  1  0
  2  3  2  0
  3  4  1  0
  3 23  1  0
  4  5  1  0
  4 18  2  0
  5  6  2  0
  5  7  1  0
  8  7  1  6
  7 24  1  0
  8 16  1  0
  8 17  1  0
  8  9  1  0
  9 10  1  0
  9 25  1  0
  9 26  1  0
 10 15  1  0
 10 11  1  0
 10 27  1  1
 11 12  1  0
 11 28  1  0
 11 29  1  0
 12 13  1  0
 12 17  1  0
 12 30  1  1
 13 14  1  0
 13 31  1  0
 13 32  1  0
 14 15  1  0
 14 16  1  0
 14 33  1  6
 15 34  1  0
 15 35  1  0
 16 36  1  0
 16 37  1  0
 17 38  1  0
 17 39  1  0
 18 19  1  0
M  END
>  <i_m_ct_stereo_status>  (339) 
1

>  <s_m_source_file>  (339) 
/var/tmp/pbs.5076255.sched01/tmpk7n3yjou/123nw9z_609.sdf

>  <i_m_source_file_index>  (339) 
27

>  <i_lp_mmshare_version>  (339) 
48012

>  <i_f3d_flags>  (339) 
0

>  <s_epik_input>  (339) 
W0NIM11jMVtjSF1jKG5vMSlDKD1PKVtOSF1DMjNbQ0gyXVtDQEBIXTRbQ0gyXVtDQEhdKFtDSDJdMylbQ0gyXVtDQEBIXShbQ0gyXTQpW0NIMl0y

>  <s_epik_cmdline>  (339) 
J2VwaWtfcHl0aG9uJywgJy1waHQnLCAnMi4wJywgJy1waCcsICc3LjAnLCAnLXRuJywgJzgnLCAnLW1hJywgJzIwMCcsICctaW1hZScsICc8aW5maWxlLm1hZT4nLCAnLW9tYWUnLCAnPG91dGZpbGUubWFlPic=

>  <r_lp_tautomer_probability>  (339) 
1

>  <r_epik_Ionization_Penalty>  (339) 
2.04548e-06

>  <r_epik_Ionization_Penalty_Charging>  (339) 
0

>  <r_epik_Ionization_Penalty_Neutral>  (339) 
2.04548e-06

>  <r_epik_State_Penalty>  (339) 
-0

>  <r_epik_Charging_Adjusted_Penalty>  (339) 
0

>  <i_epik_Tot_Q>  (339) 
0

>  <i_epik_Tot_abs_Q>  (339) 
0

>  <s_lp_Force_Field>  (339) 
OPLS3e

>  <r_lp_Energy>  (339) 
-3.87179

>  <b_lp_Chiralities_Consistent>  (339) 
1

>  <s_lp_Variant>  (339) 
103:0-1

>  <s_i_glide_gridfile>  (339) 
pfpi4k_grid

>  <i_i_glide_lignum>  (339) 
27

>  <i_i_glide_rotatable_bonds>  (339) 
3

>  <r_i_docking_score>  (339) 
-3.42748

>  <r_i_glide_ligand_efficiency>  (339) 
-0.180394

>  <r_i_glide_ligand_efficiency_sa>  (339) 
-0.481362

>  <r_i_glide_ligand_efficiency_ln>  (339) 
-0.868939

>  <r_i_glide_gscore>  (339) 
-3.42748

>  <r_i_glide_lipo>  (339) 
-0.777777

>  <r_i_glide_hbond>  (339) 
0

>  <r_i_glide_metal>  (339) 
-0

>  <r_i_glide_rewards>  (339) 
-1.6341

>  <r_i_glide_evdw>  (339) 
-23.7352

>  <r_i_glide_ecoul>  (339) 
-3.56744

>  <r_i_glide_erotb>  (339) 
0.783535

>  <r_i_glide_esite>  (339) 
-0.0772569

>  <r_i_glide_emodel>  (339) 
-31.9057

>  <r_i_glide_energy>  (339) 
-27.3026

>  <r_i_glide_einternal>  (339) 
2.80429

>  <r_i_glide_intrahb_reward>  (339) 
-0

>  <i_i_glide_confnum>  (339) 
4

>  <i_i_glide_posenum>  (339) 
2

>  <r_i_glide_eff_state_penalty>  (339) 
0

>  <ligand_id>  (339) 
103

>  <original_smiles>  (339) 
Cc1cc(C(=O)NC23CC4CC(CC(C4)C2)C3)no1

>  <smiles>  (339) 
[H]c1c(C(=O)N([H])C23C([H])([H])C4([H])C([H])([H])C([H])(C([H])([H])C([H])(C4([H])[H])C2([H])[H])C3([H])[H])noc1C([H])([H])[H]

$$$$
103:0:2
     RDKit          3D

 39 42  0  0  1  0  0  0  0  0999 V2000
    2.5779   -9.6139    2.6936 C   0  0  0  0  0  0  0  0  0  0  0  0
    2.4005   -8.2660    2.1008 C   0  0  0  0  0  0  0  0  0  0  0  0
    3.2676   -7.3848    1.5271 C   0  0  0  0  0  0  0  0  0  0  0  0
    2.4345   -6.2808    1.1918 C   0  0  0  0  0  0  0  0  0  0  0  0
    2.9772   -5.0771    0.4845 C   0  0  0  0  0  0  0  0  0  0  0  0
    2.2170   -4.3275   -0.1243 O   0  0  0  0  0  0  0  0  0  0  0  0
    4.2991   -4.8802    0.6151 N   0  0  0  0  0  0  0  0  0  0  0  0
    5.0809   -3.7815    0.0446 C   0  0  2  0  0  0  0  0  0  0  0  0
    4.9882   -3.7863   -1.5057 C   0  0  0  0  0  0  0  0  0  0  0  0
    5.8345   -2.6376   -2.0817 C   0  0  1  0  0  0  0  0  0  0  0  0
    5.2975   -1.2979   -1.5290 C   0  0  0  0  0  0  0  0  0  0  0  0
    5.4423   -1.2781    0.0094 C   0  0  2  0  0  0  0  0  0  0  0  0
    6.9131   -1.4841    0.4255 C   0  0  0  0  0  0  0  0  0  0  0  0
    7.4220   -2.8283   -0.1366 C   0  0  2  0  0  0  0  0  0  0  0  0
    7.3109   -2.8308   -1.6767 C   0  0  0  0  0  0  0  0  0  0  0  0
    6.5652   -3.9770    0.4442 C   0  0  0  0  0  0  0  0  0  0  0  0
    4.5934   -2.4150    0.6026 C   0  0  0  0  0  0  0  0  0  0  0  0
    1.1633   -6.4964    1.5018 N   0  0  0  0  0  0  0  0  0  0  0  0
    1.1398   -7.7622    2.0987 O   0  0  0  0  0  0  0  0  0  0  0  0
    3.6149   -9.9416    2.6238 H   0  0  0  0  0  0  0  0  0  0  0  0
    1.9529  -10.3378    2.1754 H   0  0  0  0  0  0  0  0  0  0  0  0
    2.2905   -9.5995    3.7432 H   0  0  0  0  0  0  0  0  0  0  0  0
    4.3264   -7.5269    1.3641 H   0  0  0  0  0  0  0  0  0  0  0  0
    4.8074   -5.5652    1.1592 H   0  0  0  0  0  0  0  0  0  0  0  0
    5.3236   -4.7424   -1.9044 H   0  0  0  0  0  0  0  0  0  0  0  0
    3.9635   -3.6633   -1.8529 H   0  0  0  0  0  0  0  0  0  0  0  0
    5.7475   -2.6538   -3.1679 H   0  0  0  0  0  0  0  0  0  0  0  0
    5.8155   -0.4528   -1.9747 H   0  0  0  0  0  0  0  0  0  0  0  0
    4.2470   -1.1785   -1.8031 H   0  0  0  0  0  0  0  0  0  0  0  0
    5.0812   -0.3235    0.3940 H   0  0  0  0  0  0  0  0  0  0  0  0
    7.5344   -0.6610    0.0838 H   0  0  0  0  0  0  0  0  0  0  0  0
    6.9933   -1.4768    1.5122 H   0  0  0  0  0  0  0  0  0  0  0  0
    8.4657   -2.9674    0.1493 H   0  0  0  0  0  0  0  0  0  0  0  0
    7.6938   -3.7657   -2.0834 H   0  0  0  0  0  0  0  0  0  0  0  0
    7.9401   -2.0592   -2.1153 H   0  0  0  0  0  0  0  0  0  0  0  0
    6.6727   -4.0026    1.5308 H   0  0  0  0  0  0  0  0  0  0  0  0
    6.9390   -4.9356    0.0799 H   0  0  0  0  0  0  0  0  0  0  0  0
    3.5520   -2.2193    0.3510 H   0  0  0  0  0  0  0  0  0  0  0  0
    4.6532   -2.4038    1.6921 H   0  0  0  0  0  0  0  0  0  0  0  0
  1  2  1  0
  1 20  1  0
  1 21  1  0
  1 22  1  0
  2 19  1  0
  2  3  2  0
  3  4  1  0
  3 23  1  0
  4  5  1  0
  4 18  2  0
  5  6  2  0
  5  7  1  0
  8  7  1  1
  7 24  1  0
  8 16  1  0
  8 17  1  0
  8  9  1  0
  9 10  1  0
  9 25  1  0
  9 26  1  0
 10 15  1  0
 10 11  1  0
 10 27  1  6
 11 12  1  0
 11 28  1  0
 11 29  1  0
 12 13  1  0
 12 17  1  0
 12 30  1  1
 13 14  1  0
 13 31  1  0
 13 32  1  0
 14 15  1  0
 14 16  1  0
 14 33  1  6
 15 34  1  0
 15 35  1  0
 16 36  1  0
 16 37  1  0
 17 38  1  0
 17 39  1  0
 18 19  1  0
M  END
>  <i_m_ct_stereo_status>  (340) 
1

>  <s_m_source_file>  (340) 
/var/tmp/pbs.5076255.sched01/tmpk7n3yjou/123nw9z_609.sdf

>  <i_m_source_file_index>  (340) 
27

>  <i_lp_mmshare_version>  (340) 
48012

>  <i_f3d_flags>  (340) 
0

>  <s_epik_input>  (340) 
W0NIM11jMVtjSF1jKG5vMSlDKD1PKVtOSF1DMjNbQ0gyXVtDQEBIXTRbQ0gyXVtDQEhdKFtDSDJdMylbQ0gyXVtDQEBIXShbQ0gyXTQpW0NIMl0y

>  <s_epik_cmdline>  (340) 
J2VwaWtfcHl0aG9uJywgJy1waHQnLCAnMi4wJywgJy1waCcsICc3LjAnLCAnLXRuJywgJzgnLCAnLW1hJywgJzIwMCcsICctaW1hZScsICc8aW5maWxlLm1hZT4nLCAnLW9tYWUnLCAnPG91dGZpbGUubWFlPic=

>  <r_lp_tautomer_probability>  (340) 
1

>  <r_epik_Ionization_Penalty>  (340) 
2.04548e-06

>  <r_epik_Ionization_Penalty_Charging>  (340) 
0

>  <r_epik_Ionization_Penalty_Neutral>  (340) 
2.04548e-06

>  <r_epik_State_Penalty>  (340) 
-0

>  <r_epik_Charging_Adjusted_Penalty>  (340) 
0

>  <i_epik_Tot_Q>  (340) 
0

>  <i_epik_Tot_abs_Q>  (340) 
0

>  <s_lp_Force_Field>  (340) 
OPLS3e

>  <r_lp_Energy>  (340) 
-3.87179

>  <b_lp_Chiralities_Consistent>  (340) 
1

>  <s_lp_Variant>  (340) 
103:0-1

>  <s_i_glide_gridfile>  (340) 
pfpi4k_grid

>  <i_i_glide_lignum>  (340) 
27

>  <i_i_glide_rotatable_bonds>  (340) 
3

>  <r_i_docking_score>  (340) 
-2.55157

>  <r_i_glide_ligand_efficiency>  (340) 
-0.134293

>  <r_i_glide_ligand_efficiency_sa>  (340) 
-0.358348

>  <r_i_glide_ligand_efficiency_ln>  (340) 
-0.646877

>  <r_i_glide_gscore>  (340) 
-2.55157

>  <r_i_glide_lipo>  (340) 
-0.310863

>  <r_i_glide_hbond>  (340) 
-0.000201791

>  <r_i_glide_metal>  (340) 
-0

>  <r_i_glide_rewards>  (340) 
-1.6341

>  <r_i_glide_evdw>  (340) 
-21.5948

>  <r_i_glide_ecoul>  (340) 
-1.17739

>  <r_i_glide_erotb>  (340) 
0.783535

>  <r_i_glide_esite>  (340) 
-0.133583

>  <r_i_glide_emodel>  (340) 
-27.27

>  <r_i_glide_energy>  (340) 
-22.7722

>  <r_i_glide_einternal>  (340) 
0.0398027

>  <r_i_glide_intrahb_reward>  (340) 
-0

>  <i_i_glide_confnum>  (340) 
1

>  <i_i_glide_posenum>  (340) 
22

>  <r_i_glide_eff_state_penalty>  (340) 
0

>  <ligand_id>  (340) 
103

>  <original_smiles>  (340) 
Cc1cc(C(=O)NC23CC4CC(CC(C4)C2)C3)no1

>  <smiles>  (340) 
[H]c1c(C(=O)N([H])C23C([H])([H])C4([H])C([H])([H])C([H])(C([H])([H])C([H])(C4([H])[H])C2([H])[H])C3([H])[H])noc1C([H])([H])[H]

$$$$
104:0:0
     RDKit          3D

 29 31  0  0  1  0  0  0  0  0999 V2000
   -6.5539   -4.8700   -4.4798 C   0  0  0  0  0  0  0  0  0  0  0  0
   -7.0878   -6.0440   -5.3221 C   0  0  2  0  0  0  0  0  0  0  0  0
   -6.0066   -7.1040   -5.5860 C   0  0  0  0  0  0  0  0  0  0  0  0
   -6.5494   -8.4794   -6.0198 C   0  0  0  0  0  0  0  0  0  0  0  0
   -7.4005   -8.5091   -7.3074 C   0  0  2  0  0  0  0  0  0  0  0  0
   -7.8328   -9.9450   -7.6422 C   0  0  0  0  0  0  0  0  0  0  0  0
   -6.6725   -7.9747   -8.4049 O   0  0  0  0  0  0  0  0  0  0  0  0
   -7.4110   -6.7277   -8.7663 O   0  0  0  0  0  0  0  0  0  0  0  0
   -8.2633   -6.5259   -7.6761 C   0  0  2  0  0  0  0  0  0  0  0  0
   -9.4417   -5.5782   -7.9178 C   0  0  0  0  0  0  0  0  0  0  0  0
   -9.1515   -4.9430   -6.5554 C   0  0  0  0  0  0  0  0  0  0  0  0
   -7.7516   -5.5512   -6.6089 C   0  0  1  0  0  0  0  0  0  0  0  0
   -8.5798   -7.7696   -7.1244 O   0  0  0  0  0  0  0  0  0  0  0  0
   -5.7280   -4.3553   -4.9698 H   0  0  0  0  0  0  0  0  0  0  0  0
   -6.1954   -5.2248   -3.5169 H   0  0  0  0  0  0  0  0  0  0  0  0
   -7.3334   -4.1339   -4.2819 H   0  0  0  0  0  0  0  0  0  0  0  0
   -7.8550   -6.5260   -4.7187 H   0  0  0  0  0  0  0  0  0  0  0  0
   -5.2961   -6.7348   -6.3193 H   0  0  0  0  0  0  0  0  0  0  0  0
   -5.4349   -7.2516   -4.6726 H   0  0  0  0  0  0  0  0  0  0  0  0
   -5.7045   -9.1468   -6.1532 H   0  0  0  0  0  0  0  0  0  0  0  0
   -7.1353   -8.9005   -5.2061 H   0  0  0  0  0  0  0  0  0  0  0  0
   -8.4476   -9.9689   -8.5422 H   0  0  0  0  0  0  0  0  0  0  0  0
   -8.4188  -10.3833   -6.8352 H   0  0  0  0  0  0  0  0  0  0  0  0
   -6.9694  -10.5814   -7.8117 H   0  0  0  0  0  0  0  0  0  0  0  0
   -9.2501   -4.8724   -8.7283 H   0  0  0  0  0  0  0  0  0  0  0  0
  -10.4220   -6.0491   -7.9730 H   0  0  0  0  0  0  0  0  0  0  0  0
   -9.1577   -3.8526   -6.5383 H   0  0  0  0  0  0  0  0  0  0  0  0
   -9.7532   -5.3647   -5.7501 H   0  0  0  0  0  0  0  0  0  0  0  0
   -7.1272   -4.8309   -7.1181 H   0  0  0  0  0  0  0  0  0  0  0  0
  1  2  1  0
  1 14  1  0
  1 15  1  0
  1 16  1  0
  2 12  1  0
  2  3  1  0
  2 17  1  1
  3  4  1  0
  3 18  1  0
  3 19  1  0
  4  5  1  0
  4 20  1  0
  4 21  1  0
  5 13  1  0
  5  6  1  6
  5  7  1  0
  6 22  1  0
  6 23  1  0
  6 24  1  0
  7  8  1  0
  9  8  1  6
  9 12  1  0
  9 10  1  0
  9 13  1  0
 10 11  1  0
 10 25  1  0
 10 26  1  0
 11 12  1  0
 11 27  1  0
 11 28  1  0
 12 29  1  6
M  END
>  <i_m_ct_stereo_status>  (341) 
1

>  <s_m_source_file>  (341) 
/var/tmp/pbs.5076255.sched01/tmpk7n3yjou/123nw9z_609.sdf

>  <i_m_source_file_index>  (341) 
28

>  <i_lp_mmshare_version>  (341) 
48012

>  <i_f3d_flags>  (341) 
0

>  <s_epik_input>  (341) 
W0NIMl0xW0NIMl1bQ0BIXShbQ0BAXTEyMylbQ0BIXShbQ0gzXSlbQ0gyXVtDSDJdW0NAXShPMykoW0NIM10pT08y

>  <s_epik_cmdline>  (341) 
J2VwaWtfcHl0aG9uJywgJy1waHQnLCAnMi4wJywgJy1waCcsICc3LjAnLCAnLXRuJywgJzgnLCAnLW1hJywgJzIwMCcsICctaW1hZScsICc8aW5maWxlLm1hZT4nLCAnLW9tYWUnLCAnPG91dGZpbGUubWFlPic=

>  <r_lp_tautomer_probability>  (341) 
1

>  <r_epik_Ionization_Penalty>  (341) 
1.05247e-15

>  <r_epik_Ionization_Penalty_Charging>  (341) 
0

>  <r_epik_Ionization_Penalty_Neutral>  (341) 
1.05247e-15

>  <r_epik_State_Penalty>  (341) 
-0

>  <r_epik_Charging_Adjusted_Penalty>  (341) 
0

>  <i_epik_Tot_Q>  (341) 
0

>  <i_epik_Tot_abs_Q>  (341) 
0

>  <s_lp_Force_Field>  (341) 
OPLS3e

>  <r_lp_Energy>  (341) 
12.7738

>  <b_lp_Chiralities_Consistent>  (341) 
1

>  <s_lp_Variant>  (341) 
104:0-1

>  <s_i_glide_gridfile>  (341) 
pfpi4k_grid

>  <i_i_glide_lignum>  (341) 
28

>  <i_i_glide_rotatable_bonds>  (341) 
0

>  <r_i_docking_score>  (341) 
-5.80262

>  <r_i_glide_ligand_efficiency>  (341) 
-0.446355

>  <r_i_glide_ligand_efficiency_sa>  (341) 
-1.04953

>  <r_i_glide_ligand_efficiency_ln>  (341) 
-1.62769

>  <r_i_glide_gscore>  (341) 
-5.80262

>  <r_i_glide_lipo>  (341) 
-1.87077

>  <r_i_glide_hbond>  (341) 
0

>  <r_i_glide_metal>  (341) 
-0

>  <r_i_glide_rewards>  (341) 
-3.15267

>  <r_i_glide_evdw>  (341) 
-16.4547

>  <r_i_glide_ecoul>  (341) 
0.290347

>  <r_i_glide_erotb>  (341) 
0

>  <r_i_glide_esite>  (341) 
0

>  <r_i_glide_emodel>  (341) 
-23.4128

>  <r_i_glide_energy>  (341) 
-16.1643

>  <r_i_glide_einternal>  (341) 
0

>  <r_i_glide_intrahb_reward>  (341) 
-0

>  <i_i_glide_confnum>  (341) 
1

>  <i_i_glide_posenum>  (341) 
28

>  <r_i_glide_eff_state_penalty>  (341) 
0

>  <ligand_id>  (341) 
104

>  <original_smiles>  (341) 
CC1CCC2(C)OOC3(CCC13)O2

>  <smiles>  (341) 
[H]C([H])([H])C12OOC3(O1)C([H])([H])C([H])([H])C3([H])C([H])(C([H])([H])[H])C([H])([H])C2([H])[H]

$$$$
104:0:1
     RDKit          3D

 29 31  0  0  1  0  0  0  0  0999 V2000
    3.1763   -4.1195    1.6568 C   0  0  0  0  0  0  0  0  0  0  0  0
    3.4201   -3.1531    0.4877 C   0  0  2  0  0  0  0  0  0  0  0  0
    3.2498   -3.8501   -0.8714 C   0  0  0  0  0  0  0  0  0  0  0  0
    3.0277   -2.8979   -2.0668 C   0  0  0  0  0  0  0  0  0  0  0  0
    4.1314   -1.8546   -2.3376 C   0  0  2  0  0  0  0  0  0  0  0  0
    3.8149   -1.0160   -3.5844 C   0  0  0  0  0  0  0  0  0  0  0  0
    5.3719   -2.5123   -2.5537 O   0  0  0  0  0  0  0  0  0  0  0  0
    6.2139   -2.1443   -1.3732 O   0  0  0  0  0  0  0  0  0  0  0  0
    5.2895   -1.5452   -0.4975 C   0  0  2  0  0  0  0  0  0  0  0  0
    5.9018   -0.6580    0.5914 C   0  0  0  0  0  0  0  0  0  0  0  0
    4.9462   -1.3099    1.5894 C   0  0  0  0  0  0  0  0  0  0  0  0
    4.7846   -2.4805    0.6120 C   0  0  1  0  0  0  0  0  0  0  0  0
    4.2502   -0.9632   -1.2412 O   0  0  0  0  0  0  0  0  0  0  0  0
    3.8745   -4.9567    1.6372 H   0  0  0  0  0  0  0  0  0  0  0  0
    2.1682   -4.5291    1.6247 H   0  0  0  0  0  0  0  0  0  0  0  0
    3.2927   -3.6125    2.6144 H   0  0  0  0  0  0  0  0  0  0  0  0
    2.6439   -2.3867    0.5498 H   0  0  0  0  0  0  0  0  0  0  0  0
    4.0988   -4.5071   -1.0688 H   0  0  0  0  0  0  0  0  0  0  0  0
    2.3762   -4.4991   -0.8159 H   0  0  0  0  0  0  0  0  0  0  0  0
    2.8897   -3.5024   -2.9648 H   0  0  0  0  0  0  0  0  0  0  0  0
    2.0883   -2.3692   -1.9241 H   0  0  0  0  0  0  0  0  0  0  0  0
    4.6074   -0.2939   -3.7797 H   0  0  0  0  0  0  0  0  0  0  0  0
    2.8833   -0.4598   -3.4682 H   0  0  0  0  0  0  0  0  0  0  0  0
    3.7175   -1.6469   -4.4684 H   0  0  0  0  0  0  0  0  0  0  0  0
    6.9457   -0.8958    0.8038 H   0  0  0  0  0  0  0  0  0  0  0  0
    5.7396    0.4148    0.4822 H   0  0  0  0  0  0  0  0  0  0  0  0
    5.3996   -1.5830    2.5431 H   0  0  0  0  0  0  0  0  0  0  0  0
    4.0217   -0.7401    1.7122 H   0  0  0  0  0  0  0  0  0  0  0  0
    5.5742   -3.2131    0.8016 H   0  0  0  0  0  0  0  0  0  0  0  0
  1  2  1  0
  1 14  1  0
  1 15  1  0
  1 16  1  0
  2 12  1  0
  2  3  1  0
  2 17  1  6
  3  4  1  0
  3 18  1  0
  3 19  1  0
  4  5  1  0
  4 20  1  0
  4 21  1  0
  5 13  1  0
  5  6  1  6
  5  7  1  0
  6 22  1  0
  6 23  1  0
  6 24  1  0
  7  8  1  0
  9  8  1  6
  9 12  1  0
  9 10  1  0
  9 13  1  0
 10 11  1  0
 10 25  1  0
 10 26  1  0
 11 12  1  0
 11 27  1  0
 11 28  1  0
 12 29  1  1
M  END
>  <i_m_ct_stereo_status>  (342) 
1

>  <s_m_source_file>  (342) 
/var/tmp/pbs.5076255.sched01/tmpk7n3yjou/123nw9z_609.sdf

>  <i_m_source_file_index>  (342) 
28

>  <i_lp_mmshare_version>  (342) 
48012

>  <i_f3d_flags>  (342) 
0

>  <s_epik_input>  (342) 
W0NIMl0xW0NIMl1bQ0BIXShbQ0BAXTEyMylbQ0BIXShbQ0gzXSlbQ0gyXVtDSDJdW0NAXShPMykoW0NIM10pT08y

>  <s_epik_cmdline>  (342) 
J2VwaWtfcHl0aG9uJywgJy1waHQnLCAnMi4wJywgJy1waCcsICc3LjAnLCAnLXRuJywgJzgnLCAnLW1hJywgJzIwMCcsICctaW1hZScsICc8aW5maWxlLm1hZT4nLCAnLW9tYWUnLCAnPG91dGZpbGUubWFlPic=

>  <r_lp_tautomer_probability>  (342) 
1

>  <r_epik_Ionization_Penalty>  (342) 
1.05247e-15

>  <r_epik_Ionization_Penalty_Charging>  (342) 
0

>  <r_epik_Ionization_Penalty_Neutral>  (342) 
1.05247e-15

>  <r_epik_State_Penalty>  (342) 
-0

>  <r_epik_Charging_Adjusted_Penalty>  (342) 
0

>  <i_epik_Tot_Q>  (342) 
0

>  <i_epik_Tot_abs_Q>  (342) 
0

>  <s_lp_Force_Field>  (342) 
OPLS3e

>  <r_lp_Energy>  (342) 
12.7738

>  <b_lp_Chiralities_Consistent>  (342) 
1

>  <s_lp_Variant>  (342) 
104:0-1

>  <s_i_glide_gridfile>  (342) 
pfpi4k_grid

>  <i_i_glide_lignum>  (342) 
28

>  <i_i_glide_rotatable_bonds>  (342) 
0

>  <r_i_docking_score>  (342) 
-3.83445

>  <r_i_glide_ligand_efficiency>  (342) 
-0.294958

>  <r_i_glide_ligand_efficiency_sa>  (342) 
-0.693544

>  <r_i_glide_ligand_efficiency_ln>  (342) 
-1.0756

>  <r_i_glide_gscore>  (342) 
-3.83445

>  <r_i_glide_lipo>  (342) 
-0.444597

>  <r_i_glide_hbond>  (342) 
-0.0943426

>  <r_i_glide_metal>  (342) 
-0

>  <r_i_glide_rewards>  (342) 
-2.15296

>  <r_i_glide_evdw>  (342) 
-18.8972

>  <r_i_glide_ecoul>  (342) 
-1.04854

>  <r_i_glide_erotb>  (342) 
0

>  <r_i_glide_esite>  (342) 
-0.0404059

>  <r_i_glide_emodel>  (342) 
-24.7402

>  <r_i_glide_energy>  (342) 
-19.9457

>  <r_i_glide_einternal>  (342) 
0

>  <r_i_glide_intrahb_reward>  (342) 
-0

>  <i_i_glide_confnum>  (342) 
2

>  <i_i_glide_posenum>  (342) 
33

>  <r_i_glide_eff_state_penalty>  (342) 
0

>  <ligand_id>  (342) 
104

>  <original_smiles>  (342) 
CC1CCC2(C)OOC3(CCC13)O2

>  <smiles>  (342) 
[H]C([H])([H])C12OOC3(O1)C([H])([H])C([H])([H])C3([H])C([H])(C([H])([H])[H])C([H])([H])C2([H])[H]

$$$$
104:0:2
     RDKit          3D

 29 31  0  0  1  0  0  0  0  0999 V2000
    3.9056   -3.9307    1.3242 C   0  0  0  0  0  0  0  0  0  0  0  0
    4.1960   -3.1484    0.0335 C   0  0  2  0  0  0  0  0  0  0  0  0
    3.0417   -3.2661   -0.9787 C   0  0  0  0  0  0  0  0  0  0  0  0
    3.0359   -2.1856   -2.0786 C   0  0  0  0  0  0  0  0  0  0  0  0
    4.2853   -2.0886   -2.9680 C   0  0  2  0  0  0  0  0  0  0  0  0
    4.1025   -1.0293   -4.0603 C   0  0  0  0  0  0  0  0  0  0  0  0
    4.5092   -3.3265   -3.6177 O   0  0  0  0  0  0  0  0  0  0  0  0
    5.7589   -3.8504   -3.0042 O   0  0  0  0  0  0  0  0  0  0  0  0
    5.9861   -2.9906   -1.9203 C   0  0  2  0  0  0  0  0  0  0  0  0
    7.4234   -2.9617   -1.3820 C   0  0  0  0  0  0  0  0  0  0  0  0
    6.8355   -3.0180    0.0297 C   0  0  0  0  0  0  0  0  0  0  0  0
    5.5339   -3.5654   -0.5734 C   0  0  1  0  0  0  0  0  0  0  0  0
    5.4151   -1.7332   -2.1898 O   0  0  0  0  0  0  0  0  0  0  0  0
    3.7669   -4.9954    1.1268 H   0  0  0  0  0  0  0  0  0  0  0  0
    3.0048   -3.5611    1.8138 H   0  0  0  0  0  0  0  0  0  0  0  0
    4.7270   -3.8307    2.0361 H   0  0  0  0  0  0  0  0  0  0  0  0
    4.2585   -2.0968    0.3227 H   0  0  0  0  0  0  0  0  0  0  0  0
    3.0410   -4.2521   -1.4299 H   0  0  0  0  0  0  0  0  0  0  0  0
    2.0995   -3.1759   -0.4392 H   0  0  0  0  0  0  0  0  0  0  0  0
    2.1607   -2.3525   -2.7107 H   0  0  0  0  0  0  0  0  0  0  0  0
    2.8915   -1.2112   -1.6106 H   0  0  0  0  0  0  0  0  0  0  0  0
    4.9778   -0.9863   -4.7068 H   0  0  0  0  0  0  0  0  0  0  0  0
    3.9509   -0.0365   -3.6314 H   0  0  0  0  0  0  0  0  0  0  0  0
    3.2440   -1.2545   -4.6945 H   0  0  0  0  0  0  0  0  0  0  0  0
    8.0013   -3.8483   -1.6304 H   0  0  0  0  0  0  0  0  0  0  0  0
    7.9940   -2.0610   -1.6019 H   0  0  0  0  0  0  0  0  0  0  0  0
    7.3346   -3.7083    0.7086 H   0  0  0  0  0  0  0  0  0  0  0  0
    6.6991   -2.0295    0.4701 H   0  0  0  0  0  0  0  0  0  0  0  0
    5.6110   -4.6561   -0.6462 H   0  0  0  0  0  0  0  0  0  0  0  0
  1  2  1  0
  1 14  1  0
  1 15  1  0
  1 16  1  0
  2 12  1  0
  2  3  1  0
  2 17  1  1
  3  4  1  0
  3 18  1  0
  3 19  1  0
  4  5  1  0
  4 20  1  0
  4 21  1  0
  5 13  1  0
  5  6  1  6
  5  7  1  0
  6 22  1  0
  6 23  1  0
  6 24  1  0
  7  8  1  0
  9  8  1  6
  9 12  1  0
  9 10  1  0
  9 13  1  0
 10 11  1  0
 10 25  1  0
 10 26  1  0
 11 12  1  0
 11 27  1  0
 11 28  1  0
 12 29  1  6
M  END
>  <i_m_ct_stereo_status>  (343) 
1

>  <s_m_source_file>  (343) 
/var/tmp/pbs.5076255.sched01/tmpk7n3yjou/123nw9z_609.sdf

>  <i_m_source_file_index>  (343) 
28

>  <i_lp_mmshare_version>  (343) 
48012

>  <i_f3d_flags>  (343) 
0

>  <s_epik_input>  (343) 
W0NIMl0xW0NIMl1bQ0BIXShbQ0BAXTEyMylbQ0BIXShbQ0gzXSlbQ0gyXVtDSDJdW0NAXShPMykoW0NIM10pT08y

>  <s_epik_cmdline>  (343) 
J2VwaWtfcHl0aG9uJywgJy1waHQnLCAnMi4wJywgJy1waCcsICc3LjAnLCAnLXRuJywgJzgnLCAnLW1hJywgJzIwMCcsICctaW1hZScsICc8aW5maWxlLm1hZT4nLCAnLW9tYWUnLCAnPG91dGZpbGUubWFlPic=

>  <r_lp_tautomer_probability>  (343) 
1

>  <r_epik_Ionization_Penalty>  (343) 
1.05247e-15

>  <r_epik_Ionization_Penalty_Charging>  (343) 
0

>  <r_epik_Ionization_Penalty_Neutral>  (343) 
1.05247e-15

>  <r_epik_State_Penalty>  (343) 
-0

>  <r_epik_Charging_Adjusted_Penalty>  (343) 
0

>  <i_epik_Tot_Q>  (343) 
0

>  <i_epik_Tot_abs_Q>  (343) 
0

>  <s_lp_Force_Field>  (343) 
OPLS3e

>  <r_lp_Energy>  (343) 
12.7738

>  <b_lp_Chiralities_Consistent>  (343) 
1

>  <s_lp_Variant>  (343) 
104:0-1

>  <s_i_glide_gridfile>  (343) 
pfpi4k_grid

>  <i_i_glide_lignum>  (343) 
28

>  <i_i_glide_rotatable_bonds>  (343) 
0

>  <r_i_docking_score>  (343) 
-3.78826

>  <r_i_glide_ligand_efficiency>  (343) 
-0.291405

>  <r_i_glide_ligand_efficiency_sa>  (343) 
-0.68519

>  <r_i_glide_ligand_efficiency_ln>  (343) 
-1.06264

>  <r_i_glide_gscore>  (343) 
-3.78826

>  <r_i_glide_lipo>  (343) 
-0.340561

>  <r_i_glide_hbond>  (343) 
0

>  <r_i_glide_metal>  (343) 
-0

>  <r_i_glide_rewards>  (343) 
-2.41295

>  <r_i_glide_evdw>  (343) 
-19.1987

>  <r_i_glide_ecoul>  (343) 
-0.498781

>  <r_i_glide_erotb>  (343) 
0

>  <r_i_glide_esite>  (343) 
0

>  <r_i_glide_emodel>  (343) 
-24.4358

>  <r_i_glide_energy>  (343) 
-19.6975

>  <r_i_glide_einternal>  (343) 
0

>  <r_i_glide_intrahb_reward>  (343) 
-0

>  <i_i_glide_confnum>  (343) 
1

>  <i_i_glide_posenum>  (343) 
34

>  <r_i_glide_eff_state_penalty>  (343) 
0

>  <ligand_id>  (343) 
104

>  <original_smiles>  (343) 
CC1CCC2(C)OOC3(CCC13)O2

>  <smiles>  (343) 
[H]C([H])([H])C12OOC3(O1)C([H])([H])C([H])([H])C3([H])C([H])(C([H])([H])[H])C([H])([H])C2([H])[H]

$$$$
105:0:0
     RDKit          3D

 45 49  0  0  1  0  0  0  0  0999 V2000
    3.4282   -6.3072    2.1605 C   0  0  0  0  0  0  0  0  0  0  0  0
    2.5527   -5.3221    2.7227 O   0  0  0  0  0  0  0  0  0  0  0  0
    2.5980   -3.9994    2.3737 C   0  0  0  0  0  0  0  0  0  0  0  0
    1.8137   -3.1703    2.8339 O   0  0  0  0  0  0  0  0  0  0  0  0
    3.6840   -3.6778    1.2910 C   0  0  2  0  0  0  0  0  0  0  0  0
    5.1668   -3.5634    1.8490 C   0  0  0  0  0  0  0  0  0  0  0  0
    5.8573   -2.1466    1.4332 C   0  0  1  0  0  0  0  0  0  0  0  0
    5.3354   -0.6564    1.0319 C   0  0  0  0  0  0  0  0  0  0  0  0
    3.9056   -1.2109    1.3088 C   0  0  2  0  0  0  0  0  0  0  0  0
    4.7831   -1.5913    2.5028 C   0  0  0  0  0  0  0  0  0  0  0  0
    4.7166   -1.4739    3.7272 O   0  0  0  0  0  0  0  0  0  0  0  0
    3.4533   -2.4446    0.5012 N   0  0  0  0  0  0  0  0  0  0  0  0
    4.3052   -2.5721   -0.6987 C   0  0  1  0  0  0  0  0  0  0  0  0
    3.9849   -3.8001   -1.6160 C   0  0  0  0  0  0  0  0  0  0  0  0
    2.8257   -3.4498   -2.3260 O   0  0  0  0  0  0  0  0  0  0  0  0
    2.8078   -2.0510   -2.5622 C   0  0  2  0  0  0  0  0  0  0  0  0
    3.1894   -1.7479   -3.9777 C   0  0  1  0  0  0  0  0  0  0  0  0
    2.6985   -0.4798   -4.3852 O   0  0  0  0  0  0  0  0  0  0  0  0
    4.6776   -1.6458   -3.8814 C   0  0  0  0  0  0  0  0  0  0  0  0
    4.9511   -1.0799   -2.6090 O   0  0  0  0  0  0  0  0  0  0  0  0
    3.9233   -1.4518   -1.7039 C   0  0  2  0  0  0  0  0  0  0  0  0
    5.7944   -2.6085   -0.1265 C   0  0  1  0  0  0  0  0  0  0  0  0
    6.7733   -1.9070   -0.9084 O   0  0  0  0  0  0  0  0  0  0  0  0
    7.4618   -2.6698   -1.8954 C   0  0  0  0  0  0  0  0  0  0  0  0
    3.2569   -7.2758    2.5996 H   0  0  0  0  0  0  0  0  0  0  0  0
    4.4740   -6.0499    2.3515 H   0  0  0  0  0  0  0  0  0  0  0  0
    3.3058   -6.3879    1.0691 H   0  0  0  0  0  0  0  0  0  0  0  0
    3.6301   -4.5458    0.6437 H   0  0  0  0  0  0  0  0  0  0  0  0
    5.2532   -3.8196    2.9215 H   0  0  0  0  0  0  0  0  0  0  0  0
    5.7303   -4.4198    1.4853 H   0  0  0  0  0  0  0  0  0  0  0  0
    5.7147    0.2091    1.6094 H   0  0  0  0  0  0  0  0  0  0  0  0
    5.4354   -0.2816    0.0126 H   0  0  0  0  0  0  0  0  0  0  0  0
    3.1069   -0.4769    1.5258 H   0  0  0  0  0  0  0  0  0  0  0  0
    4.7939   -3.9773   -2.3080 H   0  0  0  0  0  0  0  0  0  0  0  0
    3.7959   -4.7637   -1.1505 H   0  0  0  0  0  0  0  0  0  0  0  0
    1.8087   -1.6849   -2.3567 H   0  0  0  0  0  0  0  0  0  0  0  0
    2.8833   -2.5305   -4.6707 H   0  0  0  0  0  0  0  0  0  0  0  0
    2.7276    0.0919   -3.6418 H   0  0  0  0  0  0  0  0  0  0  0  0
    5.1334   -2.6289   -3.9075 H   0  0  0  0  0  0  0  0  0  0  0  0
    5.0408   -1.0981   -4.7279 H   0  0  0  0  0  0  0  0  0  0  0  0
    3.5823   -0.5568   -1.1993 H   0  0  0  0  0  0  0  0  0  0  0  0
    6.1501   -3.6297   -0.2648 H   0  0  0  0  0  0  0  0  0  0  0  0
    8.0953   -2.0203   -2.4954 H   0  0  0  0  0  0  0  0  0  0  0  0
    6.7804   -3.1779   -2.5703 H   0  0  0  0  0  0  0  0  0  0  0  0
    8.0970   -3.4200   -1.4351 H   0  0  0  0  0  0  0  0  0  0  0  0
  1  2  1  0
  1 25  1  0
  1 26  1  0
  1 27  1  0
  2  3  1  0
  3  4  2  0
  3  5  1  0
  5 12  1  0
  5  6  1  0
  5 28  1  6
  7  6  1  1
  6 29  1  0
  6 30  1  0
  7 10  1  0
  7 22  1  0
  7  8  1  0
  8  9  1  0
  8 31  1  0
  8 32  1  0
  9 10  1  0
  9 12  1  0
  9 33  1  1
 10 11  2  0
 12 13  1  0
 13 21  1  0
 13 14  1  6
 13 22  1  0
 14 15  1  0
 14 34  1  0
 14 35  1  0
 15 16  1  0
 16 21  1  0
 16 17  1  0
 16 36  1  1
 17 18  1  0
 17 19  1  0
 17 37  1  6
 18 38  1  0
 19 20  1  0
 19 39  1  0
 19 40  1  0
 20 21  1  0
 21 41  1  1
 22 23  1  0
 22 42  1  1
 23 24  1  0
 24 43  1  0
 24 44  1  0
 24 45  1  0
M  END
>  <i_m_ct_stereo_status>  (344) 
1

>  <s_m_source_file>  (344) 
/var/tmp/pbs.5076255.sched01/tmpk7n3yjou/123nw9z_609.sdf

>  <i_m_source_file_index>  (344) 
29

>  <i_lp_mmshare_version>  (344) 
48012

>  <i_f3d_flags>  (344) 
0

>  <s_epik_input>  (344) 
W0NIM11PQyg9TylbQ0BIXShbQ0gyXUMxMjMpTihbQ0BIXShbQ0gyXTEpQzI9TylbQ0BdNChbQ0BIXTNPW0NIM10pW0NAQEhdNVtDQEhdKE9bQ0gyXTQpW0NAQEhdKFtPSF0pW0NIMl1PNQ==

>  <s_epik_cmdline>  (344) 
J2VwaWtfcHl0aG9uJywgJy1waHQnLCAnMi4wJywgJy1waCcsICc3LjAnLCAnLXRuJywgJzgnLCAnLW1hJywgJzIwMCcsICctaW1hZScsICc8aW5maWxlLm1hZT4nLCAnLW9tYWUnLCAnPG91dGZpbGUubWFlPic=

>  <r_lp_tautomer_probability>  (344) 
1

>  <r_epik_Ionization_Penalty>  (344) 
2.50455e-05

>  <r_epik_Ionization_Penalty_Charging>  (344) 
0

>  <r_epik_Ionization_Penalty_Neutral>  (344) 
2.50455e-05

>  <r_epik_State_Penalty>  (344) 
-0

>  <r_epik_Charging_Adjusted_Penalty>  (344) 
0

>  <i_epik_Tot_Q>  (344) 
0

>  <i_epik_Tot_abs_Q>  (344) 
0

>  <s_epik_Chemistry_Notes>  (344) 
This compound has an ester and may undergo hydrolysis at high or low pH.

>  <s_lp_Force_Field>  (344) 
OPLS3e

>  <r_lp_Energy>  (344) 
171.985

>  <b_lp_Chiralities_Consistent>  (344) 
1

>  <s_lp_Variant>  (344) 
105:0-1

>  <s_i_glide_gridfile>  (344) 
pfpi4k_grid

>  <i_i_glide_lignum>  (344) 
29

>  <i_i_glide_rotatable_bonds>  (344) 
4

>  <r_i_docking_score>  (344) 
-2.59886

>  <r_i_glide_ligand_efficiency>  (344) 
-0.108286

>  <r_i_glide_ligand_efficiency_sa>  (344) 
-0.31235

>  <r_i_glide_ligand_efficiency_ln>  (344) 
-0.622026

>  <r_i_glide_gscore>  (344) 
-2.59886

>  <r_i_glide_lipo>  (344) 
-0.423402

>  <r_i_glide_hbond>  (344) 
-0.16

>  <r_i_glide_metal>  (344) 
-0

>  <r_i_glide_rewards>  (344) 
-1.18063

>  <r_i_glide_evdw>  (344) 
-18.0943

>  <r_i_glide_ecoul>  (344) 
-0.598019

>  <r_i_glide_erotb>  (344) 
0.164335

>  <r_i_glide_esite>  (344) 
-0.00474594

>  <r_i_glide_emodel>  (344) 
-13.4755

>  <r_i_glide_energy>  (344) 
-18.6923

>  <r_i_glide_einternal>  (344) 
9.36851

>  <r_i_glide_intrahb_reward>  (344) 
-0

>  <i_i_glide_confnum>  (344) 
2

>  <i_i_glide_posenum>  (344) 
19

>  <r_i_glide_eff_state_penalty>  (344) 
0

>  <ligand_id>  (344) 
105

>  <original_smiles>  (344) 
COC(=O)C1CC23CC(C2=O)N1C1(COC2C(O)COC21)C3OC

>  <smiles>  (344) 
[H]OC1([H])C([H])([H])OC2([H])C1([H])OC([H])([H])C21N2C([H])(C(=O)OC([H])([H])[H])C([H])([H])C3(C(=O)C2([H])C3([H])[H])C1([H])OC([H])([H])[H]

$$$$
106:1:0
     RDKit          3D

 51 56  0  0  1  0  0  0  0  0999 V2000
    4.5541    2.9575    5.9252 C   0  0  0  0  0  0  0  0  0  0  0  0
    3.1074    2.6718    6.2265 C   0  0  0  0  0  0  0  0  0  0  0  0
    2.5276    3.2807    7.1515 O   0  0  0  0  0  0  0  0  0  0  0  0
    2.5532    1.7573    5.4344 O   0  0  0  0  0  0  0  0  0  0  0  0
    1.1987    1.3094    5.5563 C   0  0  2  0  0  0  0  0  0  0  0  0
    1.0219   -0.1837    5.0582 C   0  0  2  0  0  0  0  0  0  0  0  0
    1.9786   -1.2252    5.6024 C   0  0  0  0  0  0  0  0  0  0  0  0
    1.7116   -2.4047    4.6523 C   0  0  0  0  0  0  0  0  0  0  0  0
    1.1668   -1.8563    3.4564 O   0  0  0  0  0  0  0  0  0  0  0  0
    1.1894   -0.4676    3.5362 C   0  0  1  0  0  0  0  0  0  0  0  0
    0.1623    0.1041    2.7539 O   0  0  0  0  0  0  0  0  0  0  0  0
    0.4066    1.3463    2.0291 C   0  0  2  0  0  0  0  0  0  0  0  0
    1.5831    2.0901    2.5937 C   0  0  0  0  0  0  0  0  0  0  0  0
    0.6327    2.8745    3.4853 C   0  0  2  0  0  0  0  0  0  0  0  0
    0.9833    4.3595    3.5796 C   0  0  0  0  0  0  0  0  0  0  0  0
    0.1680    2.2544    4.8557 C   0  0  2  0  0  0  0  0  0  0  0  0
   -1.0305    2.9689    5.5367 C   0  0  1  0  0  0  0  0  0  0  0  0
   -1.4380    2.5465    6.9712 C   0  0  0  0  0  0  0  0  0  0  0  0
   -2.8790    2.9544    7.3543 C   0  0  0  0  0  0  0  0  0  0  0  0
   -0.5424    3.1129    8.0656 C   0  0  0  0  0  0  0  0  0  0  0  0
   -1.3095    4.3297    5.1800 O   0  0  0  0  0  0  0  0  0  0  0  0
   -2.1118    3.3418    4.5044 C   0  0  1  0  0  0  0  0  0  0  0  0
   -1.8532    3.0786    3.0251 C   0  0  2  0  0  0  0  0  0  0  0  0
   -1.6880    1.7493    2.7364 O   0  0  0  0  0  0  0  0  0  0  0  0
   -0.4875    2.5346    2.4957 C   0  0  1  0  0  0  0  0  0  0  0  0
    5.1712    2.0609    5.9160 H   0  0  0  0  0  0  0  0  0  0  0  0
    4.9558    3.6151    6.6891 H   0  0  0  0  0  0  0  0  0  0  0  0
    4.6617    3.4649    4.9722 H   0  0  0  0  0  0  0  0  0  0  0  0
    0.9458    1.2660    6.6065 H   0  0  0  0  0  0  0  0  0  0  0  0
    0.0171   -0.5221    5.3156 H   0  0  0  0  0  0  0  0  0  0  0  0
    3.0127   -0.8888    5.5051 H   0  0  0  0  0  0  0  0  0  0  0  0
    1.8236   -1.4806    6.6509 H   0  0  0  0  0  0  0  0  0  0  0  0
    2.6112   -2.9798    4.4503 H   0  0  0  0  0  0  0  0  0  0  0  0
    0.9676   -3.0860    5.0553 H   0  0  0  0  0  0  0  0  0  0  0  0
    2.1904   -0.2844    3.1597 H   0  0  0  0  0  0  0  0  0  0  0  0
    0.4122    1.1709    0.9533 H   0  0  0  0  0  0  0  0  0  0  0  0
    2.4602    1.6602    3.0499 H   0  0  0  0  0  0  0  0  0  0  0  0
    1.9441    2.7189    1.7752 H   0  0  0  0  0  0  0  0  0  0  0  0
    0.1541    5.0276    3.3469 H   0  0  0  0  0  0  0  0  0  0  0  0
    1.7915    4.6390    2.8976 H   0  0  0  0  0  0  0  0  0  0  0  0
    1.3297    4.5829    4.5874 H   0  0  0  0  0  0  0  0  0  0  0  0
   -0.4690    1.4283    4.5896 H   0  0  0  0  0  0  0  0  0  0  0  0
   -1.4044    1.4596    7.0037 H   0  0  0  0  0  0  0  0  0  0  0  0
   -2.9871    4.0346    7.2859 H   0  0  0  0  0  0  0  0  0  0  0  0
   -3.0951    2.6830    8.3861 H   0  0  0  0  0  0  0  0  0  0  0  0
   -3.6419    2.4864    6.7310 H   0  0  0  0  0  0  0  0  0  0  0  0
   -0.4610    4.1908    8.0009 H   0  0  0  0  0  0  0  0  0  0  0  0
    0.4582    2.6882    8.0211 H   0  0  0  0  0  0  0  0  0  0  0  0
   -0.9475    2.8992    9.0510 H   0  0  0  0  0  0  0  0  0  0  0  0
   -3.1644    3.3632    4.7666 H   0  0  0  0  0  0  0  0  0  0  0  0
   -2.4322    3.6412    2.3014 H   0  0  0  0  0  0  0  0  0  0  0  0
  1  2  1  0
  1 26  1  0
  1 27  1  0
  1 28  1  0
  2  3  2  0
  2  4  1  0
  4  5  1  0
  5 16  1  0
  5  6  1  0
  5 29  1  1
  6 10  1  0
  6  7  1  0
  6 30  1  1
  7  8  1  0
  7 31  1  0
  7 32  1  0
  8  9  1  0
  8 33  1  0
  8 34  1  0
  9 10  1  0
 10 11  1  0
 10 35  1  6
 11 12  1  0
 12 25  1  0
 12 13  1  0
 12 36  1  6
 13 14  1  0
 13 37  1  0
 13 38  1  0
 14 25  1  0
 14 15  1  1
 14 16  1  0
 15 39  1  0
 15 40  1  0
 15 41  1  0
 16 17  1  0
 16 42  1  6
 17 22  1  0
 17 18  1  1
 17 21  1  0
 18 19  1  0
 18 20  1  0
 18 43  1  0
 19 44  1  0
 19 45  1  0
 19 46  1  0
 20 47  1  0
 20 48  1  0
 20 49  1  0
 21 22  1  0
 22 23  1  0
 22 50  1  1
 23 25  1  0
 23 24  1  0
 23 51  1  6
 25 24  1  6
M  END
>  <i_m_ct_stereo_status>  (345) 
1

>  <s_m_source_file>  (345) 
/var/tmp/pbs.5076255.sched01/tmpk7n3yjou/123nw9z_609.sdf

>  <i_m_source_file_index>  (345) 
31

>  <i_lp_mmshare_version>  (345) 
48012

>  <i_f3d_flags>  (345) 
0

>  <s_epik_input>  (345) 
QzEyM1tDQEBIXTRPW0NASF01W0NAQEhdKFtDSDJdW0NIMl1PNSlbQ0BASF0oT0MoPU8pW0NIM10pW0NASF0oW0NAXTEoW0NIMl00KVtDSDNdKVtDQF02KFtDSF0oW0NIM10pW0NIM10pW0NAQEhdKE82KVtDQEBIXTJPMw==

>  <s_epik_cmdline>  (345) 
J2VwaWtfcHl0aG9uJywgJy1waHQnLCAnMi4wJywgJy1waCcsICc3LjAnLCAnLXRuJywgJzgnLCAnLW1hJywgJzIwMCcsICctaW1hZScsICc8aW5maWxlLm1hZT4nLCAnLW9tYWUnLCAnPG91dGZpbGUubWFlPic=

>  <r_lp_tautomer_probability>  (345) 
1

>  <r_epik_Ionization_Penalty>  (345) 
4.21776e-12

>  <r_epik_Ionization_Penalty_Charging>  (345) 
0

>  <r_epik_Ionization_Penalty_Neutral>  (345) 
4.21776e-12

>  <r_epik_State_Penalty>  (345) 
-0

>  <r_epik_Charging_Adjusted_Penalty>  (345) 
0

>  <i_epik_Tot_Q>  (345) 
0

>  <i_epik_Tot_abs_Q>  (345) 
0

>  <s_epik_Chemistry_Notes>  (345) 
This compound has an ester and may undergo hydrolysis at high or low pH. This compound contains an acetal/aminal-like group ( X-CH(R)-Y where X, Y are N, S, or O) that may be acid/base labile, releasing an aldehyde.

>  <s_lp_Force_Field>  (345) 
OPLS3e

>  <r_lp_Energy>  (345) 
102.258

>  <b_lp_Chiralities_Consistent>  (345) 
1

>  <s_lp_Variant>  (345) 
106:0-2

>  <s_i_glide_gridfile>  (345) 
pfpi4k_grid

>  <i_i_glide_lignum>  (345) 
31

>  <i_i_glide_rotatable_bonds>  (345) 
3

>  <r_i_docking_score>  (345) 
-1.66158

>  <r_i_glide_ligand_efficiency>  (345) 
-0.0664633

>  <r_i_glide_ligand_efficiency_sa>  (345) 
-0.19434

>  <r_i_glide_ligand_efficiency_ln>  (345) 
-0.393845

>  <r_i_glide_gscore>  (345) 
-1.66158

>  <r_i_glide_lipo>  (345) 
-0.202664

>  <r_i_glide_hbond>  (345) 
0

>  <r_i_glide_metal>  (345) 
-0

>  <r_i_glide_rewards>  (345) 
-1.01996

>  <r_i_glide_evdw>  (345) 
-17.8609

>  <r_i_glide_ecoul>  (345) 
2.05215

>  <r_i_glide_erotb>  (345) 
0.155235

>  <r_i_glide_esite>  (345) 
-0.00897049

>  <r_i_glide_emodel>  (345) 
-17.0461

>  <r_i_glide_energy>  (345) 
-15.8088

>  <r_i_glide_einternal>  (345) 
0.0534474

>  <r_i_glide_intrahb_reward>  (345) 
-0

>  <i_i_glide_confnum>  (345) 
3

>  <i_i_glide_posenum>  (345) 
19

>  <r_i_glide_eff_state_penalty>  (345) 
0

>  <ligand_id>  (345) 
106

>  <original_smiles>  (345) 
CC(=O)OC1C2CCOC2OC2CC3(C)C1C1(C(C)C)OC1C1OC213

>  <smiles>  (345) 
[H]C([H])([H])C(=O)OC1([H])C2([H])C([H])(OC([H])([H])C2([H])[H])OC2([H])C([H])([H])C3(C([H])([H])[H])C1([H])C1(C([H])(C([H])([H])[H])C([H])([H])[H])OC1([H])C1([H])OC213

$$$$
107:0:0
     RDKit          3D

 62 68  0  0  1  0  0  0  0  0999 V2000
    3.8993   -5.6062    0.3888 C   0  0  0  0  0  0  0  0  0  0  0  0
    4.5486   -5.1839    1.7354 C   0  0  1  0  0  0  0  0  0  0  0  0
    3.4788   -4.4857    2.6351 C   0  0  0  0  0  0  0  0  0  0  0  0
    2.9295   -5.3338    3.8009 C   0  0  0  0  0  0  0  0  0  0  0  0
    2.6448   -6.7960    3.4043 C   0  0  1  0  0  0  0  0  0  0  0  0
    3.9667   -7.4816    2.9145 C   0  0  1  0  0  0  0  0  0  0  0  0
    3.6951   -8.6561    1.9187 C   0  0  0  0  0  0  0  0  0  0  0  0
    2.2267   -9.0556    1.6798 C   0  0  0  0  0  0  0  0  0  0  0  0
    1.4357   -9.6324    2.8778 C   0  0  2  0  0  0  0  0  0  0  0  0
   -0.0588   -9.2812    2.8764 C   0  0  0  0  0  0  0  0  0  0  0  0
   -0.2614   -8.7500    4.2989 C   0  0  1  0  0  0  0  0  0  0  0  0
    0.6928   -9.5299    4.9842 O   0  0  0  0  0  0  0  0  0  0  0  0
    1.8339   -9.1557    4.2923 C   0  0  1  0  0  0  0  0  0  0  0  0
    2.9747   -9.8363    4.7745 O   0  0  0  0  0  0  0  0  0  0  0  0
    1.8685   -7.6073    4.5266 C   0  0  1  0  0  0  0  0  0  0  0  0
    2.4404   -7.3442    5.9477 C   0  0  0  0  0  0  0  0  0  0  0  0
    0.3576   -7.3878    4.5362 C   0  0  2  0  0  0  0  0  0  0  0  0
   -0.3596   -6.2732    5.2507 C   0  0  0  0  0  0  0  0  0  0  0  0
   -0.1806   -6.2524    3.8325 O   0  0  0  0  0  0  0  0  0  0  0  0
    5.0843   -6.4499    2.4786 C   0  0  1  0  0  0  0  0  0  0  0  0
    6.3418   -7.0515    1.8119 C   0  0  0  0  0  0  0  0  0  0  0  0
    6.5843   -8.2530    1.9013 O   0  0  0  0  0  0  0  0  0  0  0  0
    7.2806   -6.1409    1.1427 C   0  0  0  0  0  0  0  0  0  0  0  0
    7.0319   -4.8221    1.0040 C   0  0  0  0  0  0  0  0  0  0  0  0
    8.1529   -3.9105    0.5013 C   0  0  0  0  0  0  0  0  0  0  0  0
    7.6355   -2.6928   -0.2529 C   0  0  0  0  0  0  0  0  0  0  0  0
    8.1474   -2.2951   -1.2921 O   0  0  0  0  0  0  0  0  0  0  0  0
    6.4678   -1.9588    0.3742 C   0  0  0  0  0  0  0  0  0  0  0  0
    5.3179   -2.9426    0.6082 C   0  0  0  0  0  0  0  0  0  0  0  0
    5.7234   -4.1638    1.4831 C   0  0  1  0  0  0  0  0  0  0  0  0
    3.4283   -4.7735   -0.1289 H   0  0  0  0  0  0  0  0  0  0  0  0
    3.1089   -6.3396    0.5256 H   0  0  0  0  0  0  0  0  0  0  0  0
    4.6245   -6.0412   -0.2981 H   0  0  0  0  0  0  0  0  0  0  0  0
    3.8814   -3.5709    3.0732 H   0  0  0  0  0  0  0  0  0  0  0  0
    2.6409   -4.1586    2.0200 H   0  0  0  0  0  0  0  0  0  0  0  0
    3.6577   -5.3165    4.6117 H   0  0  0  0  0  0  0  0  0  0  0  0
    2.0284   -4.8638    4.1877 H   0  0  0  0  0  0  0  0  0  0  0  0
    1.9700   -6.6898    2.5587 H   0  0  0  0  0  0  0  0  0  0  0  0
    4.4066   -7.9508    3.7934 H   0  0  0  0  0  0  0  0  0  0  0  0
    4.0963   -8.4068    0.9388 H   0  0  0  0  0  0  0  0  0  0  0  0
    4.2551   -9.5387    2.2314 H   0  0  0  0  0  0  0  0  0  0  0  0
    1.6863   -8.2401    1.2009 H   0  0  0  0  0  0  0  0  0  0  0  0
    2.2293   -9.8339    0.9180 H   0  0  0  0  0  0  0  0  0  0  0  0
    1.5287  -10.7195    2.8728 H   0  0  0  0  0  0  0  0  0  0  0  0
   -0.3647   -8.5649    2.1149 H   0  0  0  0  0  0  0  0  0  0  0  0
   -0.6509  -10.1822    2.7180 H   0  0  0  0  0  0  0  0  0  0  0  0
   -1.2792   -8.8274    4.6727 H   0  0  0  0  0  0  0  0  0  0  0  0
    2.9870   -9.7436    5.7159 H   0  0  0  0  0  0  0  0  0  0  0  0
    1.9322   -7.9560    6.6996 H   0  0  0  0  0  0  0  0  0  0  0  0
    2.3159   -6.3031    6.2515 H   0  0  0  0  0  0  0  0  0  0  0  0
    3.5064   -7.5695    5.9879 H   0  0  0  0  0  0  0  0  0  0  0  0
   -1.3745   -6.4579    5.5879 H   0  0  0  0  0  0  0  0  0  0  0  0
    0.2007   -5.5180    5.7980 H   0  0  0  0  0  0  0  0  0  0  0  0
    5.4854   -6.0656    3.4165 H   0  0  0  0  0  0  0  0  0  0  0  0
    8.2311   -6.5542    0.8335 H   0  0  0  0  0  0  0  0  0  0  0  0
    8.7247   -3.5479    1.3541 H   0  0  0  0  0  0  0  0  0  0  0  0
    8.8393   -4.4719   -0.1310 H   0  0  0  0  0  0  0  0  0  0  0  0
    6.8066   -1.5133    1.3083 H   0  0  0  0  0  0  0  0  0  0  0  0
    6.1535   -1.1466   -0.2819 H   0  0  0  0  0  0  0  0  0  0  0  0
    4.4887   -2.4022    1.0674 H   0  0  0  0  0  0  0  0  0  0  0  0
    4.9635   -3.2600   -0.3736 H   0  0  0  0  0  0  0  0  0  0  0  0
    6.0109   -3.7569    2.4540 H   0  0  0  0  0  0  0  0  0  0  0  0
  2  1  1  6
  1 31  1  0
  1 32  1  0
  1 33  1  0
  2 20  1  0
  2 30  1  0
  2  3  1  0
  3  4  1  0
  3 34  1  0
  3 35  1  0
  4  5  1  0
  4 36  1  0
  4 37  1  0
  5 15  1  0
  5  6  1  0
  5 38  1  6
  6  7  1  0
  6 20  1  0
  6 39  1  1
  7  8  1  0
  7 40  1  0
  7 41  1  0
  8  9  1  0
  8 42  1  0
  8 43  1  0
  9 13  1  0
  9 10  1  0
  9 44  1  1
 10 11  1  0
 10 45  1  0
 10 46  1  0
 11 17  1  0
 11 12  1  0
 11 47  1  1
 12 13  1  0
 13 14  1  1
 13 15  1  0
 14 48  1  0
 15 16  1  1
 15 17  1  0
 16 49  1  0
 16 50  1  0
 16 51  1  0
 17 19  1  6
 17 18  1  0
 18 19  1  0
 18 52  1  0
 18 53  1  0
 20 21  1  0
 20 54  1  1
 21 22  2  0
 21 23  1  0
 23 24  2  0
 23 55  1  0
 24 30  1  0
 24 25  1  0
 25 26  1  0
 25 56  1  0
 25 57  1  0
 26 27  2  0
 26 28  1  0
 28 29  1  0
 28 58  1  0
 28 59  1  0
 29 30  1  0
 29 60  1  0
 29 61  1  0
 30 62  1  1
M  END
>  <i_m_ct_stereo_status>  (346) 
1

>  <s_m_source_file>  (346) 
/var/tmp/pbs.5076255.sched01/tmpk7n3yjou/123nw9z_609.sdf

>  <i_m_source_file_index>  (346) 
32

>  <i_lp_mmshare_version>  (346) 
48012

>  <i_f3d_flags>  (346) 
0

>  <s_epik_input>  (346) 
W0NIMl0xW0NIMl1DKD1PKVtDSDJdQyg9W0NIXUMyPU8pW0NAQEhdMVtDQF0oW0NIM10pKFtDSDJdW0NIMl0zKVtDQEhdMltDQEhdKFtDSDJdW0NIMl00KVtDQEhdM1tDQF01KFtDSDNdKVtDQF0oTzYpKFtPSF0pW0NASF00W0NIMl1bQ0BASF02W0NAQF01N1tDSDJdTzc=

>  <s_epik_cmdline>  (346) 
J2VwaWtfcHl0aG9uJywgJy1waHQnLCAnMi4wJywgJy1waCcsICc3LjAnLCAnLXRuJywgJzgnLCAnLW1hJywgJzIwMCcsICctaW1hZScsICc8aW5maWxlLm1hZT4nLCAnLW9tYWUnLCAnPG91dGZpbGUubWFlPic=

>  <r_lp_tautomer_probability>  (346) 
1

>  <r_epik_Ionization_Penalty>  (346) 
7.96938e-07

>  <r_epik_Ionization_Penalty_Charging>  (346) 
0

>  <r_epik_Ionization_Penalty_Neutral>  (346) 
7.96938e-07

>  <r_epik_State_Penalty>  (346) 
-0

>  <r_epik_Charging_Adjusted_Penalty>  (346) 
0

>  <i_epik_Tot_Q>  (346) 
0

>  <i_epik_Tot_abs_Q>  (346) 
0

>  <s_lp_Force_Field>  (346) 
OPLS3e

>  <r_lp_Energy>  (346) 
74.3845

>  <b_lp_Chiralities_Consistent>  (346) 
1

>  <s_lp_Variant>  (346) 
107:0-1

>  <s_i_glide_gridfile>  (346) 
pfpi4k_grid

>  <i_i_glide_lignum>  (346) 
32

>  <i_i_glide_rotatable_bonds>  (346) 
1

>  <r_i_docking_score>  (346) 
-3.51105

>  <r_i_glide_ligand_efficiency>  (346) 
-0.117035

>  <r_i_glide_ligand_efficiency_sa>  (346) 
-0.363655

>  <r_i_glide_ligand_efficiency_ln>  (346) 
-0.79775

>  <r_i_glide_gscore>  (346) 
-3.51105

>  <r_i_glide_lipo>  (346) 
-0.664215

>  <r_i_glide_hbond>  (346) 
-0.2165

>  <r_i_glide_metal>  (346) 
-0

>  <r_i_glide_rewards>  (346) 
-0.738101

>  <r_i_glide_evdw>  (346) 
-31.845

>  <r_i_glide_ecoul>  (346) 
-1.91085

>  <r_i_glide_erotb>  (346) 
0

>  <r_i_glide_esite>  (346) 
-0.0133602

>  <r_i_glide_emodel>  (346) 
-40.954

>  <r_i_glide_energy>  (346) 
-33.7559

>  <r_i_glide_einternal>  (346) 
0.263621

>  <r_i_glide_intrahb_reward>  (346) 
-0

>  <i_i_glide_confnum>  (346) 
1

>  <i_i_glide_posenum>  (346) 
25

>  <r_i_glide_eff_state_penalty>  (346) 
0

>  <ligand_id>  (346) 
107

>  <original_smiles>  (346) 
CC12CCC3C(CCC4CC5OC4(O)C3(C)C53CO3)C1C(=O)C=C1CC(=O)CCC12

>  <smiles>  (346) 
[H]OC12OC3([H])C([H])([H])C1([H])C([H])([H])C([H])([H])C1([H])C4([H])C(=O)C([H])=C5C([H])([H])C(=O)C([H])([H])C([H])([H])C5([H])C4(C([H])([H])[H])C([H])([H])C([H])([H])C1([H])C2(C([H])([H])[H])C31OC1([H])[H]

$$$$
107:0:1
     RDKit          3D

 62 68  0  0  1  0  0  0  0  0999 V2000
    4.0305   -5.9004    0.2713 C   0  0  0  0  0  0  0  0  0  0  0  0
    4.5630   -5.3153    1.6057 C   0  0  1  0  0  0  0  0  0  0  0  0
    3.3948   -4.6140    2.3695 C   0  0  0  0  0  0  0  0  0  0  0  0
    2.8273   -5.3892    3.5769 C   0  0  0  0  0  0  0  0  0  0  0  0
    2.6633   -6.8972    3.3044 C   0  0  1  0  0  0  0  0  0  0  0  0
    4.0534   -7.5330    2.9604 C   0  0  1  0  0  0  0  0  0  0  0  0
    3.9211   -8.8066    2.0630 C   0  0  0  0  0  0  0  0  0  0  0  0
    2.4996   -9.3290    1.7826 C   0  0  0  0  0  0  0  0  0  0  0  0
    1.6693   -9.8466    2.9791 C   0  0  2  0  0  0  0  0  0  0  0  0
    0.1597   -9.6006    2.8666 C   0  0  0  0  0  0  0  0  0  0  0  0
   -0.1657   -8.9509    4.2140 C   0  0  1  0  0  0  0  0  0  0  0  0
    0.7881   -9.5960    5.0263 O   0  0  0  0  0  0  0  0  0  0  0  0
    1.9466   -9.2206    4.3607 C   0  0  1  0  0  0  0  0  0  0  0  0
    3.0939   -9.7825    4.9664 O   0  0  0  0  0  0  0  0  0  0  0  0
    1.8706   -7.6525    4.4521 C   0  0  1  0  0  0  0  0  0  0  0  0
    2.3311   -7.2213    5.8727 C   0  0  0  0  0  0  0  0  0  0  0  0
    0.3513   -7.5354    4.3489 C   0  0  2  0  0  0  0  0  0  0  0  0
   -0.4836   -6.4202    4.9242 C   0  0  0  0  0  0  0  0  0  0  0  0
   -0.2199   -6.5054    3.5213 O   0  0  0  0  0  0  0  0  0  0  0  0
    5.1282   -6.4689    2.4942 C   0  0  1  0  0  0  0  0  0  0  0  0
    6.4596   -7.0428    1.9578 C   0  0  0  0  0  0  0  0  0  0  0  0
    6.7708   -8.2096    2.1798 O   0  0  0  0  0  0  0  0  0  0  0  0
    7.3783   -6.1362    1.2565 C   0  0  0  0  0  0  0  0  0  0  0  0
    7.0569   -4.8567    0.9814 C   0  0  0  0  0  0  0  0  0  0  0  0
    8.1460   -3.9214    0.4586 C   0  0  0  0  0  0  0  0  0  0  0  0
    7.6005   -2.8178   -0.4379 C   0  0  0  0  0  0  0  0  0  0  0  0
    8.1522   -2.4846   -1.4805 O   0  0  0  0  0  0  0  0  0  0  0  0
    6.3528   -2.1080    0.0496 C   0  0  0  0  0  0  0  0  0  0  0  0
    5.2559   -3.1419    0.3115 C   0  0  0  0  0  0  0  0  0  0  0  0
    5.6840   -4.2461    1.3214 C   0  0  1  0  0  0  0  0  0  0  0  0
    3.5390   -5.1503   -0.3436 H   0  0  0  0  0  0  0  0  0  0  0  0
    3.2784   -6.6650    0.4388 H   0  0  0  0  0  0  0  0  0  0  0  0
    4.8209   -6.3462   -0.3307 H   0  0  0  0  0  0  0  0  0  0  0  0
    3.7096   -3.6370    2.7409 H   0  0  0  0  0  0  0  0  0  0  0  0
    2.5802   -4.4047    1.6792 H   0  0  0  0  0  0  0  0  0  0  0  0
    3.5006   -5.2464    4.4213 H   0  0  0  0  0  0  0  0  0  0  0  0
    1.8753   -4.9481    3.8654 H   0  0  0  0  0  0  0  0  0  0  0  0
    2.0381   -6.9170    2.4154 H   0  0  0  0  0  0  0  0  0  0  0  0
    4.4631   -7.8906    3.9028 H   0  0  0  0  0  0  0  0  0  0  0  0
    4.3647   -8.6196    1.0878 H   0  0  0  0  0  0  0  0  0  0  0  0
    4.5153   -9.6162    2.4875 H   0  0  0  0  0  0  0  0  0  0  0  0
    1.9388   -8.6038    1.1933 H   0  0  0  0  0  0  0  0  0  0  0  0
    2.6066  -10.1685    1.0962 H   0  0  0  0  0  0  0  0  0  0  0  0
    1.8327  -10.9194    3.0812 H   0  0  0  0  0  0  0  0  0  0  0  0
   -0.1424   -8.9731    2.0286 H   0  0  0  0  0  0  0  0  0  0  0  0
   -0.3586  -10.5526    2.7602 H   0  0  0  0  0  0  0  0  0  0  0  0
   -1.1961   -9.0530    4.5354 H   0  0  0  0  0  0  0  0  0  0  0  0
    2.9714  -10.7219    4.9966 H   0  0  0  0  0  0  0  0  0  0  0  0
    1.8203   -7.7992    6.6479 H   0  0  0  0  0  0  0  0  0  0  0  0
    2.1262   -6.1682    6.0746 H   0  0  0  0  0  0  0  0  0  0  0  0
    3.4033   -7.3762    5.9962 H   0  0  0  0  0  0  0  0  0  0  0  0
   -1.4998   -6.6565    5.2257 H   0  0  0  0  0  0  0  0  0  0  0  0
   -0.0103   -5.5826    5.4337 H   0  0  0  0  0  0  0  0  0  0  0  0
    5.4445   -5.9757    3.4138 H   0  0  0  0  0  0  0  0  0  0  0  0
    8.3720   -6.5103    1.0414 H   0  0  0  0  0  0  0  0  0  0  0  0
    8.6394   -3.4460    1.3025 H   0  0  0  0  0  0  0  0  0  0  0  0
    8.9064   -4.4880   -0.0796 H   0  0  0  0  0  0  0  0  0  0  0  0
    6.6039   -1.5569    0.9534 H   0  0  0  0  0  0  0  0  0  0  0  0
    6.0294   -1.3824   -0.6969 H   0  0  0  0  0  0  0  0  0  0  0  0
    4.3660   -2.6202    0.6685 H   0  0  0  0  0  0  0  0  0  0  0  0
    4.9867   -3.5699   -0.6557 H   0  0  0  0  0  0  0  0  0  0  0  0
    5.8830   -3.7333    2.2623 H   0  0  0  0  0  0  0  0  0  0  0  0
  2  1  1  6
  1 31  1  0
  1 32  1  0
  1 33  1  0
  2 20  1  0
  2 30  1  0
  2  3  1  0
  3  4  1  0
  3 34  1  0
  3 35  1  0
  4  5  1  0
  4 36  1  0
  4 37  1  0
  5 15  1  0
  5  6  1  0
  5 38  1  6
  6  7  1  0
  6 20  1  0
  6 39  1  1
  7  8  1  0
  7 40  1  0
  7 41  1  0
  8  9  1  0
  8 42  1  0
  8 43  1  0
  9 13  1  0
  9 10  1  0
  9 44  1  1
 10 11  1  0
 10 45  1  0
 10 46  1  0
 11 17  1  0
 11 12  1  0
 11 47  1  1
 12 13  1  0
 13 14  1  1
 13 15  1  0
 14 48  1  0
 15 16  1  1
 15 17  1  0
 16 49  1  0
 16 50  1  0
 16 51  1  0
 17 19  1  6
 17 18  1  0
 18 19  1  0
 18 52  1  0
 18 53  1  0
 20 21  1  0
 20 54  1  1
 21 22  2  0
 21 23  1  0
 23 24  2  0
 23 55  1  0
 24 30  1  0
 24 25  1  0
 25 26  1  0
 25 56  1  0
 25 57  1  0
 26 27  2  0
 26 28  1  0
 28 29  1  0
 28 58  1  0
 28 59  1  0
 29 30  1  0
 29 60  1  0
 29 61  1  0
 30 62  1  1
M  END
>  <i_m_ct_stereo_status>  (347) 
1

>  <s_m_source_file>  (347) 
/var/tmp/pbs.5076255.sched01/tmpk7n3yjou/123nw9z_609.sdf

>  <i_m_source_file_index>  (347) 
32

>  <i_lp_mmshare_version>  (347) 
48012

>  <i_f3d_flags>  (347) 
0

>  <s_epik_input>  (347) 
W0NIMl0xW0NIMl1DKD1PKVtDSDJdQyg9W0NIXUMyPU8pW0NAQEhdMVtDQF0oW0NIM10pKFtDSDJdW0NIMl0zKVtDQEhdMltDQEhdKFtDSDJdW0NIMl00KVtDQEhdM1tDQF01KFtDSDNdKVtDQF0oTzYpKFtPSF0pW0NASF00W0NIMl1bQ0BASF02W0NAQF01N1tDSDJdTzc=

>  <s_epik_cmdline>  (347) 
J2VwaWtfcHl0aG9uJywgJy1waHQnLCAnMi4wJywgJy1waCcsICc3LjAnLCAnLXRuJywgJzgnLCAnLW1hJywgJzIwMCcsICctaW1hZScsICc8aW5maWxlLm1hZT4nLCAnLW9tYWUnLCAnPG91dGZpbGUubWFlPic=

>  <r_lp_tautomer_probability>  (347) 
1

>  <r_epik_Ionization_Penalty>  (347) 
7.96938e-07

>  <r_epik_Ionization_Penalty_Charging>  (347) 
0

>  <r_epik_Ionization_Penalty_Neutral>  (347) 
7.96938e-07

>  <r_epik_State_Penalty>  (347) 
-0

>  <r_epik_Charging_Adjusted_Penalty>  (347) 
0

>  <i_epik_Tot_Q>  (347) 
0

>  <i_epik_Tot_abs_Q>  (347) 
0

>  <s_lp_Force_Field>  (347) 
OPLS3e

>  <r_lp_Energy>  (347) 
74.3845

>  <b_lp_Chiralities_Consistent>  (347) 
1

>  <s_lp_Variant>  (347) 
107:0-1

>  <s_i_glide_gridfile>  (347) 
pfpi4k_grid

>  <i_i_glide_lignum>  (347) 
32

>  <i_i_glide_rotatable_bonds>  (347) 
1

>  <r_i_docking_score>  (347) 
-3.50962

>  <r_i_glide_ligand_efficiency>  (347) 
-0.116987

>  <r_i_glide_ligand_efficiency_sa>  (347) 
-0.363507

>  <r_i_glide_ligand_efficiency_ln>  (347) 
-0.797424

>  <r_i_glide_gscore>  (347) 
-3.50962

>  <r_i_glide_lipo>  (347) 
-0.604669

>  <r_i_glide_hbond>  (347) 
-0.255449

>  <r_i_glide_metal>  (347) 
-0

>  <r_i_glide_rewards>  (347) 
-0.711425

>  <r_i_glide_evdw>  (347) 
-32.1719

>  <r_i_glide_ecoul>  (347) 
-2.11063

>  <r_i_glide_erotb>  (347) 
0

>  <r_i_glide_esite>  (347) 
-0.0128862

>  <r_i_glide_emodel>  (347) 
-41.5755

>  <r_i_glide_energy>  (347) 
-34.2826

>  <r_i_glide_einternal>  (347) 
0.115548

>  <r_i_glide_intrahb_reward>  (347) 
-0

>  <i_i_glide_confnum>  (347) 
2

>  <i_i_glide_posenum>  (347) 
10

>  <r_i_glide_eff_state_penalty>  (347) 
0

>  <ligand_id>  (347) 
107

>  <original_smiles>  (347) 
CC12CCC3C(CCC4CC5OC4(O)C3(C)C53CO3)C1C(=O)C=C1CC(=O)CCC12

>  <smiles>  (347) 
[H]OC12OC3([H])C([H])([H])C1([H])C([H])([H])C([H])([H])C1([H])C4([H])C(=O)C([H])=C5C([H])([H])C(=O)C([H])([H])C([H])([H])C5([H])C4(C([H])([H])[H])C([H])([H])C([H])([H])C1([H])C2(C([H])([H])[H])C31OC1([H])[H]

$$$$
107:0:2
     RDKit          3D

 62 68  0  0  1  0  0  0  0  0999 V2000
    2.9615   -5.6759    0.5283 C   0  0  0  0  0  0  0  0  0  0  0  0
    3.6640   -5.0934    1.7875 C   0  0  1  0  0  0  0  0  0  0  0  0
    2.6124   -4.8644    2.9184 C   0  0  0  0  0  0  0  0  0  0  0  0
    2.6308   -5.8946    4.0674 C   0  0  0  0  0  0  0  0  0  0  0  0
    2.8094   -7.3433    3.5766 C   0  0  1  0  0  0  0  0  0  0  0  0
    4.1678   -7.4853    2.8076 C   0  0  1  0  0  0  0  0  0  0  0  0
    4.1369   -8.6386    1.7531 C   0  0  0  0  0  0  0  0  0  0  0  0
    2.8781   -9.5262    1.7228 C   0  0  0  0  0  0  0  0  0  0  0  0
    2.5846  -10.3995    2.9619 C   0  0  2  0  0  0  0  0  0  0  0  0
    1.0957  -10.6244    3.2494 C   0  0  0  0  0  0  0  0  0  0  0  0
    1.0060  -10.2518    4.7326 C   0  0  1  0  0  0  0  0  0  0  0  0
    2.2850  -10.6515    5.1638 O   0  0  0  0  0  0  0  0  0  0  0  0
    3.0614   -9.8675    4.3284 C   0  0  1  0  0  0  0  0  0  0  0  0
    4.4400  -10.1106    4.5297 O   0  0  0  0  0  0  0  0  0  0  0  0
    2.5953   -8.4190    4.7216 C   0  0  1  0  0  0  0  0  0  0  0  0
    3.2964   -8.0181    6.0502 C   0  0  0  0  0  0  0  0  0  0  0  0
    1.1339   -8.7653    5.0000 C   0  0  2  0  0  0  0  0  0  0  0  0
    0.2249   -8.0338    5.9491 C   0  0  0  0  0  0  0  0  0  0  0  0
    0.1059   -7.8718    4.5342 O   0  0  0  0  0  0  0  0  0  0  0  0
    4.7420   -6.1017    2.3012 C   0  0  1  0  0  0  0  0  0  0  0  0
    5.9772   -6.1808    1.3780 C   0  0  0  0  0  0  0  0  0  0  0  0
    6.6451   -7.2097    1.3169 O   0  0  0  0  0  0  0  0  0  0  0  0
    6.3864   -4.9708    0.6541 C   0  0  0  0  0  0  0  0  0  0  0  0
    5.6727   -3.8287    0.6998 C   0  0  0  0  0  0  0  0  0  0  0  0
    6.2898   -2.5563    0.1240 C   0  0  0  0  0  0  0  0  0  0  0  0
    5.2520   -1.5984   -0.4353 C   0  0  0  0  0  0  0  0  0  0  0  0
    5.4156   -1.0442   -1.5197 O   0  0  0  0  0  0  0  0  0  0  0  0
    4.0362   -1.3450    0.4442 C   0  0  0  0  0  0  0  0  0  0  0  0
    3.3705   -2.6852    0.7786 C   0  0  0  0  0  0  0  0  0  0  0  0
    4.3347   -3.7073    1.4494 C   0  0  1  0  0  0  0  0  0  0  0  0
    2.1433   -5.0514    0.1787 H   0  0  0  0  0  0  0  0  0  0  0  0
    2.5207   -6.6497    0.7218 H   0  0  0  0  0  0  0  0  0  0  0  0
    3.6520   -5.7943   -0.3056 H   0  0  0  0  0  0  0  0  0  0  0  0
    2.7457   -3.8822    3.3751 H   0  0  0  0  0  0  0  0  0  0  0  0
    1.6131   -4.8439    2.4886 H   0  0  0  0  0  0  0  0  0  0  0  0
    3.4466   -5.6404    4.7439 H   0  0  0  0  0  0  0  0  0  0  0  0
    1.7131   -5.7989    4.6444 H   0  0  0  0  0  0  0  0  0  0  0  0
    1.9913   -7.4610    2.8717 H   0  0  0  0  0  0  0  0  0  0  0  0
    4.9021   -7.7942    3.5494 H   0  0  0  0  0  0  0  0  0  0  0  0
    4.2324   -8.2269    0.7518 H   0  0  0  0  0  0  0  0  0  0  0  0
    5.0166   -9.2706    1.8775 H   0  0  0  0  0  0  0  0  0  0  0  0
    2.0055   -8.9481    1.4200 H   0  0  0  0  0  0  0  0  0  0  0  0
    3.0020  -10.2236    0.8956 H   0  0  0  0  0  0  0  0  0  0  0  0
    3.0536  -11.3745    2.8262 H   0  0  0  0  0  0  0  0  0  0  0  0
    0.4158  -10.0409    2.6286 H   0  0  0  0  0  0  0  0  0  0  0  0
    0.8445  -11.6753    3.1045 H   0  0  0  0  0  0  0  0  0  0  0  0
    0.1935  -10.7202    5.2739 H   0  0  0  0  0  0  0  0  0  0  0  0
    4.6000  -11.0176    4.3127 H   0  0  0  0  0  0  0  0  0  0  0  0
    3.1912   -8.8010    6.8068 H   0  0  0  0  0  0  0  0  0  0  0  0
    2.8795   -7.1047    6.4799 H   0  0  0  0  0  0  0  0  0  0  0  0
    4.3625   -7.8489    5.8923 H   0  0  0  0  0  0  0  0  0  0  0  0
   -0.5529   -8.6226    6.4268 H   0  0  0  0  0  0  0  0  0  0  0  0
    0.5708   -7.1482    6.4828 H   0  0  0  0  0  0  0  0  0  0  0  0
    5.1552   -5.6328    3.1947 H   0  0  0  0  0  0  0  0  0  0  0  0
    7.3443   -4.9952    0.1526 H   0  0  0  0  0  0  0  0  0  0  0  0
    6.8377   -2.0337    0.9063 H   0  0  0  0  0  0  0  0  0  0  0  0
    6.9994   -2.8073   -0.6661 H   0  0  0  0  0  0  0  0  0  0  0  0
    4.3645   -0.8411    1.3514 H   0  0  0  0  0  0  0  0  0  0  0  0
    3.3335   -0.6801   -0.0592 H   0  0  0  0  0  0  0  0  0  0  0  0
    2.5076   -2.4999    1.4212 H   0  0  0  0  0  0  0  0  0  0  0  0
    2.9693   -3.0756   -0.1573 H   0  0  0  0  0  0  0  0  0  0  0  0
    4.6429   -3.2604    2.3949 H   0  0  0  0  0  0  0  0  0  0  0  0
  2  1  1  6
  1 31  1  0
  1 32  1  0
  1 33  1  0
  2 20  1  0
  2 30  1  0
  2  3  1  0
  3  4  1  0
  3 34  1  0
  3 35  1  0
  4  5  1  0
  4 36  1  0
  4 37  1  0
  5 15  1  0
  5  6  1  0
  5 38  1  6
  6  7  1  0
  6 20  1  0
  6 39  1  1
  7  8  1  0
  7 40  1  0
  7 41  1  0
  8  9  1  0
  8 42  1  0
  8 43  1  0
  9 13  1  0
  9 10  1  0
  9 44  1  6
 10 11  1  0
 10 45  1  0
 10 46  1  0
 11 17  1  0
 11 12  1  0
 11 47  1  1
 12 13  1  0
 13 14  1  1
 13 15  1  0
 14 48  1  0
 15 16  1  1
 15 17  1  0
 16 49  1  0
 16 50  1  0
 16 51  1  0
 17 19  1  6
 17 18  1  0
 18 19  1  0
 18 52  1  0
 18 53  1  0
 20 21  1  0
 20 54  1  1
 21 22  2  0
 21 23  1  0
 23 24  2  0
 23 55  1  0
 24 30  1  0
 24 25  1  0
 25 26  1  0
 25 56  1  0
 25 57  1  0
 26 27  2  0
 26 28  1  0
 28 29  1  0
 28 58  1  0
 28 59  1  0
 29 30  1  0
 29 60  1  0
 29 61  1  0
 30 62  1  1
M  END
>  <i_m_ct_stereo_status>  (348) 
1

>  <s_m_source_file>  (348) 
/var/tmp/pbs.5076255.sched01/tmpk7n3yjou/123nw9z_609.sdf

>  <i_m_source_file_index>  (348) 
32

>  <i_lp_mmshare_version>  (348) 
48012

>  <i_f3d_flags>  (348) 
0

>  <s_epik_input>  (348) 
W0NIMl0xW0NIMl1DKD1PKVtDSDJdQyg9W0NIXUMyPU8pW0NAQEhdMVtDQF0oW0NIM10pKFtDSDJdW0NIMl0zKVtDQEhdMltDQEhdKFtDSDJdW0NIMl00KVtDQEhdM1tDQF01KFtDSDNdKVtDQF0oTzYpKFtPSF0pW0NASF00W0NIMl1bQ0BASF02W0NAQF01N1tDSDJdTzc=

>  <s_epik_cmdline>  (348) 
J2VwaWtfcHl0aG9uJywgJy1waHQnLCAnMi4wJywgJy1waCcsICc3LjAnLCAnLXRuJywgJzgnLCAnLW1hJywgJzIwMCcsICctaW1hZScsICc8aW5maWxlLm1hZT4nLCAnLW9tYWUnLCAnPG91dGZpbGUubWFlPic=

>  <r_lp_tautomer_probability>  (348) 
1

>  <r_epik_Ionization_Penalty>  (348) 
7.96938e-07

>  <r_epik_Ionization_Penalty_Charging>  (348) 
0

>  <r_epik_Ionization_Penalty_Neutral>  (348) 
7.96938e-07

>  <r_epik_State_Penalty>  (348) 
-0

>  <r_epik_Charging_Adjusted_Penalty>  (348) 
0

>  <i_epik_Tot_Q>  (348) 
0

>  <i_epik_Tot_abs_Q>  (348) 
0

>  <s_lp_Force_Field>  (348) 
OPLS3e

>  <r_lp_Energy>  (348) 
74.3845

>  <b_lp_Chiralities_Consistent>  (348) 
1

>  <s_lp_Variant>  (348) 
107:0-1

>  <s_i_glide_gridfile>  (348) 
pfpi4k_grid

>  <i_i_glide_lignum>  (348) 
32

>  <i_i_glide_rotatable_bonds>  (348) 
1

>  <r_i_docking_score>  (348) 
-2.93526

>  <r_i_glide_ligand_efficiency>  (348) 
-0.0978421

>  <r_i_glide_ligand_efficiency_sa>  (348) 
-0.304018

>  <r_i_glide_ligand_efficiency_ln>  (348) 
-0.666924

>  <r_i_glide_gscore>  (348) 
-2.93526

>  <r_i_glide_lipo>  (348) 
-0.419136

>  <r_i_glide_hbond>  (348) 
-0.00896972

>  <r_i_glide_metal>  (348) 
-0

>  <r_i_glide_rewards>  (348) 
-0.725431

>  <r_i_glide_evdw>  (348) 
-30.7152

>  <r_i_glide_ecoul>  (348) 
-1.42872

>  <r_i_glide_erotb>  (348) 
0

>  <r_i_glide_esite>  (348) 
-0.0316609

>  <r_i_glide_emodel>  (348) 
-38.2365

>  <r_i_glide_energy>  (348) 
-32.1439

>  <r_i_glide_einternal>  (348) 
0.0297699

>  <r_i_glide_intrahb_reward>  (348) 
-0

>  <i_i_glide_confnum>  (348) 
2

>  <i_i_glide_posenum>  (348) 
3

>  <r_i_glide_eff_state_penalty>  (348) 
0

>  <ligand_id>  (348) 
107

>  <original_smiles>  (348) 
CC12CCC3C(CCC4CC5OC4(O)C3(C)C53CO3)C1C(=O)C=C1CC(=O)CCC12

>  <smiles>  (348) 
[H]OC12OC3([H])C([H])([H])C1([H])C([H])([H])C([H])([H])C1([H])C4([H])C(=O)C([H])=C5C([H])([H])C(=O)C([H])([H])C([H])([H])C5([H])C4(C([H])([H])[H])C([H])([H])C([H])([H])C1([H])C2(C([H])([H])[H])C31OC1([H])[H]

$$$$
109:0:0
     RDKit          3D

 41 43  0  0  1  0  0  0  0  0999 V2000
    0.2160    1.6964    1.2807 N   0  0  0  0  0  0  0  0  0  0  0  0
   -0.6107    0.9426    2.2069 C   0  0  0  0  0  0  0  0  0  0  0  0
   -0.4227    1.5089    3.5959 C   0  0  0  0  0  0  0  0  0  0  0  0
   -1.1642    0.7018    4.4885 O   0  0  0  0  0  0  0  0  0  0  0  0
   -1.4601    1.1280    5.7167 C   0  0  0  0  0  0  0  0  0  0  0  0
   -2.1755    0.4764    6.4680 O   0  0  0  0  0  0  0  0  0  0  0  0
   -0.8335    2.4789    6.1402 C   0  0  0  0  0  0  0  0  0  0  0  0
   -1.2047    3.0725    7.5209 C   0  0  2  0  0  0  0  0  0  0  0  0
   -0.8306    2.1160    8.6888 C   0  0  0  0  0  0  0  0  0  0  0  0
   -1.1988    2.7594   10.0313 C   0  0  1  0  0  0  0  0  0  0  0  0
   -0.3872    4.0502   10.2080 C   0  0  0  0  0  0  0  0  0  0  0  0
   -0.7529    5.0334    9.0731 C   0  0  2  0  0  0  0  0  0  0  0  0
   -2.2630    5.3577    9.1130 C   0  0  0  0  0  0  0  0  0  0  0  0
   -3.0655    4.0551    8.9258 C   0  0  2  0  0  0  0  0  0  0  0  0
   -2.7138    3.0671   10.0590 C   0  0  0  0  0  0  0  0  0  0  0  0
   -2.7144    3.4201    7.5729 C   0  0  0  0  0  0  0  0  0  0  0  0
   -0.4062    4.3955    7.7129 C   0  0  0  0  0  0  0  0  0  0  0  0
    0.0447    1.3100    0.3524 H   0  0  0  0  0  0  0  0  0  0  0  0
    1.1985    1.6193    1.5181 H   0  0  0  0  0  0  0  0  0  0  0  0
   -1.6627    1.0156    1.9223 H   0  0  0  0  0  0  0  0  0  0  0  0
   -0.3052   -0.1006    2.1767 H   0  0  0  0  0  0  0  0  0  0  0  0
    0.6242    1.5270    3.9053 H   0  0  0  0  0  0  0  0  0  0  0  0
   -0.8304    2.5162    3.5832 H   0  0  0  0  0  0  0  0  0  0  0  0
    0.2612    2.4066    6.0811 H   0  0  0  0  0  0  0  0  0  0  0  0
   -1.1315    3.2588    5.4312 H   0  0  0  0  0  0  0  0  0  0  0  0
   -1.3582    1.1615    8.6556 H   0  0  0  0  0  0  0  0  0  0  0  0
    0.2419    1.8818    8.6544 H   0  0  0  0  0  0  0  0  0  0  0  0
   -0.9584    2.0560   10.8302 H   0  0  0  0  0  0  0  0  0  0  0  0
   -0.5853    4.4891   11.1830 H   0  0  0  0  0  0  0  0  0  0  0  0
    0.6785    3.8208   10.1679 H   0  0  0  0  0  0  0  0  0  0  0  0
   -0.1833    5.9590    9.2044 H   0  0  0  0  0  0  0  0  0  0  0  0
   -2.5346    5.8323   10.0560 H   0  0  0  0  0  0  0  0  0  0  0  0
   -2.5097    6.0684    8.3246 H   0  0  0  0  0  0  0  0  0  0  0  0
   -4.1339    4.2769    8.9522 H   0  0  0  0  0  0  0  0  0  0  0  0
   -3.2909    2.1494    9.9368 H   0  0  0  0  0  0  0  0  0  0  0  0
   -2.9945    3.4795   11.0271 H   0  0  0  0  0  0  0  0  0  0  0  0
   -2.9723    4.1027    6.7612 H   0  0  0  0  0  0  0  0  0  0  0  0
   -3.3461    2.5421    7.4292 H   0  0  0  0  0  0  0  0  0  0  0  0
    0.6677    4.2133    7.6633 H   0  0  0  0  0  0  0  0  0  0  0  0
   -0.6197    5.1046    6.9146 H   0  0  0  0  0  0  0  0  0  0  0  0
   -0.0232    2.7016    1.2585 H   0  0  0  0  0  0  0  0  0  0  0  0
  1  2  1  0
  1 18  1  0
  1 19  1  0
  1 41  1  0
  2  3  1  0
  2 20  1  0
  2 21  1  0
  3  4  1  0
  3 22  1  0
  3 23  1  0
  4  5  1  0
  5  6  2  0
  5  7  1  0
  8  7  1  6
  7 24  1  0
  7 25  1  0
  8 16  1  0
  8 17  1  0
  8  9  1  0
  9 10  1  0
  9 26  1  0
  9 27  1  0
 10 15  1  0
 10 11  1  0
 10 28  1  1
 11 12  1  0
 11 29  1  0
 11 30  1  0
 12 13  1  0
 12 17  1  0
 12 31  1  1
 13 14  1  0
 13 32  1  0
 13 33  1  0
 14 15  1  0
 14 16  1  0
 14 34  1  6
 15 35  1  0
 15 36  1  0
 16 37  1  0
 16 38  1  0
 17 39  1  0
 17 40  1  0
M  CHG  1   1   1
M  END
>  <i_m_ct_stereo_status>  (349) 
1

>  <s_m_source_file>  (349) 
/var/tmp/pbs.5076255.sched01/tmpk7n3yjou/123nw9z_609.sdf

>  <i_m_source_file_index>  (349) 
35

>  <i_lp_mmshare_version>  (349) 
48012

>  <i_f3d_flags>  (349) 
0

>  <s_epik_input>  (349) 
W05IMl1bQ0gyXVtDSDJdT0MoPU8pW0NIMl1DMTJbQ0gyXVtDQEBIXTNbQ0gyXVtDQEhdKFtDSDJdMilbQ0gyXVtDQEBIXShbQ0gyXTMpW0NIMl0x

>  <s_epik_cmdline>  (349) 
J2VwaWtfcHl0aG9uJywgJy1waHQnLCAnMi4wJywgJy1waCcsICc3LjAnLCAnLXRuJywgJzgnLCAnLW1hJywgJzIwMCcsICctaW1hZScsICc8aW5maWxlLm1hZT4nLCAnLW9tYWUnLCAnPG91dGZpbGUubWFlPic=

>  <r_epik_Ionization_Penalty>  (349) 
0.00979437

>  <r_epik_Ionization_Penalty_Charging>  (349) 
0.00979437

>  <r_epik_Ionization_Penalty_Neutral>  (349) 
0

>  <r_epik_State_Penalty>  (349) 
0.00745692

>  <r_epik_Charging_Adjusted_Penalty>  (349) 
0.0172513

>  <i_epik_Tot_Q>  (349) 
1

>  <i_epik_Tot_abs_Q>  (349) 
1

>  <s_epik_Chemistry_Notes>  (349) 
This compound has an ester and may undergo hydrolysis at high or low pH.

>  <s_lp_Force_Field>  (349) 
OPLS3e

>  <r_lp_Energy>  (349) 
-0.698808

>  <b_lp_Chiralities_Consistent>  (349) 
1

>  <s_lp_Variant>  (349) 
109:0-1

>  <s_i_glide_gridfile>  (349) 
pfpi4k_grid

>  <i_i_glide_lignum>  (349) 
35

>  <i_i_glide_rotatable_bonds>  (349) 
5

>  <r_i_docking_score>  (349) 
-3.85876

>  <r_i_glide_ligand_efficiency>  (349) 
-0.226986

>  <r_i_glide_ligand_efficiency_sa>  (349) 
-0.583645

>  <r_i_glide_ligand_efficiency_ln>  (349) 
-1.00667

>  <r_i_glide_gscore>  (349) 
-3.85876

>  <r_i_glide_lipo>  (349) 
-0.190312

>  <r_i_glide_hbond>  (349) 
-0.5563

>  <r_i_glide_metal>  (349) 
-0

>  <r_i_glide_rewards>  (349) 
-1.78401

>  <r_i_glide_evdw>  (349) 
-13.2816

>  <r_i_glide_ecoul>  (349) 
-9.76176

>  <r_i_glide_erotb>  (349) 
0.911421

>  <r_i_glide_esite>  (349) 
-0.111223

>  <r_i_glide_emodel>  (349) 
-28.3111

>  <r_i_glide_energy>  (349) 
-23.0433

>  <r_i_glide_einternal>  (349) 
6.50233

>  <r_i_glide_intrahb_reward>  (349) 
-0

>  <i_i_glide_confnum>  (349) 
4

>  <i_i_glide_posenum>  (349) 
6

>  <r_i_glide_eff_state_penalty>  (349) 
0

>  <ligand_id>  (349) 
109

>  <original_smiles>  (349) 
NCCOC(=O)CC12CC3CC(CC(C3)C1)C2

>  <smiles>  (349) 
[H]C([H])(OC(=O)C([H])([H])C12C([H])([H])C3([H])C([H])([H])C([H])(C([H])([H])C([H])(C3([H])[H])C1([H])[H])C2([H])[H])C([H])([H])[N+]([H])([H])[H]

$$$$
109:0:1
     RDKit          3D

 41 43  0  0  1  0  0  0  0  0999 V2000
    0.3323    1.7278    1.2672 N   0  0  0  0  0  0  0  0  0  0  0  0
   -0.1392    1.1204    2.5289 C   0  0  0  0  0  0  0  0  0  0  0  0
   -1.6284    1.4107    2.6997 C   0  0  0  0  0  0  0  0  0  0  0  0
   -1.8109    2.7862    2.9869 O   0  0  0  0  0  0  0  0  0  0  0  0
   -1.5510    3.3071    4.2039 C   0  0  0  0  0  0  0  0  0  0  0  0
   -1.5777    4.5190    4.4233 O   0  0  0  0  0  0  0  0  0  0  0  0
   -1.2203    2.2846    5.3147 C   0  0  0  0  0  0  0  0  0  0  0  0
   -1.1986    2.7793    6.7621 C   0  0  2  0  0  0  0  0  0  0  0  0
   -2.5966    3.3061    7.1712 C   0  0  0  0  0  0  0  0  0  0  0  0
   -2.5786    3.7508    8.6416 C   0  0  1  0  0  0  0  0  0  0  0  0
   -2.2395    2.5409    9.5315 C   0  0  0  0  0  0  0  0  0  0  0  0
   -0.8407    1.9980    9.1621 C   0  0  2  0  0  0  0  0  0  0  0  0
    0.2269    3.0936    9.3534 C   0  0  0  0  0  0  0  0  0  0  0  0
   -0.1177    4.3070    8.4590 C   0  0  2  0  0  0  0  0  0  0  0  0
   -1.5146    4.8522    8.8259 C   0  0  0  0  0  0  0  0  0  0  0  0
   -0.1163    3.8727    6.9825 C   0  0  0  0  0  0  0  0  0  0  0  0
   -0.8525    1.5665    7.6825 C   0  0  0  0  0  0  0  0  0  0  0  0
    1.3079    1.5267    1.1408 H   0  0  0  0  0  0  0  0  0  0  0  0
    0.2119    2.7495    1.2557 H   0  0  0  0  0  0  0  0  0  0  0  0
    0.0413    0.0455    2.4739 H   0  0  0  0  0  0  0  0  0  0  0  0
    0.5026    1.5236    3.3128 H   0  0  0  0  0  0  0  0  0  0  0  0
   -2.1592    1.1814    1.7705 H   0  0  0  0  0  0  0  0  0  0  0  0
   -2.0290    0.7856    3.4969 H   0  0  0  0  0  0  0  0  0  0  0  0
   -1.9506    1.4817    5.2724 H   0  0  0  0  0  0  0  0  0  0  0  0
   -0.2441    1.8457    5.1314 H   0  0  0  0  0  0  0  0  0  0  0  0
   -2.9014    4.1447    6.5501 H   0  0  0  0  0  0  0  0  0  0  0  0
   -3.3475    2.5303    7.0239 H   0  0  0  0  0  0  0  0  0  0  0  0
   -3.5653    4.1352    8.9045 H   0  0  0  0  0  0  0  0  0  0  0  0
   -2.2742    2.8200   10.5895 H   0  0  0  0  0  0  0  0  0  0  0  0
   -2.9907    1.7629    9.3913 H   0  0  0  0  0  0  0  0  0  0  0  0
   -0.6040    1.1446    9.7961 H   0  0  0  0  0  0  0  0  0  0  0  0
    0.2815    3.4004   10.4020 H   0  0  0  0  0  0  0  0  0  0  0  0
    1.2099    2.7050    9.0883 H   0  0  0  0  0  0  0  0  0  0  0  0
    0.6354    5.0829    8.6046 H   0  0  0  0  0  0  0  0  0  0  0  0
   -1.7525    5.7043    8.1904 H   0  0  0  0  0  0  0  0  0  0  0  0
   -1.5245    5.2121    9.8554 H   0  0  0  0  0  0  0  0  0  0  0  0
    0.8677    3.4812    6.7191 H   0  0  0  0  0  0  0  0  0  0  0  0
   -0.2908    4.7485    6.3572 H   0  0  0  0  0  0  0  0  0  0  0  0
   -1.5738    0.7641    7.5370 H   0  0  0  0  0  0  0  0  0  0  0  0
    0.1148    1.1422    7.4180 H   0  0  0  0  0  0  0  0  0  0  0  0
   -0.1792    1.3359    0.4944 H   0  0  0  0  0  0  0  0  0  0  0  0
  1  2  1  0
  1 18  1  0
  1 19  1  0
  1 41  1  0
  2  3  1  0
  2 20  1  0
  2 21  1  0
  3  4  1  0
  3 22  1  0
  3 23  1  0
  4  5  1  0
  5  6  2  0
  5  7  1  0
  8  7  1  6
  7 24  1  0
  7 25  1  0
  8 16  1  0
  8 17  1  0
  8  9  1  0
  9 10  1  0
  9 26  1  0
  9 27  1  0
 10 15  1  0
 10 11  1  0
 10 28  1  1
 11 12  1  0
 11 29  1  0
 11 30  1  0
 12 13  1  0
 12 17  1  0
 12 31  1  1
 13 14  1  0
 13 32  1  0
 13 33  1  0
 14 15  1  0
 14 16  1  0
 14 34  1  6
 15 35  1  0
 15 36  1  0
 16 37  1  0
 16 38  1  0
 17 39  1  0
 17 40  1  0
M  CHG  1   1   1
M  END
>  <i_m_ct_stereo_status>  (350) 
1

>  <s_m_source_file>  (350) 
/var/tmp/pbs.5076255.sched01/tmpk7n3yjou/123nw9z_609.sdf

>  <i_m_source_file_index>  (350) 
35

>  <i_lp_mmshare_version>  (350) 
48012

>  <i_f3d_flags>  (350) 
0

>  <s_epik_input>  (350) 
W05IMl1bQ0gyXVtDSDJdT0MoPU8pW0NIMl1DMTJbQ0gyXVtDQEBIXTNbQ0gyXVtDQEhdKFtDSDJdMilbQ0gyXVtDQEBIXShbQ0gyXTMpW0NIMl0x

>  <s_epik_cmdline>  (350) 
J2VwaWtfcHl0aG9uJywgJy1waHQnLCAnMi4wJywgJy1waCcsICc3LjAnLCAnLXRuJywgJzgnLCAnLW1hJywgJzIwMCcsICctaW1hZScsICc8aW5maWxlLm1hZT4nLCAnLW9tYWUnLCAnPG91dGZpbGUubWFlPic=

>  <r_epik_Ionization_Penalty>  (350) 
0.00979437

>  <r_epik_Ionization_Penalty_Charging>  (350) 
0.00979437

>  <r_epik_Ionization_Penalty_Neutral>  (350) 
0

>  <r_epik_State_Penalty>  (350) 
0.00745692

>  <r_epik_Charging_Adjusted_Penalty>  (350) 
0.0172513

>  <i_epik_Tot_Q>  (350) 
1

>  <i_epik_Tot_abs_Q>  (350) 
1

>  <s_epik_Chemistry_Notes>  (350) 
This compound has an ester and may undergo hydrolysis at high or low pH.

>  <s_lp_Force_Field>  (350) 
OPLS3e

>  <r_lp_Energy>  (350) 
-0.698808

>  <b_lp_Chiralities_Consistent>  (350) 
1

>  <s_lp_Variant>  (350) 
109:0-1

>  <s_i_glide_gridfile>  (350) 
pfpi4k_grid

>  <i_i_glide_lignum>  (350) 
35

>  <i_i_glide_rotatable_bonds>  (350) 
5

>  <r_i_docking_score>  (350) 
-3.80328

>  <r_i_glide_ligand_efficiency>  (350) 
-0.223723

>  <r_i_glide_ligand_efficiency_sa>  (350) 
-0.575254

>  <r_i_glide_ligand_efficiency_ln>  (350) 
-0.992192

>  <r_i_glide_gscore>  (350) 
-3.80328

>  <r_i_glide_lipo>  (350) 
-0.187155

>  <r_i_glide_hbond>  (350) 
-0.495133

>  <r_i_glide_metal>  (350) 
-0

>  <r_i_glide_rewards>  (350) 
-1.78401

>  <r_i_glide_evdw>  (350) 
-11.891

>  <r_i_glide_ecoul>  (350) 
-10.2564

>  <r_i_glide_erotb>  (350) 
0.911421

>  <r_i_glide_esite>  (350) 
-0.115395

>  <r_i_glide_emodel>  (350) 
-26.3752

>  <r_i_glide_energy>  (350) 
-22.1475

>  <r_i_glide_einternal>  (350) 
7.60691

>  <r_i_glide_intrahb_reward>  (350) 
-0

>  <i_i_glide_confnum>  (350) 
4

>  <i_i_glide_posenum>  (350) 
31

>  <r_i_glide_eff_state_penalty>  (350) 
0

>  <ligand_id>  (350) 
109

>  <original_smiles>  (350) 
NCCOC(=O)CC12CC3CC(CC(C3)C1)C2

>  <smiles>  (350) 
[H]C([H])(OC(=O)C([H])([H])C12C([H])([H])C3([H])C([H])([H])C([H])(C([H])([H])C([H])(C3([H])[H])C1([H])[H])C2([H])[H])C([H])([H])[N+]([H])([H])[H]

$$$$
109:0:2
     RDKit          3D

 41 43  0  0  1  0  0  0  0  0999 V2000
    1.1542    2.0240    1.6813 N   0  0  0  0  0  0  0  0  0  0  0  0
    0.8662    1.2434    2.8871 C   0  0  0  0  0  0  0  0  0  0  0  0
   -0.6308    0.8769    2.9134 C   0  0  0  0  0  0  0  0  0  0  0  0
   -0.8617   -0.0255    4.0066 O   0  0  0  0  0  0  0  0  0  0  0  0
   -1.1674    0.4245    5.2470 C   0  0  0  0  0  0  0  0  0  0  0  0
   -1.3835   -0.3272    6.1864 O   0  0  0  0  0  0  0  0  0  0  0  0
   -1.2392    1.9516    5.3932 C   0  0  0  0  0  0  0  0  0  0  0  0
   -1.1735    2.5216    6.8117 C   0  0  2  0  0  0  0  0  0  0  0  0
   -2.4152    2.0980    7.6421 C   0  0  0  0  0  0  0  0  0  0  0  0
   -2.3370    2.7322    9.0449 C   0  0  1  0  0  0  0  0  0  0  0  0
   -1.0394    2.2611    9.7367 C   0  0  0  0  0  0  0  0  0  0  0  0
    0.1909    2.7274    8.9296 C   0  0  2  0  0  0  0  0  0  0  0  0
    0.1936    4.2652    8.8033 C   0  0  0  0  0  0  0  0  0  0  0  0
   -1.1043    4.7178    8.0974 C   0  0  2  0  0  0  0  0  0  0  0  0
   -2.3327    4.2745    8.9275 C   0  0  0  0  0  0  0  0  0  0  0  0
   -1.1642    4.0689    6.6975 C   0  0  0  0  0  0  0  0  0  0  0  0
    0.1326    2.0950    7.5314 C   0  0  0  0  0  0  0  0  0  0  0  0
    2.1223    2.2734    1.6344 H   0  0  0  0  0  0  0  0  0  0  0  0
    0.6143    2.8859    1.6153 H   0  0  0  0  0  0  0  0  0  0  0  0
    1.4837    0.3477    2.8618 H   0  0  0  0  0  0  0  0  0  0  0  0
    1.1701    1.8324    3.7513 H   0  0  0  0  0  0  0  0  0  0  0  0
   -1.2510    1.7813    3.0140 H   0  0  0  0  0  0  0  0  0  0  0  0
   -0.8996    0.3457    1.9962 H   0  0  0  0  0  0  0  0  0  0  0  0
   -0.4209    2.3957    4.8358 H   0  0  0  0  0  0  0  0  0  0  0  0
   -2.1641    2.2856    4.9149 H   0  0  0  0  0  0  0  0  0  0  0  0
   -3.3288    2.4486    7.1515 H   0  0  0  0  0  0  0  0  0  0  0  0
   -2.4754    1.0144    7.7227 H   0  0  0  0  0  0  0  0  0  0  0  0
   -3.2027    2.4300    9.6350 H   0  0  0  0  0  0  0  0  0  0  0  0
   -0.9914    2.6280   10.7644 H   0  0  0  0  0  0  0  0  0  0  0  0
   -1.0309    1.1732    9.8014 H   0  0  0  0  0  0  0  0  0  0  0  0
    1.1057    2.4051    9.4324 H   0  0  0  0  0  0  0  0  0  0  0  0
    0.2778    4.7321    9.7908 H   0  0  0  0  0  0  0  0  0  0  0  0
    1.0658    4.5922    8.2286 H   0  0  0  0  0  0  0  0  0  0  0  0
   -1.0989    5.8078    8.0047 H   0  0  0  0  0  0  0  0  0  0  0  0
   -3.2507    4.6217    8.4476 H   0  0  0  0  0  0  0  0  0  0  0  0
   -2.3081    4.7377    9.9215 H   0  0  0  0  0  0  0  0  0  0  0  0
   -0.3154    4.4079    6.1051 H   0  0  0  0  0  0  0  0  0  0  0  0
   -2.0483    4.3917    6.1618 H   0  0  0  0  0  0  0  0  0  0  0  0
    0.2099    1.0083    7.6251 H   0  0  0  0  0  0  0  0  0  0  0  0
    0.9974    2.4143    6.9506 H   0  0  0  0  0  0  0  0  0  0  0  0
    0.9134    1.4866    0.8640 H   0  0  0  0  0  0  0  0  0  0  0  0
  1  2  1  0
  1 18  1  0
  1 19  1  0
  1 41  1  0
  2  3  1  0
  2 20  1  0
  2 21  1  0
  3  4  1  0
  3 22  1  0
  3 23  1  0
  4  5  1  0
  5  6  2  0
  5  7  1  0
  8  7  1  6
  7 24  1  0
  7 25  1  0
  8 16  1  0
  8 17  1  0
  8  9  1  0
  9 10  1  0
  9 26  1  0
  9 27  1  0
 10 15  1  0
 10 11  1  0
 10 28  1  1
 11 12  1  0
 11 29  1  0
 11 30  1  0
 12 13  1  0
 12 17  1  0
 12 31  1  1
 13 14  1  0
 13 32  1  0
 13 33  1  0
 14 15  1  0
 14 16  1  0
 14 34  1  6
 15 35  1  0
 15 36  1  0
 16 37  1  0
 16 38  1  0
 17 39  1  0
 17 40  1  0
M  CHG  1   1   1
M  END
>  <i_m_ct_stereo_status>  (351) 
1

>  <s_m_source_file>  (351) 
/var/tmp/pbs.5076255.sched01/tmpk7n3yjou/123nw9z_609.sdf

>  <i_m_source_file_index>  (351) 
35

>  <i_lp_mmshare_version>  (351) 
48012

>  <i_f3d_flags>  (351) 
0

>  <s_epik_input>  (351) 
W05IMl1bQ0gyXVtDSDJdT0MoPU8pW0NIMl1DMTJbQ0gyXVtDQEBIXTNbQ0gyXVtDQEhdKFtDSDJdMilbQ0gyXVtDQEBIXShbQ0gyXTMpW0NIMl0x

>  <s_epik_cmdline>  (351) 
J2VwaWtfcHl0aG9uJywgJy1waHQnLCAnMi4wJywgJy1waCcsICc3LjAnLCAnLXRuJywgJzgnLCAnLW1hJywgJzIwMCcsICctaW1hZScsICc8aW5maWxlLm1hZT4nLCAnLW9tYWUnLCAnPG91dGZpbGUubWFlPic=

>  <r_epik_Ionization_Penalty>  (351) 
0.00979437

>  <r_epik_Ionization_Penalty_Charging>  (351) 
0.00979437

>  <r_epik_Ionization_Penalty_Neutral>  (351) 
0

>  <r_epik_State_Penalty>  (351) 
0.00745692

>  <r_epik_Charging_Adjusted_Penalty>  (351) 
0.0172513

>  <i_epik_Tot_Q>  (351) 
1

>  <i_epik_Tot_abs_Q>  (351) 
1

>  <s_epik_Chemistry_Notes>  (351) 
This compound has an ester and may undergo hydrolysis at high or low pH.

>  <s_lp_Force_Field>  (351) 
OPLS3e

>  <r_lp_Energy>  (351) 
-0.698808

>  <b_lp_Chiralities_Consistent>  (351) 
1

>  <s_lp_Variant>  (351) 
109:0-1

>  <s_i_glide_gridfile>  (351) 
pfpi4k_grid

>  <i_i_glide_lignum>  (351) 
35

>  <i_i_glide_rotatable_bonds>  (351) 
5

>  <r_i_docking_score>  (351) 
-3.03305

>  <r_i_glide_ligand_efficiency>  (351) 
-0.178415

>  <r_i_glide_ligand_efficiency_sa>  (351) 
-0.458754

>  <r_i_glide_ligand_efficiency_ln>  (351) 
-0.791255

>  <r_i_glide_gscore>  (351) 
-3.03305

>  <r_i_glide_lipo>  (351) 
-0.0172168

>  <r_i_glide_hbond>  (351) 
-0.322489

>  <r_i_glide_metal>  (351) 
-0

>  <r_i_glide_rewards>  (351) 
-1.78401

>  <r_i_glide_evdw>  (351) 
-11.4445

>  <r_i_glide_ecoul>  (351) 
-7.56129

>  <r_i_glide_erotb>  (351) 
0.911421

>  <r_i_glide_esite>  (351) 
-0.114341

>  <r_i_glide_emodel>  (351) 
-22.7186

>  <r_i_glide_energy>  (351) 
-19.0058

>  <r_i_glide_einternal>  (351) 
5.92003

>  <r_i_glide_intrahb_reward>  (351) 
-0

>  <i_i_glide_confnum>  (351) 
6

>  <i_i_glide_posenum>  (351) 
22

>  <r_i_glide_eff_state_penalty>  (351) 
0

>  <ligand_id>  (351) 
109

>  <original_smiles>  (351) 
NCCOC(=O)CC12CC3CC(CC(C3)C1)C2

>  <smiles>  (351) 
[H]C([H])(OC(=O)C([H])([H])C12C([H])([H])C3([H])C([H])([H])C([H])(C([H])([H])C([H])(C3([H])[H])C1([H])[H])C2([H])[H])C([H])([H])[N+]([H])([H])[H]

$$$$
109:1:0
     RDKit          3D

 40 42  0  0  1  0  0  0  0  0999 V2000
   -5.7848   -4.2384   -4.6953 N   0  0  0  0  0  0  0  0  0  0  0  0
   -7.0281   -4.2635   -5.4646 C   0  0  0  0  0  0  0  0  0  0  0  0
   -7.8303   -5.5156   -5.1104 C   0  0  0  0  0  0  0  0  0  0  0  0
   -7.0091   -6.6741   -5.1426 O   0  0  0  0  0  0  0  0  0  0  0  0
   -6.7592   -7.2676   -6.3012 C   0  0  0  0  0  0  0  0  0  0  0  0
   -7.2491   -6.9338   -7.3873 O   0  0  0  0  0  0  0  0  0  0  0  0
   -5.7896   -8.4455   -6.1704 C   0  0  0  0  0  0  0  0  0  0  0  0
   -6.2839   -9.7977   -6.7559 C   0  0  1  0  0  0  0  0  0  0  0  0
   -6.4042   -9.7538   -8.3045 C   0  0  0  0  0  0  0  0  0  0  0  0
   -6.8664  -11.1218   -8.8478 C   0  0  2  0  0  0  0  0  0  0  0  0
   -8.2364  -11.4781   -8.2422 C   0  0  0  0  0  0  0  0  0  0  0  0
   -8.1082  -11.5922   -6.7183 C   0  0  1  0  0  0  0  0  0  0  0  0
   -7.0634  -12.6711   -6.3608 C   0  0  0  0  0  0  0  0  0  0  0  0
   -5.6993  -12.2796   -6.9545 C   0  0  1  0  0  0  0  0  0  0  0  0
   -5.8188  -12.1920   -8.4841 C   0  0  0  0  0  0  0  0  0  0  0  0
   -5.2536  -10.9029   -6.3939 C   0  0  0  0  0  0  0  0  0  0  0  0
   -7.6715  -10.2133   -6.1795 C   0  0  0  0  0  0  0  0  0  0  0  0
   -5.2390   -3.4142   -4.8800 H   0  0  0  0  0  0  0  0  0  0  0  0
   -6.0148   -4.2138   -3.7146 H   0  0  0  0  0  0  0  0  0  0  0  0
   -7.6389   -3.3985   -5.2136 H   0  0  0  0  0  0  0  0  0  0  0  0
   -6.7882   -4.2190   -6.5256 H   0  0  0  0  0  0  0  0  0  0  0  0
   -8.2357   -5.3989   -4.1126 H   0  0  0  0  0  0  0  0  0  0  0  0
   -8.6838   -5.6105   -5.7846 H   0  0  0  0  0  0  0  0  0  0  0  0
   -4.8459   -8.1443   -6.6349 H   0  0  0  0  0  0  0  0  0  0  0  0
   -5.5567   -8.5651   -5.1049 H   0  0  0  0  0  0  0  0  0  0  0  0
   -7.1273   -9.0266   -8.6559 H   0  0  0  0  0  0  0  0  0  0  0  0
   -5.4486   -9.4733   -8.7184 H   0  0  0  0  0  0  0  0  0  0  0  0
   -6.9753  -11.0585   -9.9199 H   0  0  0  0  0  0  0  0  0  0  0  0
   -8.9612  -10.7071   -8.4923 H   0  0  0  0  0  0  0  0  0  0  0  0
   -8.6082  -12.4121   -8.6649 H   0  0  0  0  0  0  0  0  0  0  0  0
   -9.0710  -11.8450   -6.2822 H   0  0  0  0  0  0  0  0  0  0  0  0
   -6.9792  -12.8062   -5.2832 H   0  0  0  0  0  0  0  0  0  0  0  0
   -7.3899  -13.6372   -6.7538 H   0  0  0  0  0  0  0  0  0  0  0  0
   -4.9659  -13.0440   -6.6902 H   0  0  0  0  0  0  0  0  0  0  0  0
   -6.1103  -13.1596   -8.8981 H   0  0  0  0  0  0  0  0  0  0  0  0
   -4.8575  -11.9357   -8.9179 H   0  0  0  0  0  0  0  0  0  0  0  0
   -4.2709  -10.6541   -6.7910 H   0  0  0  0  0  0  0  0  0  0  0  0
   -5.1055  -10.9747   -5.3163 H   0  0  0  0  0  0  0  0  0  0  0  0
   -7.6275  -10.2464   -5.0978 H   0  0  0  0  0  0  0  0  0  0  0  0
   -8.4469   -9.4886   -6.4159 H   0  0  0  0  0  0  0  0  0  0  0  0
  1  2  1  0
  1 18  1  0
  1 19  1  0
  2  3  1  0
  2 20  1  0
  2 21  1  0
  3  4  1  0
  3 22  1  0
  3 23  1  0
  4  5  1  0
  5  6  2  0
  5  7  1  0
  8  7  1  1
  7 24  1  0
  7 25  1  0
  8 16  1  0
  8 17  1  0
  8  9  1  0
  9 10  1  0
  9 26  1  0
  9 27  1  0
 10 15  1  0
 10 11  1  0
 10 28  1  6
 11 12  1  0
 11 29  1  0
 11 30  1  0
 12 13  1  0
 12 17  1  0
 12 31  1  1
 13 14  1  0
 13 32  1  0
 13 33  1  0
 14 15  1  0
 14 16  1  0
 14 34  1  6
 15 35  1  0
 15 36  1  0
 16 37  1  0
 16 38  1  0
 17 39  1  0
 17 40  1  0
M  END
>  <i_m_ct_stereo_status>  (352) 
1

>  <s_m_source_file>  (352) 
/var/tmp/pbs.5076255.sched01/tmpk7n3yjou/123nw9z_609.sdf

>  <i_m_source_file_index>  (352) 
36

>  <i_lp_mmshare_version>  (352) 
48012

>  <i_f3d_flags>  (352) 
0

>  <s_epik_input>  (352) 
W05IMl1bQ0gyXVtDSDJdT0MoPU8pW0NIMl1DMTJbQ0gyXVtDQEBIXTNbQ0gyXVtDQEhdKFtDSDJdMilbQ0gyXVtDQEBIXShbQ0gyXTMpW0NIMl0x

>  <s_epik_cmdline>  (352) 
J2VwaWtfcHl0aG9uJywgJy1waHQnLCAnMi4wJywgJy1waCcsICc3LjAnLCAnLXRuJywgJzgnLCAnLW1hJywgJzIwMCcsICctaW1hZScsICc8aW5maWxlLm1hZT4nLCAnLW9tYWUnLCAnPG91dGZpbGUubWFlPic=

>  <r_epik_Ionization_Penalty>  (352) 
2.43557

>  <r_epik_Ionization_Penalty_Charging>  (352) 
0

>  <r_epik_Ionization_Penalty_Neutral>  (352) 
2.43557

>  <r_epik_State_Penalty>  (352) 
2.59596

>  <r_epik_Charging_Adjusted_Penalty>  (352) 
2.59596

>  <i_epik_Tot_Q>  (352) 
0

>  <i_epik_Tot_abs_Q>  (352) 
0

>  <s_epik_Chemistry_Notes>  (352) 
This compound has an ester and may undergo hydrolysis at high or low pH.

>  <s_lp_Force_Field>  (352) 
OPLS3e

>  <r_lp_Energy>  (352) 
0.853139

>  <b_lp_Chiralities_Consistent>  (352) 
1

>  <s_lp_Variant>  (352) 
109:0-2

>  <s_i_glide_gridfile>  (352) 
pfpi4k_grid

>  <i_i_glide_lignum>  (352) 
36

>  <i_i_glide_rotatable_bonds>  (352) 
5

>  <r_i_docking_score>  (352) 
-4.61113

>  <r_i_glide_ligand_efficiency>  (352) 
-0.271243

>  <r_i_glide_ligand_efficiency_sa>  (352) 
-0.697442

>  <r_i_glide_ligand_efficiency_ln>  (352) 
-1.20294

>  <r_i_glide_gscore>  (352) 
-4.61113

>  <r_i_glide_lipo>  (352) 
-1.78598

>  <r_i_glide_hbond>  (352) 
-0.172174

>  <r_i_glide_metal>  (352) 
-0

>  <r_i_glide_rewards>  (352) 
-2.30309

>  <r_i_glide_evdw>  (352) 
-19.8432

>  <r_i_glide_ecoul>  (352) 
-1.83833

>  <r_i_glide_erotb>  (352) 
0.918026

>  <r_i_glide_esite>  (352) 
0

>  <r_i_glide_emodel>  (352) 
-26.3466

>  <r_i_glide_energy>  (352) 
-21.6816

>  <r_i_glide_einternal>  (352) 
5.08016

>  <r_i_glide_intrahb_reward>  (352) 
-0

>  <i_i_glide_confnum>  (352) 
3

>  <i_i_glide_posenum>  (352) 
8

>  <r_i_glide_eff_state_penalty>  (352) 
0

>  <ligand_id>  (352) 
109

>  <original_smiles>  (352) 
NCCOC(=O)CC12CC3CC(CC(C3)C1)C2

>  <smiles>  (352) 
[H]N([H])C([H])([H])C([H])([H])OC(=O)C([H])([H])C12C([H])([H])C3([H])C([H])([H])C([H])(C([H])([H])C([H])(C3([H])[H])C1([H])[H])C2([H])[H]

$$$$
109:1:1
     RDKit          3D

 40 42  0  0  1  0  0  0  0  0999 V2000
   -0.9214    5.3538    3.2499 N   0  0  0  0  0  0  0  0  0  0  0  0
   -0.6520    4.2309    4.1183 C   0  0  0  0  0  0  0  0  0  0  0  0
   -1.8149    3.2216    3.9744 C   0  0  0  0  0  0  0  0  0  0  0  0
   -1.5319    2.0543    4.7373 O   0  0  0  0  0  0  0  0  0  0  0  0
   -1.8306    1.9642    6.0333 C   0  0  0  0  0  0  0  0  0  0  0  0
   -1.7443    0.8623    6.6196 O   0  0  0  0  0  0  0  0  0  0  0  0
   -2.3451    3.1984    6.7734 C   0  0  0  0  0  0  0  0  0  0  0  0
   -1.8211    3.4559    8.2202 C   0  0  1  0  0  0  0  0  0  0  0  0
   -2.5050    4.7558    8.7383 C   0  0  0  0  0  0  0  0  0  0  0  0
   -2.0760    5.0824   10.1797 C   0  0  2  0  0  0  0  0  0  0  0  0
   -0.5452    5.3032   10.2038 C   0  0  0  0  0  0  0  0  0  0  0  0
    0.1595    4.0297    9.7047 C   0  0  1  0  0  0  0  0  0  0  0  0
   -0.2041    2.8517   10.6276 C   0  0  0  0  0  0  0  0  0  0  0  0
   -1.7275    2.6337   10.6171 C   0  0  1  0  0  0  0  0  0  0  0  0
   -2.4484    3.9058   11.0994 C   0  0  0  0  0  0  0  0  0  0  0  0
   -2.1667    2.2800    9.1892 C   0  0  0  0  0  0  0  0  0  0  0  0
   -0.2884    3.7044    8.2611 C   0  0  0  0  0  0  0  0  0  0  0  0
   -0.1532    6.0348    3.2923 H   0  0  0  0  0  0  0  0  0  0  0  0
   -0.8255    4.9583    2.2999 H   0  0  0  0  0  0  0  0  0  0  0  0
    0.3060    3.7835    3.7998 H   0  0  0  0  0  0  0  0  0  0  0  0
   -0.5552    4.6190    5.1571 H   0  0  0  0  0  0  0  0  0  0  0  0
   -2.7710    3.6618    4.2571 H   0  0  0  0  0  0  0  0  0  0  0  0
   -1.9213    2.9172    2.9443 H   0  0  0  0  0  0  0  0  0  0  0  0
   -2.0908    4.1193    6.2561 H   0  0  0  0  0  0  0  0  0  0  0  0
   -3.4435    3.1013    6.8193 H   0  0  0  0  0  0  0  0  0  0  0  0
   -2.2388    5.5962    8.1004 H   0  0  0  0  0  0  0  0  0  0  0  0
   -3.5886    4.6811    8.7016 H   0  0  0  0  0  0  0  0  0  0  0  0
   -2.5731    5.9951   10.5131 H   0  0  0  0  0  0  0  0  0  0  0  0
   -0.2685    6.1597    9.5815 H   0  0  0  0  0  0  0  0  0  0  0  0
   -0.2255    5.5412   11.2282 H   0  0  0  0  0  0  0  0  0  0  0  0
    1.2411    4.1837    9.7235 H   0  0  0  0  0  0  0  0  0  0  0  0
    0.2890    1.9468   10.2705 H   0  0  0  0  0  0  0  0  0  0  0  0
    0.1544    3.0258   11.6511 H   0  0  0  0  0  0  0  0  0  0  0  0
   -1.9727    1.8174   11.2873 H   0  0  0  0  0  0  0  0  0  0  0  0
   -2.1904    4.1204   12.1448 H   0  0  0  0  0  0  0  0  0  0  0  0
   -3.5221    3.7438   11.0706 H   0  0  0  0  0  0  0  0  0  0  0  0
   -3.2470    2.1278    9.2003 H   0  0  0  0  0  0  0  0  0  0  0  0
   -1.6744    1.3509    8.8916 H   0  0  0  0  0  0  0  0  0  0  0  0
    0.2770    2.8513    7.8890 H   0  0  0  0  0  0  0  0  0  0  0  0
   -0.0241    4.5409    7.6209 H   0  0  0  0  0  0  0  0  0  0  0  0
  1  2  1  0
  1 18  1  0
  1 19  1  0
  2  3  1  0
  2 20  1  0
  2 21  1  0
  3  4  1  0
  3 22  1  0
  3 23  1  0
  4  5  1  0
  5  6  2  0
  5  7  1  0
  8  7  1  6
  7 24  1  0
  7 25  1  0
  8 16  1  0
  8 17  1  0
  8  9  1  0
  9 10  1  0
  9 26  1  0
  9 27  1  0
 10 15  1  0
 10 11  1  0
 10 28  1  1
 11 12  1  0
 11 29  1  0
 11 30  1  0
 12 13  1  0
 12 17  1  0
 12 31  1  6
 13 14  1  0
 13 32  1  0
 13 33  1  0
 14 15  1  0
 14 16  1  0
 14 34  1  1
 15 35  1  0
 15 36  1  0
 16 37  1  0
 16 38  1  0
 17 39  1  0
 17 40  1  0
M  END
>  <i_m_ct_stereo_status>  (353) 
1

>  <s_m_source_file>  (353) 
/var/tmp/pbs.5076255.sched01/tmpk7n3yjou/123nw9z_609.sdf

>  <i_m_source_file_index>  (353) 
36

>  <i_lp_mmshare_version>  (353) 
48012

>  <i_f3d_flags>  (353) 
0

>  <s_epik_input>  (353) 
W05IMl1bQ0gyXVtDSDJdT0MoPU8pW0NIMl1DMTJbQ0gyXVtDQEBIXTNbQ0gyXVtDQEhdKFtDSDJdMilbQ0gyXVtDQEBIXShbQ0gyXTMpW0NIMl0x

>  <s_epik_cmdline>  (353) 
J2VwaWtfcHl0aG9uJywgJy1waHQnLCAnMi4wJywgJy1waCcsICc3LjAnLCAnLXRuJywgJzgnLCAnLW1hJywgJzIwMCcsICctaW1hZScsICc8aW5maWxlLm1hZT4nLCAnLW9tYWUnLCAnPG91dGZpbGUubWFlPic=

>  <r_epik_Ionization_Penalty>  (353) 
2.43557

>  <r_epik_Ionization_Penalty_Charging>  (353) 
0

>  <r_epik_Ionization_Penalty_Neutral>  (353) 
2.43557

>  <r_epik_State_Penalty>  (353) 
2.59596

>  <r_epik_Charging_Adjusted_Penalty>  (353) 
2.59596

>  <i_epik_Tot_Q>  (353) 
0

>  <i_epik_Tot_abs_Q>  (353) 
0

>  <s_epik_Chemistry_Notes>  (353) 
This compound has an ester and may undergo hydrolysis at high or low pH.

>  <s_lp_Force_Field>  (353) 
OPLS3e

>  <r_lp_Energy>  (353) 
0.853139

>  <b_lp_Chiralities_Consistent>  (353) 
1

>  <s_lp_Variant>  (353) 
109:0-2

>  <s_i_glide_gridfile>  (353) 
pfpi4k_grid

>  <i_i_glide_lignum>  (353) 
36

>  <i_i_glide_rotatable_bonds>  (353) 
5

>  <r_i_docking_score>  (353) 
-3.31884

>  <r_i_glide_ligand_efficiency>  (353) 
-0.195226

>  <r_i_glide_ligand_efficiency_sa>  (353) 
-0.501981

>  <r_i_glide_ligand_efficiency_ln>  (353) 
-0.865812

>  <r_i_glide_gscore>  (353) 
-3.31884

>  <r_i_glide_lipo>  (353) 
-0.144818

>  <r_i_glide_hbond>  (353) 
-0.446188

>  <r_i_glide_metal>  (353) 
-0

>  <r_i_glide_rewards>  (353) 
-1.79088

>  <r_i_glide_evdw>  (353) 
-12.2054

>  <r_i_glide_ecoul>  (353) 
-8.22672

>  <r_i_glide_erotb>  (353) 
0.918026

>  <r_i_glide_esite>  (353) 
-0.0107042

>  <r_i_glide_emodel>  (353) 
-21.8743

>  <r_i_glide_energy>  (353) 
-20.4321

>  <r_i_glide_einternal>  (353) 
6.85047

>  <r_i_glide_intrahb_reward>  (353) 
-0

>  <i_i_glide_confnum>  (353) 
4

>  <i_i_glide_posenum>  (353) 
21

>  <r_i_glide_eff_state_penalty>  (353) 
0

>  <ligand_id>  (353) 
109

>  <original_smiles>  (353) 
NCCOC(=O)CC12CC3CC(CC(C3)C1)C2

>  <smiles>  (353) 
[H]N([H])C([H])([H])C([H])([H])OC(=O)C([H])([H])C12C([H])([H])C3([H])C([H])([H])C([H])(C([H])([H])C([H])(C3([H])[H])C1([H])[H])C2([H])[H]

$$$$
109:1:2
     RDKit          3D

 40 42  0  0  1  0  0  0  0  0999 V2000
    0.5548    0.1315    2.0628 N   0  0  0  0  0  0  0  0  0  0  0  0
   -0.3847    1.2406    2.0866 C   0  0  0  0  0  0  0  0  0  0  0  0
   -0.4759    1.7868    3.5065 C   0  0  0  0  0  0  0  0  0  0  0  0
   -1.1969    0.8860    4.3240 O   0  0  0  0  0  0  0  0  0  0  0  0
   -1.4678    1.1619    5.6079 C   0  0  0  0  0  0  0  0  0  0  0  0
   -2.1179    0.4151    6.3348 O   0  0  0  0  0  0  0  0  0  0  0  0
   -0.9002    2.5032    6.1266 C   0  0  0  0  0  0  0  0  0  0  0  0
   -1.3614    2.9967    7.5131 C   0  0  1  0  0  0  0  0  0  0  0  0
   -0.9321    2.0222    8.6448 C   0  0  0  0  0  0  0  0  0  0  0  0
   -1.3833    2.5788   10.0089 C   0  0  2  0  0  0  0  0  0  0  0  0
   -2.9151    2.7547   10.0040 C   0  0  0  0  0  0  0  0  0  0  0  0
   -3.3322    3.7614    8.9151 C   0  0  1  0  0  0  0  0  0  0  0  0
   -2.6572    5.1198    9.1877 C   0  0  0  0  0  0  0  0  0  0  0  0
   -1.1249    4.9342    9.1605 C   0  0  1  0  0  0  0  0  0  0  0  0
   -0.7010    3.9405   10.2617 C   0  0  0  0  0  0  0  0  0  0  0  0
   -0.6951    4.3769    7.7860 C   0  0  0  0  0  0  0  0  0  0  0  0
   -2.8990    3.2110    7.5432 C   0  0  0  0  0  0  0  0  0  0  0  0
    0.6314   -0.1666    1.0902 H   0  0  0  0  0  0  0  0  0  0  0  0
    1.4729    0.4628    2.3167 H   0  0  0  0  0  0  0  0  0  0  0  0
   -0.0261    2.0242    1.4130 H   0  0  0  0  0  0  0  0  0  0  0  0
   -1.3712    0.9237    1.7323 H   0  0  0  0  0  0  0  0  0  0  0  0
    0.5247    1.9601    3.9030 H   0  0  0  0  0  0  0  0  0  0  0  0
   -1.0093    2.7323    3.4568 H   0  0  0  0  0  0  0  0  0  0  0  0
    0.1876    2.4251    6.1294 H   0  0  0  0  0  0  0  0  0  0  0  0
   -1.1509    3.2888    5.4141 H   0  0  0  0  0  0  0  0  0  0  0  0
   -1.3527    1.0243    8.4987 H   0  0  0  0  0  0  0  0  0  0  0  0
    0.1550    1.9183    8.6540 H   0  0  0  0  0  0  0  0  0  0  0  0
   -1.0958    1.8895   10.8014 H   0  0  0  0  0  0  0  0  0  0  0  0
   -3.3892    1.7984    9.8034 H   0  0  0  0  0  0  0  0  0  0  0  0
   -3.2670    3.0752   10.9852 H   0  0  0  0  0  0  0  0  0  0  0  0
   -4.4148    3.8857    8.9236 H   0  0  0  0  0  0  0  0  0  0  0  0
   -2.9700    5.8605    8.4499 H   0  0  0  0  0  0  0  0  0  0  0  0
   -2.9747    5.5045   10.1599 H   0  0  0  0  0  0  0  0  0  0  0  0
   -0.6462    5.8990    9.3398 H   0  0  0  0  0  0  0  0  0  0  0  0
   -0.9727    4.3289   11.2466 H   0  0  0  0  0  0  0  0  0  0  0  0
    0.3832    3.8243   10.2590 H   0  0  0  0  0  0  0  0  0  0  0  0
    0.3908    4.2986    7.7453 H   0  0  0  0  0  0  0  0  0  0  0  0
   -0.9609    5.0909    7.0076 H   0  0  0  0  0  0  0  0  0  0  0  0
   -3.1645    3.9116    6.7539 H   0  0  0  0  0  0  0  0  0  0  0  0
   -3.4486    2.2931    7.3374 H   0  0  0  0  0  0  0  0  0  0  0  0
  1  2  1  0
  1 18  1  0
  1 19  1  0
  2  3  1  0
  2 20  1  0
  2 21  1  0
  3  4  1  0
  3 22  1  0
  3 23  1  0
  4  5  1  0
  5  6  2  0
  5  7  1  0
  8  7  1  6
  7 24  1  0
  7 25  1  0
  8 16  1  0
  8 17  1  0
  8  9  1  0
  9 10  1  0
  9 26  1  0
  9 27  1  0
 10 15  1  0
 10 11  1  0
 10 28  1  1
 11 12  1  0
 11 29  1  0
 11 30  1  0
 12 13  1  0
 12 17  1  0
 12 31  1  6
 13 14  1  0
 13 32  1  0
 13 33  1  0
 14 15  1  0
 14 16  1  0
 14 34  1  1
 15 35  1  0
 15 36  1  0
 16 37  1  0
 16 38  1  0
 17 39  1  0
 17 40  1  0
M  END
>  <i_m_ct_stereo_status>  (354) 
1

>  <s_m_source_file>  (354) 
/var/tmp/pbs.5076255.sched01/tmpk7n3yjou/123nw9z_609.sdf

>  <i_m_source_file_index>  (354) 
36

>  <i_lp_mmshare_version>  (354) 
48012

>  <i_f3d_flags>  (354) 
0

>  <s_epik_input>  (354) 
W05IMl1bQ0gyXVtDSDJdT0MoPU8pW0NIMl1DMTJbQ0gyXVtDQEBIXTNbQ0gyXVtDQEhdKFtDSDJdMilbQ0gyXVtDQEBIXShbQ0gyXTMpW0NIMl0x

>  <s_epik_cmdline>  (354) 
J2VwaWtfcHl0aG9uJywgJy1waHQnLCAnMi4wJywgJy1waCcsICc3LjAnLCAnLXRuJywgJzgnLCAnLW1hJywgJzIwMCcsICctaW1hZScsICc8aW5maWxlLm1hZT4nLCAnLW9tYWUnLCAnPG91dGZpbGUubWFlPic=

>  <r_epik_Ionization_Penalty>  (354) 
2.43557

>  <r_epik_Ionization_Penalty_Charging>  (354) 
0

>  <r_epik_Ionization_Penalty_Neutral>  (354) 
2.43557

>  <r_epik_State_Penalty>  (354) 
2.59596

>  <r_epik_Charging_Adjusted_Penalty>  (354) 
2.59596

>  <i_epik_Tot_Q>  (354) 
0

>  <i_epik_Tot_abs_Q>  (354) 
0

>  <s_epik_Chemistry_Notes>  (354) 
This compound has an ester and may undergo hydrolysis at high or low pH.

>  <s_lp_Force_Field>  (354) 
OPLS3e

>  <r_lp_Energy>  (354) 
0.853139

>  <b_lp_Chiralities_Consistent>  (354) 
1

>  <s_lp_Variant>  (354) 
109:0-2

>  <s_i_glide_gridfile>  (354) 
pfpi4k_grid

>  <i_i_glide_lignum>  (354) 
36

>  <i_i_glide_rotatable_bonds>  (354) 
5

>  <r_i_docking_score>  (354) 
-2.88226

>  <r_i_glide_ligand_efficiency>  (354) 
-0.169544

>  <r_i_glide_ligand_efficiency_sa>  (354) 
-0.435946

>  <r_i_glide_ligand_efficiency_ln>  (354) 
-0.751916

>  <r_i_glide_gscore>  (354) 
-2.88226

>  <r_i_glide_lipo>  (354) 
-0.256811

>  <r_i_glide_hbond>  (354) 
-0.32

>  <r_i_glide_metal>  (354) 
-0

>  <r_i_glide_rewards>  (354) 
-1.79088

>  <r_i_glide_evdw>  (354) 
-15.3646

>  <r_i_glide_ecoul>  (354) 
-4.22698

>  <r_i_glide_erotb>  (354) 
0.918026

>  <r_i_glide_esite>  (354) 
-0.0303151

>  <r_i_glide_emodel>  (354) 
-19.8042

>  <r_i_glide_energy>  (354) 
-19.5916

>  <r_i_glide_einternal>  (354) 
8.66682

>  <r_i_glide_intrahb_reward>  (354) 
-0

>  <i_i_glide_confnum>  (354) 
6

>  <i_i_glide_posenum>  (354) 
40

>  <r_i_glide_eff_state_penalty>  (354) 
0

>  <ligand_id>  (354) 
109

>  <original_smiles>  (354) 
NCCOC(=O)CC12CC3CC(CC(C3)C1)C2

>  <smiles>  (354) 
[H]N([H])C([H])([H])C([H])([H])OC(=O)C([H])([H])C12C([H])([H])C3([H])C([H])([H])C([H])(C([H])([H])C([H])(C3([H])[H])C1([H])[H])C2([H])[H]

$$$$
110:0:0
     RDKit          3D

 60 65  0  0  1  0  0  0  0  0999 V2000
    3.6807   -4.0198    5.9917 C   0  0  0  0  0  0  0  0  0  0  0  0
    2.6046   -3.6345    5.2774 C   0  0  0  0  0  0  0  0  0  0  0  0
    1.9080   -4.6381    4.3775 C   0  0  0  0  0  0  0  0  0  0  0  0
    2.0200   -2.2063    5.2795 C   0  0  2  0  0  0  0  0  0  0  0  0
    2.9788   -1.1387    5.8555 C   0  0  0  0  0  0  0  0  0  0  0  0
    2.8009   -0.9103    7.3688 C   0  0  0  0  0  0  0  0  0  0  0  0
    1.4338   -0.2819    7.6941 C   0  0  1  0  0  0  0  0  0  0  0  0
    1.4425    1.2690    7.4368 C   0  0  2  0  0  0  0  0  0  0  0  0
    1.9639    2.0523    8.6559 C   0  0  0  0  0  0  0  0  0  0  0  0
    1.0269    1.9235    9.8761 C   0  0  0  0  0  0  0  0  0  0  0  0
   -0.4582    1.6987    9.5034 C   0  0  1  0  0  0  0  0  0  0  0  0
   -1.3431    2.0936   10.7004 C   0  0  0  0  0  0  0  0  0  0  0  0
   -0.8269    2.3737    8.1472 C   0  0  2  0  0  0  0  0  0  0  0  0
   -2.3318    2.3345    7.8319 C   0  0  0  0  0  0  0  0  0  0  0  0
   -2.7272    3.0739    6.5543 C   0  0  0  0  0  0  0  0  0  0  0  0
   -1.8623    2.7304    5.3305 C   0  0  1  0  0  0  0  0  0  0  0  0
   -2.5960    3.0745    4.0178 C   0  0  0  0  0  0  0  0  0  0  0  0
   -0.6767    3.5282    5.2892 O   0  0  0  0  0  0  0  0  0  0  0  0
    0.4526    3.0246    6.1874 O   0  0  0  0  0  0  0  0  0  0  0  0
    0.0910    1.8889    6.9628 C   0  0  1  0  0  0  0  0  0  0  0  0
   -0.5262    0.8665    5.9847 C   0  0  2  0  0  0  0  0  0  0  0  0
   -1.6336    1.3361    5.2892 O   0  0  0  0  0  0  0  0  0  0  0  0
   -0.8370   -0.2691    6.7169 O   0  0  0  0  0  0  0  0  0  0  0  0
    0.3055   -1.0673    6.9892 C   0  0  2  0  0  0  0  0  0  0  0  0
   -0.0301   -2.1547    7.8719 O   0  0  0  0  0  0  0  0  0  0  0  0
    0.3670   -3.1488    6.8215 O   0  0  0  0  0  0  0  0  0  0  0  0
    0.5868   -2.0885    5.8694 C   0  0  2  0  0  0  0  0  0  0  0  0
   -0.4823   -2.2478    4.7873 C   0  0  0  0  0  0  0  0  0  0  0  0
    4.0508   -5.0343    5.9262 H   0  0  0  0  0  0  0  0  0  0  0  0
    4.2204   -3.3547    6.6485 H   0  0  0  0  0  0  0  0  0  0  0  0
    1.7671   -4.2185    3.3820 H   0  0  0  0  0  0  0  0  0  0  0  0
    0.9396   -4.9204    4.7853 H   0  0  0  0  0  0  0  0  0  0  0  0
    2.4966   -5.5492    4.2686 H   0  0  0  0  0  0  0  0  0  0  0  0
    1.9636   -1.9589    4.2191 H   0  0  0  0  0  0  0  0  0  0  0  0
    4.0152   -1.3810    5.6233 H   0  0  0  0  0  0  0  0  0  0  0  0
    2.7918   -0.2035    5.3258 H   0  0  0  0  0  0  0  0  0  0  0  0
    2.8935   -1.8629    7.8939 H   0  0  0  0  0  0  0  0  0  0  0  0
    3.6110   -0.2843    7.7489 H   0  0  0  0  0  0  0  0  0  0  0  0
    1.2969   -0.4256    8.7649 H   0  0  0  0  0  0  0  0  0  0  0  0
    2.1453    1.4562    6.6264 H   0  0  0  0  0  0  0  0  0  0  0  0
    2.9750    1.7445    8.9230 H   0  0  0  0  0  0  0  0  0  0  0  0
    2.0290    3.1082    8.3858 H   0  0  0  0  0  0  0  0  0  0  0  0
    1.3541    1.0866   10.4938 H   0  0  0  0  0  0  0  0  0  0  0  0
    1.1382    2.8073   10.5108 H   0  0  0  0  0  0  0  0  0  0  0  0
   -0.6050    0.6265    9.3690 H   0  0  0  0  0  0  0  0  0  0  0  0
   -1.3445    3.1716   10.8644 H   0  0  0  0  0  0  0  0  0  0  0  0
   -0.9797    1.6232   11.6145 H   0  0  0  0  0  0  0  0  0  0  0  0
   -2.3750    1.7679   10.5811 H   0  0  0  0  0  0  0  0  0  0  0  0
   -0.5851    3.4266    8.2919 H   0  0  0  0  0  0  0  0  0  0  0  0
   -2.6574    1.3008    7.7823 H   0  0  0  0  0  0  0  0  0  0  0  0
   -2.8890    2.7934    8.6454 H   0  0  0  0  0  0  0  0  0  0  0  0
   -3.7676    2.8253    6.3476 H   0  0  0  0  0  0  0  0  0  0  0  0
   -2.7050    4.1389    6.7146 H   0  0  0  0  0  0  0  0  0  0  0  0
   -1.9836    2.8221    3.1508 H   0  0  0  0  0  0  0  0  0  0  0  0
   -2.8212    4.1363    3.9531 H   0  0  0  0  0  0  0  0  0  0  0  0
   -3.5385    2.5365    3.9150 H   0  0  0  0  0  0  0  0  0  0  0  0
    0.1979    0.6319    5.2006 H   0  0  0  0  0  0  0  0  0  0  0  0
   -0.4446   -1.4266    4.0718 H   0  0  0  0  0  0  0  0  0  0  0  0
   -1.4802   -2.2587    5.2222 H   0  0  0  0  0  0  0  0  0  0  0  0
   -0.3572   -3.1700    4.2293 H   0  0  0  0  0  0  0  0  0  0  0  0
  1  2  2  0
  1 29  1  0
  1 30  1  0
  2  3  1  0
  2  4  1  0
  3 31  1  0
  3 32  1  0
  3 33  1  0
  4 27  1  0
  4  5  1  0
  4 34  1  6
  5  6  1  0
  5 35  1  0
  5 36  1  0
  6  7  1  0
  6 37  1  0
  6 38  1  0
  7 24  1  0
  7  8  1  0
  7 39  1  1
  8 20  1  0
  8  9  1  0
  8 40  1  6
  9 10  1  0
  9 41  1  0
  9 42  1  0
 10 11  1  0
 10 43  1  0
 10 44  1  0
 11 12  1  0
 11 13  1  0
 11 45  1  6
 12 46  1  0
 12 47  1  0
 12 48  1  0
 13 20  1  0
 13 14  1  0
 13 49  1  1
 14 15  1  0
 14 50  1  0
 14 51  1  0
 15 16  1  0
 15 52  1  0
 15 53  1  0
 16 22  1  0
 16 17  1  6
 16 18  1  0
 17 54  1  0
 17 55  1  0
 17 56  1  0
 18 19  1  0
 20 19  1  6
 20 21  1  0
 21 22  1  0
 21 23  1  0
 21 57  1  6
 24 23  1  6
 24 27  1  0
 24 25  1  0
 25 26  1  0
 26 27  1  0
 27 28  1  6
 28 58  1  0
 28 59  1  0
 28 60  1  0
M  END
>  <i_m_ct_stereo_status>  (355) 
1

>  <s_m_source_file>  (355) 
/var/tmp/pbs.5076255.sched01/tmpk7n3yjou/123nw9z_609.sdf

>  <i_m_source_file_index>  (355) 
37

>  <i_lp_mmshare_version>  (355) 
48012

>  <i_f3d_flags>  (355) 
0

>  <s_epik_input>  (355) 
W0NIMl09QyhbQ0gzXSlbQ0BIXShbQ0gyXVtDSDJdMSlbQ0BdKE9PMikoW0NIM10pW0NAQF0yKFtDQEBIXTFbQ0BIXTNbQ0BAXTQ1NilPW0NASF02T1tDQF0oW0NIM10pKE9PNSlbQ0gyXVtDSDJdW0NASF00W0NASF0oW0NIM10pW0NIMl1bQ0gyXTM=

>  <s_epik_cmdline>  (355) 
J2VwaWtfcHl0aG9uJywgJy1waHQnLCAnMi4wJywgJy1waCcsICc3LjAnLCAnLXRuJywgJzgnLCAnLW1hJywgJzIwMCcsICctaW1hZScsICc8aW5maWxlLm1hZT4nLCAnLW9tYWUnLCAnPG91dGZpbGUubWFlPic=

>  <r_lp_tautomer_probability>  (355) 
1

>  <r_epik_Ionization_Penalty>  (355) 
1.31558e-16

>  <r_epik_Ionization_Penalty_Charging>  (355) 
0

>  <r_epik_Ionization_Penalty_Neutral>  (355) 
1.31558e-16

>  <r_epik_State_Penalty>  (355) 
-0

>  <r_epik_Charging_Adjusted_Penalty>  (355) 
0

>  <i_epik_Tot_Q>  (355) 
0

>  <i_epik_Tot_abs_Q>  (355) 
0

>  <s_epik_Chemistry_Notes>  (355) 
This compound contains an acetal/aminal-like group ( X-CH(R)-Y where X, Y are N, S, or O) that may be acid/base labile, releasing an aldehyde.

>  <s_lp_Force_Field>  (355) 
OPLS3e

>  <r_lp_Energy>  (355) 
62.4841

>  <b_lp_Chiralities_Consistent>  (355) 
1

>  <s_lp_Variant>  (355) 
110:0-1

>  <s_i_glide_gridfile>  (355) 
pfpi4k_grid

>  <i_i_glide_lignum>  (355) 
37

>  <i_i_glide_rotatable_bonds>  (355) 
1

>  <r_i_docking_score>  (355) 
-2.21234

>  <r_i_glide_ligand_efficiency>  (355) 
-0.0790122

>  <r_i_glide_ligand_efficiency_sa>  (355) 
-0.239927

>  <r_i_glide_ligand_efficiency_ln>  (355) 
-0.510673

>  <r_i_glide_gscore>  (355) 
-2.21234

>  <r_i_glide_lipo>  (355) 
-0.154312

>  <r_i_glide_hbond>  (355) 
-0.164943

>  <r_i_glide_metal>  (355) 
-0

>  <r_i_glide_rewards>  (355) 
-0.786251

>  <r_i_glide_evdw>  (355) 
-13.9136

>  <r_i_glide_ecoul>  (355) 
-3.21244

>  <r_i_glide_erotb>  (355) 
0.12675

>  <r_i_glide_esite>  (355) 
-0.0560385

>  <r_i_glide_emodel>  (355) 
-19.5483

>  <r_i_glide_energy>  (355) 
-17.126

>  <r_i_glide_einternal>  (355) 
0.00276832

>  <r_i_glide_intrahb_reward>  (355) 
-0

>  <i_i_glide_confnum>  (355) 
1

>  <i_i_glide_posenum>  (355) 
26

>  <r_i_glide_eff_state_penalty>  (355) 
0

>  <ligand_id>  (355) 
110

>  <original_smiles>  (355) 
C=C(C)C1CCC2C3CCC(C)C4CCC5(C)OOC43C(O5)OC23OOC13C

>  <smiles>  (355) 
[H]C([H])=C(C([H])([H])[H])C1([H])C([H])([H])C([H])([H])C2([H])C3(OOC31C([H])([H])[H])OC1([H])OC3(C([H])([H])[H])OOC14C([H])(C([H])([H])C3([H])[H])C([H])(C([H])([H])[H])C([H])([H])C([H])([H])C24[H]

$$$$
110:0:1
     RDKit          3D

 60 65  0  0  1  0  0  0  0  0999 V2000
   -2.3954    2.5935    5.4915 C   0  0  0  0  0  0  0  0  0  0  0  0
   -1.9721    2.2475    4.2586 C   0  0  0  0  0  0  0  0  0  0  0  0
   -2.5596    2.9397    3.0421 C   0  0  0  0  0  0  0  0  0  0  0  0
   -0.9178    1.1547    3.9712 C   0  0  2  0  0  0  0  0  0  0  0  0
   -0.6351    0.2238    5.1736 C   0  0  0  0  0  0  0  0  0  0  0  0
    0.5238    0.7134    6.0632 C   0  0  0  0  0  0  0  0  0  0  0  0
    1.8748    0.6561    5.3257 C   0  0  1  0  0  0  0  0  0  0  0  0
    2.4633   -0.8014    5.3219 C   0  0  2  0  0  0  0  0  0  0  0  0
    3.2780   -1.0983    6.5961 C   0  0  0  0  0  0  0  0  0  0  0  0
    4.5492   -0.2277    6.6900 C   0  0  0  0  0  0  0  0  0  0  0  0
    5.1273    0.1872    5.3147 C   0  0  1  0  0  0  0  0  0  0  0  0
    6.6051    0.5887    5.4822 C   0  0  0  0  0  0  0  0  0  0  0  0
    4.8388   -0.8831    4.2180 C   0  0  2  0  0  0  0  0  0  0  0  0
    5.5453   -0.5989    2.8862 C   0  0  0  0  0  0  0  0  0  0  0  0
    5.3605   -1.6816    1.8222 C   0  0  0  0  0  0  0  0  0  0  0  0
    3.9019   -2.1251    1.6270 C   0  0  1  0  0  0  0  0  0  0  0  0
    3.7145   -2.7797    0.2443 C   0  0  0  0  0  0  0  0  0  0  0  0
    3.5242   -3.1388    2.5629 O   0  0  0  0  0  0  0  0  0  0  0  0
    3.1457   -2.6047    3.9449 O   0  0  0  0  0  0  0  0  0  0  0  0
    3.3005   -1.1977    4.0678 C   0  0  1  0  0  0  0  0  0  0  0  0
    2.5812   -0.5637    2.8562 C   0  0  2  0  0  0  0  0  0  0  0  0
    3.0601   -0.9919    1.6234 O   0  0  0  0  0  0  0  0  0  0  0  0
    2.6731    0.8101    2.9885 O   0  0  0  0  0  0  0  0  0  0  0  0
    1.7529    1.3296    3.9379 C   0  0  2  0  0  0  0  0  0  0  0  0
    1.9817    2.7317    4.1679 O   0  0  0  0  0  0  0  0  0  0  0  0
    0.5928    3.0475    3.6926 O   0  0  0  0  0  0  0  0  0  0  0  0
    0.3894    1.6717    3.3082 C   0  0  2  0  0  0  0  0  0  0  0  0
    0.3011    1.6219    1.7771 C   0  0  0  0  0  0  0  0  0  0  0  0
   -3.1572    3.3506    5.6197 H   0  0  0  0  0  0  0  0  0  0  0  0
   -2.0116    2.1433    6.3933 H   0  0  0  0  0  0  0  0  0  0  0  0
   -2.8686    2.2039    2.3009 H   0  0  0  0  0  0  0  0  0  0  0  0
   -1.8321    3.6085    2.5834 H   0  0  0  0  0  0  0  0  0  0  0  0
   -3.4387    3.5289    3.3012 H   0  0  0  0  0  0  0  0  0  0  0  0
   -1.4206    0.5090    3.2511 H   0  0  0  0  0  0  0  0  0  0  0  0
   -1.5363    0.0662    5.7641 H   0  0  0  0  0  0  0  0  0  0  0  0
   -0.3895   -0.7638    4.7784 H   0  0  0  0  0  0  0  0  0  0  0  0
    0.3313    1.7416    6.3770 H   0  0  0  0  0  0  0  0  0  0  0  0
    0.5678    0.1264    6.9827 H   0  0  0  0  0  0  0  0  0  0  0  0
    2.5547    1.2706    5.9138 H   0  0  0  0  0  0  0  0  0  0  0  0
    1.6176   -1.4869    5.3314 H   0  0  0  0  0  0  0  0  0  0  0  0
    2.6696   -0.9755    7.4938 H   0  0  0  0  0  0  0  0  0  0  0  0
    3.5821   -2.1457    6.5759 H   0  0  0  0  0  0  0  0  0  0  0  0
    4.3248    0.6761    7.2568 H   0  0  0  0  0  0  0  0  0  0  0  0
    5.3014   -0.7579    7.2820 H   0  0  0  0  0  0  0  0  0  0  0  0
    4.6139    1.0958    5.0000 H   0  0  0  0  0  0  0  0  0  0  0  0
    7.2353   -0.2651    5.7154 H   0  0  0  0  0  0  0  0  0  0  0  0
    6.7179    1.2982    6.3020 H   0  0  0  0  0  0  0  0  0  0  0  0
    7.0073    1.0649    4.5895 H   0  0  0  0  0  0  0  0  0  0  0  0
    5.2904   -1.7989    4.6000 H   0  0  0  0  0  0  0  0  0  0  0  0
    5.2022    0.3601    2.5024 H   0  0  0  0  0  0  0  0  0  0  0  0
    6.6156   -0.4955    3.0458 H   0  0  0  0  0  0  0  0  0  0  0  0
    5.7381   -1.2733    0.8847 H   0  0  0  0  0  0  0  0  0  0  0  0
    5.9763   -2.5526    2.0405 H   0  0  0  0  0  0  0  0  0  0  0  0
    2.6799   -3.0942    0.1007 H   0  0  0  0  0  0  0  0  0  0  0  0
    4.3476   -3.6606    0.1299 H   0  0  0  0  0  0  0  0  0  0  0  0
    3.9529   -2.0895   -0.5679 H   0  0  0  0  0  0  0  0  0  0  0  0
    1.5335   -0.8739    2.8479 H   0  0  0  0  0  0  0  0  0  0  0  0
    0.2399    0.5967    1.4107 H   0  0  0  0  0  0  0  0  0  0  0  0
    1.1711    2.0853    1.3133 H   0  0  0  0  0  0  0  0  0  0  0  0
   -0.5731    2.1406    1.3980 H   0  0  0  0  0  0  0  0  0  0  0  0
  1  2  2  0
  1 29  1  0
  1 30  1  0
  2  3  1  0
  2  4  1  0
  3 31  1  0
  3 32  1  0
  3 33  1  0
  4 27  1  0
  4  5  1  0
  4 34  1  6
  5  6  1  0
  5 35  1  0
  5 36  1  0
  6  7  1  0
  6 37  1  0
  6 38  1  0
  7 24  1  0
  7  8  1  0
  7 39  1  1
  8 20  1  0
  8  9  1  0
  8 40  1  1
  9 10  1  0
  9 41  1  0
  9 42  1  0
 10 11  1  0
 10 43  1  0
 10 44  1  0
 11 12  1  0
 11 13  1  0
 11 45  1  6
 12 46  1  0
 12 47  1  0
 12 48  1  0
 13 20  1  0
 13 14  1  0
 13 49  1  1
 14 15  1  0
 14 50  1  0
 14 51  1  0
 15 16  1  0
 15 52  1  0
 15 53  1  0
 16 22  1  0
 16 17  1  6
 16 18  1  0
 17 54  1  0
 17 55  1  0
 17 56  1  0
 18 19  1  0
 20 19  1  6
 20 21  1  0
 21 22  1  0
 21 23  1  0
 21 57  1  1
 24 23  1  6
 24 27  1  0
 24 25  1  0
 25 26  1  0
 26 27  1  0
 27 28  1  6
 28 58  1  0
 28 59  1  0
 28 60  1  0
M  END
>  <i_m_ct_stereo_status>  (356) 
1

>  <s_m_source_file>  (356) 
/var/tmp/pbs.5076255.sched01/tmpk7n3yjou/123nw9z_609.sdf

>  <i_m_source_file_index>  (356) 
37

>  <i_lp_mmshare_version>  (356) 
48012

>  <i_f3d_flags>  (356) 
0

>  <s_epik_input>  (356) 
W0NIMl09QyhbQ0gzXSlbQ0BIXShbQ0gyXVtDSDJdMSlbQ0BdKE9PMikoW0NIM10pW0NAQF0yKFtDQEBIXTFbQ0BIXTNbQ0BAXTQ1NilPW0NASF02T1tDQF0oW0NIM10pKE9PNSlbQ0gyXVtDSDJdW0NASF00W0NASF0oW0NIM10pW0NIMl1bQ0gyXTM=

>  <s_epik_cmdline>  (356) 
J2VwaWtfcHl0aG9uJywgJy1waHQnLCAnMi4wJywgJy1waCcsICc3LjAnLCAnLXRuJywgJzgnLCAnLW1hJywgJzIwMCcsICctaW1hZScsICc8aW5maWxlLm1hZT4nLCAnLW9tYWUnLCAnPG91dGZpbGUubWFlPic=

>  <r_lp_tautomer_probability>  (356) 
1

>  <r_epik_Ionization_Penalty>  (356) 
1.31558e-16

>  <r_epik_Ionization_Penalty_Charging>  (356) 
0

>  <r_epik_Ionization_Penalty_Neutral>  (356) 
1.31558e-16

>  <r_epik_State_Penalty>  (356) 
-0

>  <r_epik_Charging_Adjusted_Penalty>  (356) 
0

>  <i_epik_Tot_Q>  (356) 
0

>  <i_epik_Tot_abs_Q>  (356) 
0

>  <s_epik_Chemistry_Notes>  (356) 
This compound contains an acetal/aminal-like group ( X-CH(R)-Y where X, Y are N, S, or O) that may be acid/base labile, releasing an aldehyde.

>  <s_lp_Force_Field>  (356) 
OPLS3e

>  <r_lp_Energy>  (356) 
62.4841

>  <b_lp_Chiralities_Consistent>  (356) 
1

>  <s_lp_Variant>  (356) 
110:0-1

>  <s_i_glide_gridfile>  (356) 
pfpi4k_grid

>  <i_i_glide_lignum>  (356) 
37

>  <i_i_glide_rotatable_bonds>  (356) 
1

>  <r_i_docking_score>  (356) 
-2.01466

>  <r_i_glide_ligand_efficiency>  (356) 
-0.071952

>  <r_i_glide_ligand_efficiency_sa>  (356) 
-0.218489

>  <r_i_glide_ligand_efficiency_ln>  (356) 
-0.465042

>  <r_i_glide_gscore>  (356) 
-2.01466

>  <r_i_glide_lipo>  (356) 
-0.543778

>  <r_i_glide_hbond>  (356) 
0

>  <r_i_glide_metal>  (356) 
-0

>  <r_i_glide_rewards>  (356) 
-0.733051

>  <r_i_glide_evdw>  (356) 
-19.7643

>  <r_i_glide_ecoul>  (356) 
0.957359

>  <r_i_glide_erotb>  (356) 
0.12675

>  <r_i_glide_esite>  (356) 
-0.0199636

>  <r_i_glide_emodel>  (356) 
-20.9922

>  <r_i_glide_energy>  (356) 
-18.807

>  <r_i_glide_einternal>  (356) 
0.00238425

>  <r_i_glide_intrahb_reward>  (356) 
-0

>  <i_i_glide_confnum>  (356) 
2

>  <i_i_glide_posenum>  (356) 
6

>  <r_i_glide_eff_state_penalty>  (356) 
0

>  <ligand_id>  (356) 
110

>  <original_smiles>  (356) 
C=C(C)C1CCC2C3CCC(C)C4CCC5(C)OOC43C(O5)OC23OOC13C

>  <smiles>  (356) 
[H]C([H])=C(C([H])([H])[H])C1([H])C([H])([H])C([H])([H])C2([H])C3(OOC31C([H])([H])[H])OC1([H])OC3(C([H])([H])[H])OOC14C([H])(C([H])([H])C3([H])[H])C([H])(C([H])([H])[H])C([H])([H])C([H])([H])C24[H]

$$$$
110:0:2
     RDKit          3D

 60 65  0  0  1  0  0  0  0  0999 V2000
    3.9432   -3.9746    6.7801 C   0  0  0  0  0  0  0  0  0  0  0  0
    3.0252   -3.6769    5.8388 C   0  0  0  0  0  0  0  0  0  0  0  0
    2.5015   -4.7745    4.9333 C   0  0  0  0  0  0  0  0  0  0  0  0
    2.4633   -2.2619    5.5819 C   0  0  2  0  0  0  0  0  0  0  0  0
    3.2902   -1.1318    6.2389 C   0  0  0  0  0  0  0  0  0  0  0  0
    2.8037   -0.7628    7.6529 C   0  0  0  0  0  0  0  0  0  0  0  0
    1.4037   -0.1235    7.6252 C   0  0  1  0  0  0  0  0  0  0  0  0
    1.4775    1.3967    7.2288 C   0  0  2  0  0  0  0  0  0  0  0  0
    1.7401    2.3002    8.4500 C   0  0  0  0  0  0  0  0  0  0  0  0
    0.5680    2.2763    9.4542 C   0  0  0  0  0  0  0  0  0  0  0  0
   -0.8098    2.0019    8.8032 C   0  0  1  0  0  0  0  0  0  0  0  0
   -1.9261    2.4970    9.7426 C   0  0  0  0  0  0  0  0  0  0  0  0
   -0.8804    2.5383    7.3417 C   0  0  2  0  0  0  0  0  0  0  0  0
   -2.2850    2.4522    6.7233 C   0  0  0  0  0  0  0  0  0  0  0  0
   -2.3938    3.0643    5.3228 C   0  0  0  0  0  0  0  0  0  0  0  0
   -1.2957    2.6127    4.3472 C   0  0  1  0  0  0  0  0  0  0  0  0
   -1.7483    2.8171    2.8888 C   0  0  0  0  0  0  0  0  0  0  0  0
   -0.1204    3.4166    4.4814 O   0  0  0  0  0  0  0  0  0  0  0  0
    0.7896    3.0113    5.6406 O   0  0  0  0  0  0  0  0  0  0  0  0
    0.2616    1.9517    6.4268 C   0  0  1  0  0  0  0  0  0  0  0  0
   -0.1503    0.8320    5.4471 C   0  0  2  0  0  0  0  0  0  0  0  0
   -1.0781    1.2236    4.4899 O   0  0  0  0  0  0  0  0  0  0  0  0
   -0.6177   -0.2336    6.2026 O   0  0  0  0  0  0  0  0  0  0  0  0
    0.4385   -0.9873    6.7786 C   0  0  2  0  0  0  0  0  0  0  0  0
   -0.0794   -1.9874    7.6759 O   0  0  0  0  0  0  0  0  0  0  0  0
    0.5167   -3.0748    6.8307 O   0  0  0  0  0  0  0  0  0  0  0  0
    0.9374   -2.1095    5.8447 C   0  0  2  0  0  0  0  0  0  0  0  0
    0.1147   -2.3869    4.5796 C   0  0  0  0  0  0  0  0  0  0  0  0
    4.3087   -4.9873    6.8901 H   0  0  0  0  0  0  0  0  0  0  0  0
    4.3558   -3.2412    7.4550 H   0  0  0  0  0  0  0  0  0  0  0  0
    2.5547   -4.4634    3.8908 H   0  0  0  0  0  0  0  0  0  0  0  0
    1.4696   -5.0217    5.1779 H   0  0  0  0  0  0  0  0  0  0  0  0
    3.0893   -5.6875    5.0330 H   0  0  0  0  0  0  0  0  0  0  0  0
    2.6322   -2.1183    4.5140 H   0  0  0  0  0  0  0  0  0  0  0  0
    4.3516   -1.3791    6.2510 H   0  0  0  0  0  0  0  0  0  0  0  0
    3.2239   -0.2523    5.5960 H   0  0  0  0  0  0  0  0  0  0  0  0
    2.7776   -1.6608    8.2736 H   0  0  0  0  0  0  0  0  0  0  0  0
    3.5214   -0.0946    8.1328 H   0  0  0  0  0  0  0  0  0  0  0  0
    1.0459   -0.1645    8.6523 H   0  0  0  0  0  0  0  0  0  0  0  0
    2.3373    1.5148    6.5696 H   0  0  0  0  0  0  0  0  0  0  0  0
    2.6710    2.0307    8.9496 H   0  0  0  0  0  0  0  0  0  0  0  0
    1.8703    3.3257    8.0991 H   0  0  0  0  0  0  0  0  0  0  0  0
    0.7527    1.5068   10.2047 H   0  0  0  0  0  0  0  0  0  0  0  0
    0.5538    3.2184   10.0096 H   0  0  0  0  0  0  0  0  0  0  0  0
   -0.9344    0.9212    8.7419 H   0  0  0  0  0  0  0  0  0  0  0  0
   -1.9460    3.5861    9.7999 H   0  0  0  0  0  0  0  0  0  0  0  0
   -1.7702    2.1208   10.7553 H   0  0  0  0  0  0  0  0  0  0  0  0
   -2.9110    2.1480    9.4324 H   0  0  0  0  0  0  0  0  0  0  0  0
   -0.6638    3.6032    7.4305 H   0  0  0  0  0  0  0  0  0  0  0  0
   -2.6059    1.4126    6.7047 H   0  0  0  0  0  0  0  0  0  0  0  0
   -2.9980    2.9810    7.3512 H   0  0  0  0  0  0  0  0  0  0  0  0
   -3.3686    2.7976    4.9149 H   0  0  0  0  0  0  0  0  0  0  0  0
   -2.3921    4.1462    5.3752 H   0  0  0  0  0  0  0  0  0  0  0  0
   -0.9671    2.5073    2.1939 H   0  0  0  0  0  0  0  0  0  0  0  0
   -1.9705    3.8637    2.6789 H   0  0  0  0  0  0  0  0  0  0  0  0
   -2.6384    2.2310    2.6546 H   0  0  0  0  0  0  0  0  0  0  0  0
    0.7187    0.5310    4.8566 H   0  0  0  0  0  0  0  0  0  0  0  0
    0.3089   -1.6366    3.8118 H   0  0  0  0  0  0  0  0  0  0  0  0
   -0.9531   -2.3679    4.7919 H   0  0  0  0  0  0  0  0  0  0  0  0
    0.3339   -3.3591    4.1457 H   0  0  0  0  0  0  0  0  0  0  0  0
  1  2  2  0
  1 29  1  0
  1 30  1  0
  2  3  1  0
  2  4  1  0
  3 31  1  0
  3 32  1  0
  3 33  1  0
  4 27  1  0
  4  5  1  0
  4 34  1  6
  5  6  1  0
  5 35  1  0
  5 36  1  0
  6  7  1  0
  6 37  1  0
  6 38  1  0
  7 24  1  0
  7  8  1  0
  7 39  1  1
  8 20  1  0
  8  9  1  0
  8 40  1  6
  9 10  1  0
  9 41  1  0
  9 42  1  0
 10 11  1  0
 10 43  1  0
 10 44  1  0
 11 12  1  0
 11 13  1  0
 11 45  1  6
 12 46  1  0
 12 47  1  0
 12 48  1  0
 13 20  1  0
 13 14  1  0
 13 49  1  1
 14 15  1  0
 14 50  1  0
 14 51  1  0
 15 16  1  0
 15 52  1  0
 15 53  1  0
 16 22  1  0
 16 17  1  6
 16 18  1  0
 17 54  1  0
 17 55  1  0
 17 56  1  0
 18 19  1  0
 20 19  1  6
 20 21  1  0
 21 22  1  0
 21 23  1  0
 21 57  1  6
 24 23  1  6
 24 27  1  0
 24 25  1  0
 25 26  1  0
 26 27  1  0
 27 28  1  6
 28 58  1  0
 28 59  1  0
 28 60  1  0
M  END
>  <i_m_ct_stereo_status>  (357) 
1

>  <s_m_source_file>  (357) 
/var/tmp/pbs.5076255.sched01/tmpk7n3yjou/123nw9z_609.sdf

>  <i_m_source_file_index>  (357) 
37

>  <i_lp_mmshare_version>  (357) 
48012

>  <i_f3d_flags>  (357) 
0

>  <s_epik_input>  (357) 
W0NIMl09QyhbQ0gzXSlbQ0BIXShbQ0gyXVtDSDJdMSlbQ0BdKE9PMikoW0NIM10pW0NAQF0yKFtDQEBIXTFbQ0BIXTNbQ0BAXTQ1NilPW0NASF02T1tDQF0oW0NIM10pKE9PNSlbQ0gyXVtDSDJdW0NASF00W0NASF0oW0NIM10pW0NIMl1bQ0gyXTM=

>  <s_epik_cmdline>  (357) 
J2VwaWtfcHl0aG9uJywgJy1waHQnLCAnMi4wJywgJy1waCcsICc3LjAnLCAnLXRuJywgJzgnLCAnLW1hJywgJzIwMCcsICctaW1hZScsICc8aW5maWxlLm1hZT4nLCAnLW9tYWUnLCAnPG91dGZpbGUubWFlPic=

>  <r_lp_tautomer_probability>  (357) 
1

>  <r_epik_Ionization_Penalty>  (357) 
1.31558e-16

>  <r_epik_Ionization_Penalty_Charging>  (357) 
0

>  <r_epik_Ionization_Penalty_Neutral>  (357) 
1.31558e-16

>  <r_epik_State_Penalty>  (357) 
-0

>  <r_epik_Charging_Adjusted_Penalty>  (357) 
0

>  <i_epik_Tot_Q>  (357) 
0

>  <i_epik_Tot_abs_Q>  (357) 
0

>  <s_epik_Chemistry_Notes>  (357) 
This compound contains an acetal/aminal-like group ( X-CH(R)-Y where X, Y are N, S, or O) that may be acid/base labile, releasing an aldehyde.

>  <s_lp_Force_Field>  (357) 
OPLS3e

>  <r_lp_Energy>  (357) 
62.4841

>  <b_lp_Chiralities_Consistent>  (357) 
1

>  <s_lp_Variant>  (357) 
110:0-1

>  <s_i_glide_gridfile>  (357) 
pfpi4k_grid

>  <i_i_glide_lignum>  (357) 
37

>  <i_i_glide_rotatable_bonds>  (357) 
1

>  <r_i_docking_score>  (357) 
-1.93642

>  <r_i_glide_ligand_efficiency>  (357) 
-0.0691578

>  <r_i_glide_ligand_efficiency_sa>  (357) 
-0.210004

>  <r_i_glide_ligand_efficiency_ln>  (357) 
-0.446982

>  <r_i_glide_gscore>  (357) 
-1.93642

>  <r_i_glide_lipo>  (357) 
-0.142945

>  <r_i_glide_hbond>  (357) 
-0.0579406

>  <r_i_glide_metal>  (357) 
-0

>  <r_i_glide_rewards>  (357) 
-0.733051

>  <r_i_glide_evdw>  (357) 
-14.6912

>  <r_i_glide_ecoul>  (357) 
-2.23852

>  <r_i_glide_erotb>  (357) 
0.12675

>  <r_i_glide_esite>  (357) 
-0.0588909

>  <r_i_glide_emodel>  (357) 
-19.035

>  <r_i_glide_energy>  (357) 
-16.9298

>  <r_i_glide_einternal>  (357) 
0.000683554

>  <r_i_glide_intrahb_reward>  (357) 
-0

>  <i_i_glide_confnum>  (357) 
1

>  <i_i_glide_posenum>  (357) 
8

>  <r_i_glide_eff_state_penalty>  (357) 
0

>  <ligand_id>  (357) 
110

>  <original_smiles>  (357) 
C=C(C)C1CCC2C3CCC(C)C4CCC5(C)OOC43C(O5)OC23OOC13C

>  <smiles>  (357) 
[H]C([H])=C(C([H])([H])[H])C1([H])C([H])([H])C([H])([H])C2([H])C3(OOC31C([H])([H])[H])OC1([H])OC3(C([H])([H])[H])OOC14C([H])(C([H])([H])C3([H])[H])C([H])(C([H])([H])[H])C([H])([H])C([H])([H])C24[H]

$$$$
111:0:0
     RDKit          3D

 27 31  0  0  1  0  0  0  0  0999 V2000
    3.3503    0.3438   -5.3776 C   0  0  0  0  0  0  0  0  0  0  0  0
    3.0622   -0.7136   -4.5850 C   0  0  0  0  0  0  0  0  0  0  0  0
    4.0816   -1.3203   -3.6298 C   0  0  2  0  0  0  0  0  0  0  0  0
    4.0507   -2.8177   -3.3800 C   0  0  1  0  0  0  0  0  0  0  0  0
    5.3848   -3.4637   -2.9188 C   0  0  0  0  0  0  0  0  0  0  0  0
    5.6094   -3.3007   -1.3876 C   0  0  2  0  0  0  0  0  0  0  0  0
    4.4056   -3.9702   -0.6822 C   0  0  0  0  0  0  0  0  0  0  0  0
    3.3280   -2.9095   -0.8501 C   0  0  2  0  0  0  0  0  0  0  0  0
    3.0934   -2.3964   -2.2653 C   0  0  1  0  0  0  0  0  0  0  0  0
    3.8695   -1.0072   -2.1023 C   0  0  2  0  0  0  0  0  0  0  0  0
    5.3512   -0.8600   -2.0139 O   0  0  0  0  0  0  0  0  0  0  0  0
    5.4630   -1.8200   -0.9480 C   0  0  1  0  0  0  0  0  0  0  0  0
    4.0183   -1.5995   -0.6679 C   0  0  2  0  0  0  0  0  0  0  0  0
    4.3219    0.8212   -5.3540 H   0  0  0  0  0  0  0  0  0  0  0  0
    2.6127    0.7492   -6.0510 H   0  0  0  0  0  0  0  0  0  0  0  0
    2.0759   -1.1455   -4.6399 H   0  0  0  0  0  0  0  0  0  0  0  0
    5.0177   -1.0396   -4.0946 H   0  0  0  0  0  0  0  0  0  0  0  0
    3.5407   -3.3601   -4.1793 H   0  0  0  0  0  0  0  0  0  0  0  0
    5.3838   -4.5251   -3.1620 H   0  0  0  0  0  0  0  0  0  0  0  0
    6.2310   -3.0351   -3.4601 H   0  0  0  0  0  0  0  0  0  0  0  0
    6.5588   -3.7385   -1.0744 H   0  0  0  0  0  0  0  0  0  0  0  0
    4.1322   -4.9287   -1.1194 H   0  0  0  0  0  0  0  0  0  0  0  0
    4.6184   -4.1268    0.3755 H   0  0  0  0  0  0  0  0  0  0  0  0
    2.4154   -2.9919   -0.2624 H   0  0  0  0  0  0  0  0  0  0  0  0
    2.0416   -2.2856   -2.5487 H   0  0  0  0  0  0  0  0  0  0  0  0
    6.1018   -1.4860   -0.1311 H   0  0  0  0  0  0  0  0  0  0  0  0
    3.7532   -0.9469    0.1598 H   0  0  0  0  0  0  0  0  0  0  0  0
  1  2  2  0
  1 14  1  0
  1 15  1  0
  2  3  1  0
  2 16  1  0
  3 10  1  0
  3  4  1  0
  3 17  1  6
  4  9  1  0
  4  5  1  0
  4 18  1  6
  5  6  1  0
  5 19  1  0
  5 20  1  0
  6 12  1  0
  6  7  1  0
  6 21  1  1
  7  8  1  0
  7 22  1  0
  7 23  1  0
  8 13  1  0
  8  9  1  0
  8 24  1  1
  9 10  1  0
  9 25  1  6
 10 13  1  0
 10 11  1  1
 11 12  1  0
 12 13  1  0
 12 26  1  1
 13 27  1  1
M  END
>  <i_m_ct_stereo_status>  (358) 
1

>  <s_m_source_file>  (358) 
/var/tmp/pbs.5076255.sched01/tmpk7n3yjou/123nw9z_609.sdf

>  <i_m_source_file_index>  (358) 
38

>  <i_lp_mmshare_version>  (358) 
48012

>  <i_f3d_flags>  (358) 
2

>  <s_epik_input>  (358) 
W0NIMl09W0NIXVtDQEBIXTFbQ0BASF0oW0NASF0yW0NAXTEzNClbQ0gyXVtDQEhdNVtDQEBIXShPMylbQ0BASF00W0NAQEhdMltDSDJdNQ==

>  <s_epik_cmdline>  (358) 
J2VwaWtfcHl0aG9uJywgJy1waHQnLCAnMi4wJywgJy1waCcsICc3LjAnLCAnLXRuJywgJzgnLCAnLW1hJywgJzIwMCcsICctaW1hZScsICc8aW5maWxlLm1hZT4nLCAnLW9tYWUnLCAnPG91dGZpbGUubWFlPic=

>  <r_lp_tautomer_probability>  (358) 
1

>  <r_epik_Ionization_Penalty>  (358) 
1.53544e-10

>  <r_epik_Ionization_Penalty_Charging>  (358) 
0

>  <r_epik_Ionization_Penalty_Neutral>  (358) 
1.53544e-10

>  <r_epik_State_Penalty>  (358) 
-0

>  <r_epik_Charging_Adjusted_Penalty>  (358) 
0

>  <i_epik_Tot_Q>  (358) 
0

>  <i_epik_Tot_abs_Q>  (358) 
0

>  <s_lp_Force_Field>  (358) 
OPLS3e

>  <r_lp_Energy>  (358) 
124.768

>  <b_lp_Chiralities_Consistent>  (358) 
0

>  <s_lp_Variant>  (358) 
111:0-1

>  <s_i_glide_gridfile>  (358) 
pfpi4k_grid

>  <i_i_glide_lignum>  (358) 
38

>  <i_i_glide_rotatable_bonds>  (358) 
1

>  <r_i_docking_score>  (358) 
-4.56437

>  <r_i_glide_ligand_efficiency>  (358) 
-0.351106

>  <r_i_glide_ligand_efficiency_sa>  (358) 
-0.825567

>  <r_i_glide_ligand_efficiency_ln>  (358) 
-1.28035

>  <r_i_glide_gscore>  (358) 
-4.56437

>  <r_i_glide_lipo>  (358) 
-1.04298

>  <r_i_glide_hbond>  (358) 
-0.00155173

>  <r_i_glide_metal>  (358) 
-0

>  <r_i_glide_rewards>  (358) 
-2.26276

>  <r_i_glide_evdw>  (358) 
-21.5043

>  <r_i_glide_ecoul>  (358) 
-1.2124

>  <r_i_glide_erotb>  (358) 
0

>  <r_i_glide_esite>  (358) 
0

>  <r_i_glide_emodel>  (358) 
-29.1549

>  <r_i_glide_energy>  (358) 
-22.7167

>  <r_i_glide_einternal>  (358) 
0.750743

>  <r_i_glide_intrahb_reward>  (358) 
-0

>  <i_i_glide_confnum>  (358) 
2

>  <i_i_glide_posenum>  (358) 
33

>  <r_i_glide_eff_state_penalty>  (358) 
0

>  <ligand_id>  (358) 
111

>  <original_smiles>  (358) 
C=CC1C2CC3CC4C2C12OC3C42

>  <smiles>  (358) 
[H]C([H])=C([H])C1([H])C2([H])C([H])([H])C3([H])C([H])([H])C4([H])C5([H])C3([H])OC15C24[H]

$$$$
111:0:1
     RDKit          3D

 27 31  0  0  1  0  0  0  0  0999 V2000
    3.9916   -0.5301   -4.0619 C   0  0  0  0  0  0  0  0  0  0  0  0
    4.3437   -0.4436   -2.7736 C   0  0  0  0  0  0  0  0  0  0  0  0
    4.9560   -1.5874   -1.9602 C   0  0  2  0  0  0  0  0  0  0  0  0
    4.0532   -2.3990   -1.0481 C   0  0  1  0  0  0  0  0  0  0  0  0
    4.5615   -3.8316   -0.7241 C   0  0  0  0  0  0  0  0  0  0  0  0
    5.5882   -3.8155    0.4418 C   0  0  2  0  0  0  0  0  0  0  0  0
    4.8681   -3.2019    1.6647 C   0  0  0  0  0  0  0  0  0  0  0  0
    4.9252   -1.7143    1.3381 C   0  0  2  0  0  0  0  0  0  0  0  0
    4.3987   -1.3129   -0.0354 C   0  0  1  0  0  0  0  0  0  0  0  0
    5.8185   -1.1051   -0.7259 C   0  0  2  0  0  0  0  0  0  0  0  0
    6.7812   -2.1674   -1.1184 O   0  0  0  0  0  0  0  0  0  0  0  0
    6.7324   -2.7980    0.1812 C   0  0  1  0  0  0  0  0  0  0  0  0
    6.2639   -1.4950    0.7198 C   0  0  2  0  0  0  0  0  0  0  0  0
    4.0982   -1.4519   -4.6157 H   0  0  0  0  0  0  0  0  0  0  0  0
    3.5932    0.3320   -4.5888 H   0  0  0  0  0  0  0  0  0  0  0  0
    4.2167    0.5089   -2.2876 H   0  0  0  0  0  0  0  0  0  0  0  0
    5.4142   -2.2492   -2.7023 H   0  0  0  0  0  0  0  0  0  0  0  0
    3.0078   -2.3570   -1.3515 H   0  0  0  0  0  0  0  0  0  0  0  0
    3.7279   -4.4897   -0.4717 H   0  0  0  0  0  0  0  0  0  0  0  0
    5.0320   -4.2735   -1.6108 H   0  0  0  0  0  0  0  0  0  0  0  0
    5.9647   -4.8177    0.6511 H   0  0  0  0  0  0  0  0  0  0  0  0
    3.8450   -3.5607    1.7937 H   0  0  0  0  0  0  0  0  0  0  0  0
    5.4200   -3.4132    2.5848 H   0  0  0  0  0  0  0  0  0  0  0  0
    4.6938   -1.0067    2.1362 H   0  0  0  0  0  0  0  0  0  0  0  0
    3.7653   -0.4239   -0.0343 H   0  0  0  0  0  0  0  0  0  0  0  0
    7.7161   -3.0670    0.5510 H   0  0  0  0  0  0  0  0  0  0  0  0
    6.9944   -0.8567    1.2123 H   0  0  0  0  0  0  0  0  0  0  0  0
  1  2  2  0
  1 14  1  0
  1 15  1  0
  2  3  1  0
  2 16  1  0
  3 10  1  0
  3  4  1  0
  3 17  1  6
  4  9  1  0
  4  5  1  0
  4 18  1  6
  5  6  1  0
  5 19  1  0
  5 20  1  0
  6 12  1  0
  6  7  1  0
  6 21  1  1
  7  8  1  0
  7 22  1  0
  7 23  1  0
  8 13  1  0
  8  9  1  0
  8 24  1  1
  9 10  1  0
  9 25  1  1
 10 13  1  0
 10 11  1  6
 11 12  1  0
 12 13  1  0
 12 26  1  1
 13 27  1  1
M  END
>  <i_m_ct_stereo_status>  (359) 
1

>  <s_m_source_file>  (359) 
/var/tmp/pbs.5076255.sched01/tmpk7n3yjou/123nw9z_609.sdf

>  <i_m_source_file_index>  (359) 
38

>  <i_lp_mmshare_version>  (359) 
48012

>  <i_f3d_flags>  (359) 
2

>  <s_epik_input>  (359) 
W0NIMl09W0NIXVtDQEBIXTFbQ0BASF0oW0NASF0yW0NAXTEzNClbQ0gyXVtDQEhdNVtDQEBIXShPMylbQ0BASF00W0NAQEhdMltDSDJdNQ==

>  <s_epik_cmdline>  (359) 
J2VwaWtfcHl0aG9uJywgJy1waHQnLCAnMi4wJywgJy1waCcsICc3LjAnLCAnLXRuJywgJzgnLCAnLW1hJywgJzIwMCcsICctaW1hZScsICc8aW5maWxlLm1hZT4nLCAnLW9tYWUnLCAnPG91dGZpbGUubWFlPic=

>  <r_lp_tautomer_probability>  (359) 
1

>  <r_epik_Ionization_Penalty>  (359) 
1.53544e-10

>  <r_epik_Ionization_Penalty_Charging>  (359) 
0

>  <r_epik_Ionization_Penalty_Neutral>  (359) 
1.53544e-10

>  <r_epik_State_Penalty>  (359) 
-0

>  <r_epik_Charging_Adjusted_Penalty>  (359) 
0

>  <i_epik_Tot_Q>  (359) 
0

>  <i_epik_Tot_abs_Q>  (359) 
0

>  <s_lp_Force_Field>  (359) 
OPLS3e

>  <r_lp_Energy>  (359) 
124.768

>  <b_lp_Chiralities_Consistent>  (359) 
0

>  <s_lp_Variant>  (359) 
111:0-1

>  <s_i_glide_gridfile>  (359) 
pfpi4k_grid

>  <i_i_glide_lignum>  (359) 
38

>  <i_i_glide_rotatable_bonds>  (359) 
1

>  <r_i_docking_score>  (359) 
-4.24726

>  <r_i_glide_ligand_efficiency>  (359) 
-0.326712

>  <r_i_glide_ligand_efficiency_sa>  (359) 
-0.76821

>  <r_i_glide_ligand_efficiency_ln>  (359) 
-1.19139

>  <r_i_glide_gscore>  (359) 
-4.24726

>  <r_i_glide_lipo>  (359) 
-0.709423

>  <r_i_glide_hbond>  (359) 
-0.16

>  <r_i_glide_metal>  (359) 
-0

>  <r_i_glide_rewards>  (359) 
-2.2211

>  <r_i_glide_evdw>  (359) 
-17.1559

>  <r_i_glide_ecoul>  (359) 
-1.99294

>  <r_i_glide_erotb>  (359) 
0

>  <r_i_glide_esite>  (359) 
0

>  <r_i_glide_emodel>  (359) 
-24.9002

>  <r_i_glide_energy>  (359) 
-19.1489

>  <r_i_glide_einternal>  (359) 
1.1133

>  <r_i_glide_intrahb_reward>  (359) 
-0

>  <i_i_glide_confnum>  (359) 
1

>  <i_i_glide_posenum>  (359) 
20

>  <r_i_glide_eff_state_penalty>  (359) 
0

>  <ligand_id>  (359) 
111

>  <original_smiles>  (359) 
C=CC1C2CC3CC4C2C12OC3C42

>  <smiles>  (359) 
[H]C([H])=C([H])C1([H])C2([H])C([H])([H])C3([H])C([H])([H])C4([H])C5([H])C3([H])OC15C24[H]

$$$$
111:0:2
     RDKit          3D

 27 31  0  0  1  0  0  0  0  0999 V2000
    2.6486   -2.9634   -3.8513 C   0  0  0  0  0  0  0  0  0  0  0  0
    3.8453   -3.4552   -3.4927 C   0  0  0  0  0  0  0  0  0  0  0  0
    4.7629   -2.9052   -2.4033 C   0  0  2  0  0  0  0  0  0  0  0  0
    5.0775   -3.8038   -1.2154 C   0  0  1  0  0  0  0  0  0  0  0  0
    6.4083   -3.5005   -0.4759 C   0  0  0  0  0  0  0  0  0  0  0  0
    6.2386   -2.3426    0.5536 C   0  0  2  0  0  0  0  0  0  0  0  0
    5.1433   -2.8042    1.5515 C   0  0  0  0  0  0  0  0  0  0  0  0
    3.8755   -2.5428    0.7502 C   0  0  2  0  0  0  0  0  0  0  0  0
    3.8163   -3.1519   -0.6507 C   0  0  1  0  0  0  0  0  0  0  0  0
    4.1303   -1.8013   -1.4577 C   0  0  2  0  0  0  0  0  0  0  0  0
    5.4418   -1.0934   -1.5199 O   0  0  0  0  0  0  0  0  0  0  0  0
    5.5947   -1.0847   -0.0839 C   0  0  1  0  0  0  0  0  0  0  0  0
    4.1200   -1.2643    0.0097 C   0  0  2  0  0  0  0  0  0  0  0  0
    2.2099   -2.1136   -3.3427 H   0  0  0  0  0  0  0  0  0  0  0  0
    2.0883   -3.4006   -4.6698 H   0  0  0  0  0  0  0  0  0  0  0  0
    4.2307   -4.3149   -4.0291 H   0  0  0  0  0  0  0  0  0  0  0  0
    5.6879   -2.6550   -2.9355 H   0  0  0  0  0  0  0  0  0  0  0  0
    4.9270   -4.8613   -1.4467 H   0  0  0  0  0  0  0  0  0  0  0  0
    6.7724   -4.3962    0.0344 H   0  0  0  0  0  0  0  0  0  0  0  0
    7.1869   -3.2316   -1.1935 H   0  0  0  0  0  0  0  0  0  0  0  0
    7.1831   -2.1216    1.0534 H   0  0  0  0  0  0  0  0  0  0  0  0
    5.2453   -3.8455    1.8628 H   0  0  0  0  0  0  0  0  0  0  0  0
    5.1715   -2.1849    2.4524 H   0  0  0  0  0  0  0  0  0  0  0  0
    2.9294   -2.5576    1.2854 H   0  0  0  0  0  0  0  0  0  0  0  0
    2.8591   -3.6374   -0.8984 H   0  0  0  0  0  0  0  0  0  0  0  0
    5.9328   -0.1188    0.2904 H   0  0  0  0  0  0  0  0  0  0  0  0
    3.5087   -0.3852    0.2212 H   0  0  0  0  0  0  0  0  0  0  0  0
  1  2  2  0
  1 14  1  0
  1 15  1  0
  2  3  1  0
  2 16  1  0
  3 10  1  0
  3  4  1  0
  3 17  1  6
  4  9  1  0
  4  5  1  0
  4 18  1  6
  5  6  1  0
  5 19  1  0
  5 20  1  0
  6 12  1  0
  6  7  1  0
  6 21  1  1
  7  8  1  0
  7 22  1  0
  7 23  1  0
  8 13  1  0
  8  9  1  0
  8 24  1  1
  9 10  1  0
  9 25  1  6
 10 13  1  0
 10 11  1  6
 11 12  1  0
 12 13  1  0
 12 26  1  1
 13 27  1  6
M  END
>  <i_m_ct_stereo_status>  (360) 
1

>  <s_m_source_file>  (360) 
/var/tmp/pbs.5076255.sched01/tmpk7n3yjou/123nw9z_609.sdf

>  <i_m_source_file_index>  (360) 
38

>  <i_lp_mmshare_version>  (360) 
48012

>  <i_f3d_flags>  (360) 
2

>  <s_epik_input>  (360) 
W0NIMl09W0NIXVtDQEBIXTFbQ0BASF0oW0NASF0yW0NAXTEzNClbQ0gyXVtDQEhdNVtDQEBIXShPMylbQ0BASF00W0NAQEhdMltDSDJdNQ==

>  <s_epik_cmdline>  (360) 
J2VwaWtfcHl0aG9uJywgJy1waHQnLCAnMi4wJywgJy1waCcsICc3LjAnLCAnLXRuJywgJzgnLCAnLW1hJywgJzIwMCcsICctaW1hZScsICc8aW5maWxlLm1hZT4nLCAnLW9tYWUnLCAnPG91dGZpbGUubWFlPic=

>  <r_lp_tautomer_probability>  (360) 
1

>  <r_epik_Ionization_Penalty>  (360) 
1.53544e-10

>  <r_epik_Ionization_Penalty_Charging>  (360) 
0

>  <r_epik_Ionization_Penalty_Neutral>  (360) 
1.53544e-10

>  <r_epik_State_Penalty>  (360) 
-0

>  <r_epik_Charging_Adjusted_Penalty>  (360) 
0

>  <i_epik_Tot_Q>  (360) 
0

>  <i_epik_Tot_abs_Q>  (360) 
0

>  <s_lp_Force_Field>  (360) 
OPLS3e

>  <r_lp_Energy>  (360) 
124.768

>  <b_lp_Chiralities_Consistent>  (360) 
0

>  <s_lp_Variant>  (360) 
111:0-1

>  <s_i_glide_gridfile>  (360) 
pfpi4k_grid

>  <i_i_glide_lignum>  (360) 
38

>  <i_i_glide_rotatable_bonds>  (360) 
1

>  <r_i_docking_score>  (360) 
-4.0586

>  <r_i_glide_ligand_efficiency>  (360) 
-0.3122

>  <r_i_glide_ligand_efficiency_sa>  (360) 
-0.734087

>  <r_i_glide_ligand_efficiency_ln>  (360) 
-1.13847

>  <r_i_glide_gscore>  (360) 
-4.0586

>  <r_i_glide_lipo>  (360) 
-0.641607

>  <r_i_glide_hbond>  (360) 
-0.011906

>  <r_i_glide_metal>  (360) 
-0

>  <r_i_glide_rewards>  (360) 
-2.2211

>  <r_i_glide_evdw>  (360) 
-19.8488

>  <r_i_glide_ecoul>  (360) 
-1.27699

>  <r_i_glide_erotb>  (360) 
0

>  <r_i_glide_esite>  (360) 
0

>  <r_i_glide_emodel>  (360) 
-27.2627

>  <r_i_glide_energy>  (360) 
-21.1258

>  <r_i_glide_einternal>  (360) 
0.0216739

>  <r_i_glide_intrahb_reward>  (360) 
-0

>  <i_i_glide_confnum>  (360) 
2

>  <i_i_glide_posenum>  (360) 
24

>  <r_i_glide_eff_state_penalty>  (360) 
0

>  <ligand_id>  (360) 
111

>  <original_smiles>  (360) 
C=CC1C2CC3CC4C2C12OC3C42

>  <smiles>  (360) 
[H]C([H])=C([H])C1([H])C2([H])C([H])([H])C3([H])C([H])([H])C4([H])C5([H])C3([H])OC15C24[H]

$$$$
112:0:0
     RDKit          3D

 72 75  0  0  1  0  0  0  0  0999 V2000
    1.3530   -4.4961    6.2356 C   0  0  0  0  0  0  0  0  0  0  0  0
    1.4128   -4.3632    4.8964 C   0  0  0  0  0  0  0  0  0  0  0  0
    0.8327   -3.1194    4.2186 C   0  0  1  0  0  0  0  0  0  0  0  0
   -0.0585   -2.3691    5.0362 O   0  0  0  0  0  0  0  0  0  0  0  0
    0.0494   -1.0573    4.8708 C   0  0  0  0  0  0  0  0  0  0  0  0
   -0.6265   -0.2102    5.4442 O   0  0  0  0  0  0  0  0  0  0  0  0
    1.1592   -0.7541    3.8801 C   0  0  1  0  0  0  0  0  0  0  0  0
    1.9852    0.4925    4.2979 C   0  0  0  0  0  0  0  0  0  0  0  0
    1.9131   -2.1027    3.8570 C   0  0  2  0  0  0  0  0  0  0  0  0
    2.6266   -2.4246    2.5203 C   0  0  1  0  0  0  0  0  0  0  0  0
    3.9270   -1.8374    2.5699 O   0  0  0  0  0  0  0  0  0  0  0  0
    4.2579   -0.7173    1.9082 C   0  0  0  0  0  0  0  0  0  0  0  0
    3.1111    0.0340    1.2296 C   0  0  0  0  0  0  0  0  0  0  0  0
    5.4130   -0.2754    1.8778 O   0  0  0  0  0  0  0  0  0  0  0  0
    2.7336   -3.9055    2.0330 C   0  0  1  0  0  0  0  0  0  0  0  0
    3.5428   -3.8062    0.8541 O   0  0  0  0  0  0  0  0  0  0  0  0
    3.0195   -3.8401   -0.3955 C   0  0  0  0  0  0  0  0  0  0  0  0
    4.0481   -3.4499   -1.4517 C   0  0  0  0  0  0  0  0  0  0  0  0
    1.8713   -4.1448   -0.7167 O   0  0  0  0  0  0  0  0  0  0  0  0
    3.1857   -5.0437    3.0322 C   0  0  2  0  0  0  0  0  0  0  0  0
    4.3694   -4.5470    3.9052 C   0  0  0  0  0  0  0  0  0  0  0  0
    3.6294   -6.3049    2.1661 C   0  0  1  0  0  0  0  0  0  0  0  0
    4.7582   -7.0213    2.6806 O   0  0  0  0  0  0  0  0  0  0  0  0
    5.9849   -6.9259    2.1110 C   0  0  0  0  0  0  0  0  0  0  0  0
    7.0249   -7.8019    2.7950 C   0  0  0  0  0  0  0  0  0  0  0  0
    6.2824   -6.2217    1.1423 O   0  0  0  0  0  0  0  0  0  0  0  0
    2.4823   -7.3144    1.9529 C   0  0  0  0  0  0  0  0  0  0  0  0
    2.0078   -7.9444    3.2832 C   0  0  2  0  0  0  0  0  0  0  0  0
    0.6342   -8.6533    3.2627 C   0  0  0  0  0  0  0  0  0  0  0  0
   -0.4873   -7.9303    2.4826 C   0  0  0  0  0  0  0  0  0  0  0  0
    0.7163  -10.1330    2.8609 C   0  0  0  0  0  0  0  0  0  0  0  0
    0.3450   -8.5866    4.6424 O   0  0  0  0  0  0  0  0  0  0  0  0
    0.7321   -7.1992    5.0592 O   0  0  0  0  0  0  0  0  0  0  0  0
    1.9933   -6.9289    4.4637 C   0  0  1  0  0  0  0  0  0  0  0  0
    3.1127   -7.2666    5.4873 C   0  0  0  0  0  0  0  0  0  0  0  0
    1.9472   -5.4528    3.9346 C   0  0  1  0  0  0  0  0  0  0  0  0
    1.6731   -5.3735    6.7609 H   0  0  0  0  0  0  0  0  0  0  0  0
    0.9393   -3.7118    6.8475 H   0  0  0  0  0  0  0  0  0  0  0  0
    0.2488   -3.4095    3.3419 H   0  0  0  0  0  0  0  0  0  0  0  0
    0.6619   -0.5863    2.9207 H   0  0  0  0  0  0  0  0  0  0  0  0
    1.3412    1.3811    4.3349 H   0  0  0  0  0  0  0  0  0  0  0  0
    2.7922    0.7330    3.6302 H   0  0  0  0  0  0  0  0  0  0  0  0
    2.3950    0.3550    5.3062 H   0  0  0  0  0  0  0  0  0  0  0  0
    2.6386   -2.0672    4.6696 H   0  0  0  0  0  0  0  0  0  0  0  0
    2.0311   -1.9734    1.7359 H   0  0  0  0  0  0  0  0  0  0  0  0
    2.3416    0.2841    1.9113 H   0  0  0  0  0  0  0  0  0  0  0  0
    2.7017   -0.5696    0.4061 H   0  0  0  0  0  0  0  0  0  0  0  0
    3.4799    0.9726    0.8175 H   0  0  0  0  0  0  0  0  0  0  0  0
    1.7325   -4.1854    1.7134 H   0  0  0  0  0  0  0  0  0  0  0  0
    4.4559   -2.4713   -1.2328 H   0  0  0  0  0  0  0  0  0  0  0  0
    3.5864   -3.4314   -2.4383 H   0  0  0  0  0  0  0  0  0  0  0  0
    4.8581   -4.1805   -1.4705 H   0  0  0  0  0  0  0  0  0  0  0  0
    4.7618   -5.3209    4.5613 H   0  0  0  0  0  0  0  0  0  0  0  0
    4.0825   -3.7289    4.5632 H   0  0  0  0  0  0  0  0  0  0  0  0
    5.1977   -4.1918    3.2904 H   0  0  0  0  0  0  0  0  0  0  0  0
    3.9090   -6.0028    1.1627 H   0  0  0  0  0  0  0  0  0  0  0  0
    7.1154   -7.5274    3.8483 H   0  0  0  0  0  0  0  0  0  0  0  0
    8.0052   -7.6882    2.3263 H   0  0  0  0  0  0  0  0  0  0  0  0
    6.7346   -8.8495    2.7334 H   0  0  0  0  0  0  0  0  0  0  0  0
    1.6665   -6.7707    1.4665 H   0  0  0  0  0  0  0  0  0  0  0  0
    2.7734   -8.0916    1.2546 H   0  0  0  0  0  0  0  0  0  0  0  0
    2.7405   -8.7152    3.5343 H   0  0  0  0  0  0  0  0  0  0  0  0
   -0.3143   -7.9589    1.4081 H   0  0  0  0  0  0  0  0  0  0  0  0
   -0.5968   -6.8887    2.7770 H   0  0  0  0  0  0  0  0  0  0  0  0
   -1.4497   -8.4122    2.6541 H   0  0  0  0  0  0  0  0  0  0  0  0
    1.0073  -10.2431    1.8183 H   0  0  0  0  0  0  0  0  0  0  0  0
   -0.2481  -10.6287    2.9886 H   0  0  0  0  0  0  0  0  0  0  0  0
    1.4374  -10.6798    3.4686 H   0  0  0  0  0  0  0  0  0  0  0  0
    4.0655   -7.4790    5.0061 H   0  0  0  0  0  0  0  0  0  0  0  0
    2.8658   -8.1628    6.0621 H   0  0  0  0  0  0  0  0  0  0  0  0
    3.3176   -6.4730    6.1982 H   0  0  0  0  0  0  0  0  0  0  0  0
    1.0968   -5.4978    3.2494 H   0  0  0  0  0  0  0  0  0  0  0  0
  1  2  2  0
  1 37  1  0
  1 38  1  0
  2 36  1  0
  2  3  1  0
  3  9  1  0
  3  4  1  0
  3 39  1  6
  4  5  1  0
  5  6  2  0
  5  7  1  0
  7  8  1  0
  7  9  1  0
  7 40  1  6
  8 41  1  0
  8 42  1  0
  8 43  1  0
  9 10  1  0
  9 44  1  1
 10 11  1  0
 10 15  1  0
 10 45  1  6
 11 12  1  0
 12 13  1  0
 12 14  2  0
 13 46  1  0
 13 47  1  0
 13 48  1  0
 15 16  1  0
 15 20  1  0
 15 49  1  6
 16 17  1  0
 17 18  1  0
 17 19  2  0
 18 50  1  0
 18 51  1  0
 18 52  1  0
 20 36  1  0
 20 21  1  1
 20 22  1  0
 21 53  1  0
 21 54  1  0
 21 55  1  0
 22 23  1  0
 22 27  1  0
 22 56  1  6
 23 24  1  0
 24 25  1  0
 24 26  2  0
 25 57  1  0
 25 58  1  0
 25 59  1  0
 27 28  1  0
 27 60  1  0
 27 61  1  0
 28 34  1  0
 28 29  1  0
 28 62  1  1
 29 30  1  0
 29 31  1  0
 29 32  1  0
 30 63  1  0
 30 64  1  0
 30 65  1  0
 31 66  1  0
 31 67  1  0
 31 68  1  0
 32 33  1  0
 33 34  1  0
 34 35  1  1
 34 36  1  0
 35 69  1  0
 35 70  1  0
 35 71  1  0
 36 72  1  6
M  END
>  <i_m_ct_stereo_status>  (361) 
1

>  <s_m_source_file>  (361) 
/var/tmp/pbs.5076255.sched01/tmpk7n3yjou/123nw9z_609.sdf

>  <i_m_source_file_index>  (361) 
39

>  <i_lp_mmshare_version>  (361) 
48012

>  <i_f3d_flags>  (361) 
0

>  <s_epik_input>  (361) 
W0NIM11DKD1PKU9bQ0BASF0xW0NASF0oT0MoPU8pW0NIM10pW0NAQEhdKFtDQEBIXShDKE8yKT1PKVtDSDNdKVtDQEhdMkMoPVtDSDJdKVtDQEBIXShbQ0BdMTNbQ0gzXSlbQ0BdNChbQ0gzXSlbQ0BASF0oQyhbQ0gzXSkoW0NIM10pT080KVtDSDJdW0NAQEhdM09DKD1PKVtDSDNd

>  <s_epik_cmdline>  (361) 
J2VwaWtfcHl0aG9uJywgJy1waHQnLCAnMi4wJywgJy1waCcsICc3LjAnLCAnLXRuJywgJzgnLCAnLW1hJywgJzIwMCcsICctaW1hZScsICc8aW5maWxlLm1hZT4nLCAnLW9tYWUnLCAnPG91dGZpbGUubWFlPic=

>  <r_lp_tautomer_probability>  (361) 
1

>  <r_epik_Ionization_Penalty>  (361) 
0

>  <r_epik_Ionization_Penalty_Charging>  (361) 
0

>  <r_epik_Ionization_Penalty_Neutral>  (361) 
0

>  <r_epik_State_Penalty>  (361) 
-0

>  <r_epik_Charging_Adjusted_Penalty>  (361) 
0

>  <i_epik_Tot_Q>  (361) 
0

>  <i_epik_Tot_abs_Q>  (361) 
0

>  <s_epik_Chemistry_Notes>  (361) 
This compound has an ester and may undergo hydrolysis at high or low pH.

>  <s_lp_Force_Field>  (361) 
OPLS3e

>  <r_lp_Energy>  (361) 
34.4389

>  <b_lp_Chiralities_Consistent>  (361) 
1

>  <s_lp_Variant>  (361) 
112:0-1

>  <s_i_glide_gridfile>  (361) 
pfpi4k_grid

>  <i_i_glide_lignum>  (361) 
39

>  <i_i_glide_rotatable_bonds>  (361) 
6

>  <r_i_docking_score>  (361) 
-2.67662

>  <r_i_glide_ligand_efficiency>  (361) 
-0.0743505

>  <r_i_glide_ligand_efficiency_sa>  (361) 
-0.2455

>  <r_i_glide_ligand_efficiency_ln>  (361) 
-0.583966

>  <r_i_glide_gscore>  (361) 
-2.67662

>  <r_i_glide_lipo>  (361) 
-0.180428

>  <r_i_glide_hbond>  (361) 
-0.205427

>  <r_i_glide_metal>  (361) 
-0

>  <r_i_glide_rewards>  (361) 
-0.142317

>  <r_i_glide_evdw>  (361) 
-33.1062

>  <r_i_glide_ecoul>  (361) 
-4.66813

>  <r_i_glide_erotb>  (361) 
0.23749

>  <r_i_glide_esite>  (361) 
-0.0304086

>  <r_i_glide_emodel>  (361) 
-40.0281

>  <r_i_glide_energy>  (361) 
-37.7743

>  <r_i_glide_einternal>  (361) 
6.30708

>  <r_i_glide_intrahb_reward>  (361) 
-0

>  <i_i_glide_confnum>  (361) 
6

>  <i_i_glide_posenum>  (361) 
8

>  <r_i_glide_eff_state_penalty>  (361) 
0

>  <ligand_id>  (361) 
112

>  <original_smiles>  (361) 
C=C1C2OC(=O)C(C)C2C(OC(C)=O)C(OC(C)=O)C2(C)C(OC(C)=O)CC3C(C)(C)OOC3(C)C12

>  <smiles>  (361) 
[H]C([H])=C1C2([H])OC(=O)C([H])(C([H])([H])[H])C2([H])C([H])(OC(=O)C([H])([H])[H])C([H])(OC(=O)C([H])([H])[H])C2(C([H])([H])[H])C([H])(OC(=O)C([H])([H])[H])C([H])([H])C3([H])C(C([H])([H])[H])(C([H])([H])[H])OOC3(C([H])([H])[H])C12[H]

$$$$
112:0:1
     RDKit          3D

 72 75  0  0  1  0  0  0  0  0999 V2000
    0.6583   -4.3871    6.5510 C   0  0  0  0  0  0  0  0  0  0  0  0
    0.9013   -4.2485    5.2472 C   0  0  0  0  0  0  0  0  0  0  0  0
    0.4384   -2.9955    4.4939 C   0  0  1  0  0  0  0  0  0  0  0  0
   -0.5465   -2.2404    5.1882 O   0  0  0  0  0  0  0  0  0  0  0  0
   -0.3960   -0.9252    5.0308 C   0  0  0  0  0  0  0  0  0  0  0  0
   -1.1193   -0.0661    5.5219 O   0  0  0  0  0  0  0  0  0  0  0  0
    0.8309   -0.6570    4.1734 C   0  0  1  0  0  0  0  0  0  0  0  0
    1.6184    0.5797    4.6443 C   0  0  0  0  0  0  0  0  0  0  0  0
    1.5722   -2.0016    4.2807 C   0  0  2  0  0  0  0  0  0  0  0  0
    2.4541   -2.3280    3.0519 C   0  0  1  0  0  0  0  0  0  0  0  0
    3.7441   -1.7520    3.2987 O   0  0  0  0  0  0  0  0  0  0  0  0
    4.2856   -0.7640    2.5506 C   0  0  0  0  0  0  0  0  0  0  0  0
    3.4190   -0.2291    1.4134 C   0  0  0  0  0  0  0  0  0  0  0  0
    5.4109   -0.2924    2.7618 O   0  0  0  0  0  0  0  0  0  0  0  0
    2.6056   -3.8068    2.5779 C   0  0  1  0  0  0  0  0  0  0  0  0
    3.5674   -3.7080    1.5129 O   0  0  0  0  0  0  0  0  0  0  0  0
    3.2697   -4.0935    0.2451 C   0  0  0  0  0  0  0  0  0  0  0  0
    4.4376   -3.8639   -0.7154 C   0  0  0  0  0  0  0  0  0  0  0  0
    2.2342   -4.6152   -0.1249 O   0  0  0  0  0  0  0  0  0  0  0  0
    2.8861   -4.9555    3.6292 C   0  0  2  0  0  0  0  0  0  0  0  0
    3.9642   -4.4827    4.6411 C   0  0  0  0  0  0  0  0  0  0  0  0
    3.3870   -6.2371    2.8219 C   0  0  1  0  0  0  0  0  0  0  0  0
    4.4624   -6.9575    3.4291 O   0  0  0  0  0  0  0  0  0  0  0  0
    5.3685   -7.7067    2.7428 C   0  0  0  0  0  0  0  0  0  0  0  0
    5.1121   -7.8571    1.2330 C   0  0  0  0  0  0  0  0  0  0  0  0
    6.3204   -8.2767    3.2807 O   0  0  0  0  0  0  0  0  0  0  0  0
    2.2411   -7.2007    2.4294 C   0  0  0  0  0  0  0  0  0  0  0  0
    1.6246   -7.8262    3.6978 C   0  0  2  0  0  0  0  0  0  0  0  0
    0.2732   -8.5267    3.4981 C   0  0  0  0  0  0  0  0  0  0  0  0
   -0.7079   -7.7857    2.5605 C   0  0  0  0  0  0  0  0  0  0  0  0
    0.4100   -9.9989    3.0782 C   0  0  0  0  0  0  0  0  0  0  0  0
   -0.1950   -8.4536    4.8291 O   0  0  0  0  0  0  0  0  0  0  0  0
    0.1357   -7.0722    5.2885 O   0  0  0  0  0  0  0  0  0  0  0  0
    1.4729   -6.8157    4.8787 C   0  0  1  0  0  0  0  0  0  0  0  0
    2.4570   -7.1785    6.0282 C   0  0  0  0  0  0  0  0  0  0  0  0
    1.5366   -5.3361    4.3578 C   0  0  1  0  0  0  0  0  0  0  0  0
    0.8899   -5.2808    7.1095 H   0  0  0  0  0  0  0  0  0  0  0  0
    0.1759   -3.5994    7.1089 H   0  0  0  0  0  0  0  0  0  0  0  0
   -0.0087   -3.2754    3.5415 H   0  0  0  0  0  0  0  0  0  0  0  0
    0.4603   -0.4836    3.1620 H   0  0  0  0  0  0  0  0  0  0  0  0
    1.0029    1.4846    4.6273 H   0  0  0  0  0  0  0  0  0  0  0  0
    2.4770    0.7867    4.0018 H   0  0  0  0  0  0  0  0  0  0  0  0
    1.9966    0.4529    5.6606 H   0  0  0  0  0  0  0  0  0  0  0  0
    2.1821   -1.9700    5.1821 H   0  0  0  0  0  0  0  0  0  0  0  0
    1.9445   -1.8696    2.2093 H   0  0  0  0  0  0  0  0  0  0  0  0
    2.4801    0.1550    1.8082 H   0  0  0  0  0  0  0  0  0  0  0  0
    3.1975   -1.0279    0.7051 H   0  0  0  0  0  0  0  0  0  0  0  0
    3.9047    0.5833    0.8719 H   0  0  0  0  0  0  0  0  0  0  0  0
    1.6473   -4.0518    2.1267 H   0  0  0  0  0  0  0  0  0  0  0  0
    4.7285   -2.8181   -0.7104 H   0  0  0  0  0  0  0  0  0  0  0  0
    4.1615   -4.1481   -1.7335 H   0  0  0  0  0  0  0  0  0  0  0  0
    5.2887   -4.4696   -0.4145 H   0  0  0  0  0  0  0  0  0  0  0  0
    4.2610   -5.2617    5.3423 H   0  0  0  0  0  0  0  0  0  0  0  0
    3.6086   -3.6564    5.2584 H   0  0  0  0  0  0  0  0  0  0  0  0
    4.8714   -4.1393    4.1363 H   0  0  0  0  0  0  0  0  0  0  0  0
    3.8428   -5.8967    1.9176 H   0  0  0  0  0  0  0  0  0  0  0  0
    4.1781   -8.3195    1.0432 H   0  0  0  0  0  0  0  0  0  0  0  0
    5.9179   -8.4534    0.7684 H   0  0  0  0  0  0  0  0  0  0  0  0
    5.1518   -6.8811    0.7372 H   0  0  0  0  0  0  0  0  0  0  0  0
    1.4908   -6.5815    1.8988 H   0  0  0  0  0  0  0  0  0  0  0  0
    2.5449   -7.9904    1.7860 H   0  0  0  0  0  0  0  0  0  0  0  0
    2.3238   -8.5927    4.0292 H   0  0  0  0  0  0  0  0  0  0  0  0
   -0.3851   -7.8178    1.5200 H   0  0  0  0  0  0  0  0  0  0  0  0
   -0.8353   -6.7418    2.8407 H   0  0  0  0  0  0  0  0  0  0  0  0
   -1.6916   -8.2531    2.5917 H   0  0  0  0  0  0  0  0  0  0  0  0
    0.8360  -10.1116    2.0819 H   0  0  0  0  0  0  0  0  0  0  0  0
   -0.5719  -10.4766    3.0702 H   0  0  0  0  0  0  0  0  0  0  0  0
    1.0332  -10.5606    3.7741 H   0  0  0  0  0  0  0  0  0  0  0  0
    3.4638   -7.4011    5.6680 H   0  0  0  0  0  0  0  0  0  0  0  0
    2.1297   -8.0811    6.5545 H   0  0  0  0  0  0  0  0  0  0  0  0
    2.5871   -6.3941    6.7699 H   0  0  0  0  0  0  0  0  0  0  0  0
    0.7845   -5.3541    3.5681 H   0  0  0  0  0  0  0  0  0  0  0  0
  1  2  2  0
  1 37  1  0
  1 38  1  0
  2 36  1  0
  2  3  1  0
  3  9  1  0
  3  4  1  0
  3 39  1  6
  4  5  1  0
  5  6  2  0
  5  7  1  0
  7  8  1  0
  7  9  1  0
  7 40  1  6
  8 41  1  0
  8 42  1  0
  8 43  1  0
  9 10  1  0
  9 44  1  1
 10 11  1  0
 10 15  1  0
 10 45  1  6
 11 12  1  0
 12 13  1  0
 12 14  2  0
 13 46  1  0
 13 47  1  0
 13 48  1  0
 15 16  1  0
 15 20  1  0
 15 49  1  6
 16 17  1  0
 17 18  1  0
 17 19  2  0
 18 50  1  0
 18 51  1  0
 18 52  1  0
 20 36  1  0
 20 21  1  1
 20 22  1  0
 21 53  1  0
 21 54  1  0
 21 55  1  0
 22 23  1  0
 22 27  1  0
 22 56  1  6
 23 24  1  0
 24 25  1  0
 24 26  2  0
 25 57  1  0
 25 58  1  0
 25 59  1  0
 27 28  1  0
 27 60  1  0
 27 61  1  0
 28 34  1  0
 28 29  1  0
 28 62  1  1
 29 30  1  0
 29 31  1  0
 29 32  1  0
 30 63  1  0
 30 64  1  0
 30 65  1  0
 31 66  1  0
 31 67  1  0
 31 68  1  0
 32 33  1  0
 33 34  1  0
 34 35  1  1
 34 36  1  0
 35 69  1  0
 35 70  1  0
 35 71  1  0
 36 72  1  6
M  END
>  <i_m_ct_stereo_status>  (362) 
1

>  <s_m_source_file>  (362) 
/var/tmp/pbs.5076255.sched01/tmpk7n3yjou/123nw9z_609.sdf

>  <i_m_source_file_index>  (362) 
39

>  <i_lp_mmshare_version>  (362) 
48012

>  <i_f3d_flags>  (362) 
0

>  <s_epik_input>  (362) 
W0NIM11DKD1PKU9bQ0BASF0xW0NASF0oT0MoPU8pW0NIM10pW0NAQEhdKFtDQEBIXShDKE8yKT1PKVtDSDNdKVtDQEhdMkMoPVtDSDJdKVtDQEBIXShbQ0BdMTNbQ0gzXSlbQ0BdNChbQ0gzXSlbQ0BASF0oQyhbQ0gzXSkoW0NIM10pT080KVtDSDJdW0NAQEhdM09DKD1PKVtDSDNd

>  <s_epik_cmdline>  (362) 
J2VwaWtfcHl0aG9uJywgJy1waHQnLCAnMi4wJywgJy1waCcsICc3LjAnLCAnLXRuJywgJzgnLCAnLW1hJywgJzIwMCcsICctaW1hZScsICc8aW5maWxlLm1hZT4nLCAnLW9tYWUnLCAnPG91dGZpbGUubWFlPic=

>  <r_lp_tautomer_probability>  (362) 
1

>  <r_epik_Ionization_Penalty>  (362) 
0

>  <r_epik_Ionization_Penalty_Charging>  (362) 
0

>  <r_epik_Ionization_Penalty_Neutral>  (362) 
0

>  <r_epik_State_Penalty>  (362) 
-0

>  <r_epik_Charging_Adjusted_Penalty>  (362) 
0

>  <i_epik_Tot_Q>  (362) 
0

>  <i_epik_Tot_abs_Q>  (362) 
0

>  <s_epik_Chemistry_Notes>  (362) 
This compound has an ester and may undergo hydrolysis at high or low pH.

>  <s_lp_Force_Field>  (362) 
OPLS3e

>  <r_lp_Energy>  (362) 
34.4389

>  <b_lp_Chiralities_Consistent>  (362) 
1

>  <s_lp_Variant>  (362) 
112:0-1

>  <s_i_glide_gridfile>  (362) 
pfpi4k_grid

>  <i_i_glide_lignum>  (362) 
39

>  <i_i_glide_rotatable_bonds>  (362) 
6

>  <r_i_docking_score>  (362) 
-2.44622

>  <r_i_glide_ligand_efficiency>  (362) 
-0.0679504

>  <r_i_glide_ligand_efficiency_sa>  (362) 
-0.224367

>  <r_i_glide_ligand_efficiency_ln>  (362) 
-0.533698

>  <r_i_glide_gscore>  (362) 
-2.44622

>  <r_i_glide_lipo>  (362) 
-0.0993434

>  <r_i_glide_hbond>  (362) 
-0.0708083

>  <r_i_glide_metal>  (362) 
-0

>  <r_i_glide_rewards>  (362) 
-0.0733937

>  <r_i_glide_evdw>  (362) 
-33.967

>  <r_i_glide_ecoul>  (362) 
-4.71837

>  <r_i_glide_erotb>  (362) 
0.23749

>  <r_i_glide_esite>  (362) 
-0.0340569

>  <r_i_glide_emodel>  (362) 
-37.7972

>  <r_i_glide_energy>  (362) 
-38.6853

>  <r_i_glide_einternal>  (362) 
11.3725

>  <r_i_glide_intrahb_reward>  (362) 
-0

>  <i_i_glide_confnum>  (362) 
3

>  <i_i_glide_posenum>  (362) 
1

>  <r_i_glide_eff_state_penalty>  (362) 
0

>  <ligand_id>  (362) 
112

>  <original_smiles>  (362) 
C=C1C2OC(=O)C(C)C2C(OC(C)=O)C(OC(C)=O)C2(C)C(OC(C)=O)CC3C(C)(C)OOC3(C)C12

>  <smiles>  (362) 
[H]C([H])=C1C2([H])OC(=O)C([H])(C([H])([H])[H])C2([H])C([H])(OC(=O)C([H])([H])[H])C([H])(OC(=O)C([H])([H])[H])C2(C([H])([H])[H])C([H])(OC(=O)C([H])([H])[H])C([H])([H])C3([H])C(C([H])([H])[H])(C([H])([H])[H])OOC3(C([H])([H])[H])C12[H]

$$$$
112:0:2
     RDKit          3D

 72 75  0  0  1  0  0  0  0  0999 V2000
    1.3772   -6.6967    0.9766 C   0  0  0  0  0  0  0  0  0  0  0  0
    1.7630   -6.1356    2.1347 C   0  0  0  0  0  0  0  0  0  0  0  0
    0.8591   -6.2287    3.3551 C   0  0  1  0  0  0  0  0  0  0  0  0
   -0.4569   -6.6532    3.0348 O   0  0  0  0  0  0  0  0  0  0  0  0
   -1.0070   -7.4176    3.9548 C   0  0  0  0  0  0  0  0  0  0  0  0
   -2.1560   -7.8391    3.9361 O   0  0  0  0  0  0  0  0  0  0  0  0
   -0.0012   -7.6636    5.0653 C   0  0  1  0  0  0  0  0  0  0  0  0
   -0.0787   -9.1060    5.5988 C   0  0  0  0  0  0  0  0  0  0  0  0
    1.3113   -7.2789    4.3676 C   0  0  2  0  0  0  0  0  0  0  0  0
    2.4346   -6.8141    5.3212 C   0  0  1  0  0  0  0  0  0  0  0  0
    3.1805   -7.9799    5.6775 O   0  0  0  0  0  0  0  0  0  0  0  0
    3.0845   -8.5246    6.9007 C   0  0  0  0  0  0  0  0  0  0  0  0
    3.8624   -9.8262    7.0108 C   0  0  0  0  0  0  0  0  0  0  0  0
    2.4243   -8.0830    7.8424 O   0  0  0  0  0  0  0  0  0  0  0  0
    3.4001   -5.6860    4.8297 C   0  0  1  0  0  0  0  0  0  0  0  0
    4.3770   -5.5794    5.8684 O   0  0  0  0  0  0  0  0  0  0  0  0
    4.2354   -4.6955    6.8697 C   0  0  0  0  0  0  0  0  0  0  0  0
    5.3968   -4.7447    7.8502 C   0  0  0  0  0  0  0  0  0  0  0  0
    3.2941   -3.9154    7.0171 O   0  0  0  0  0  0  0  0  0  0  0  0
    4.0574   -5.7627    3.3935 C   0  0  2  0  0  0  0  0  0  0  0  0
    4.4932   -7.2217    3.0886 C   0  0  0  0  0  0  0  0  0  0  0  0
    5.3087   -4.7888    3.3623 C   0  0  1  0  0  0  0  0  0  0  0  0
    6.4355   -5.2577    2.6151 O   0  0  0  0  0  0  0  0  0  0  0  0
    7.4308   -5.9579    3.2182 C   0  0  0  0  0  0  0  0  0  0  0  0
    8.6035   -6.2494    2.2908 C   0  0  0  0  0  0  0  0  0  0  0  0
    7.4435   -6.3355    4.3901 O   0  0  0  0  0  0  0  0  0  0  0  0
    4.9611   -3.3791    2.8433 C   0  0  0  0  0  0  0  0  0  0  0  0
    4.5265   -3.4146    1.3633 C   0  0  2  0  0  0  0  0  0  0  0  0
    3.7959   -2.1644    0.8214 C   0  0  0  0  0  0  0  0  0  0  0  0
    2.7347   -1.5547    1.7648 C   0  0  0  0  0  0  0  0  0  0  0  0
    4.7317   -1.0705    0.2808 C   0  0  0  0  0  0  0  0  0  0  0  0
    3.1468   -2.7744   -0.2679 O   0  0  0  0  0  0  0  0  0  0  0  0
    2.6128   -4.0664    0.2653 O   0  0  0  0  0  0  0  0  0  0  0  0
    3.6607   -4.6519    1.0224 C   0  0  1  0  0  0  0  0  0  0  0  0
    4.4477   -5.6225    0.0968 C   0  0  0  0  0  0  0  0  0  0  0  0
    3.0085   -5.2600    2.3188 C   0  0  1  0  0  0  0  0  0  0  0  0
    1.9426   -6.5850    0.0789 H   0  0  0  0  0  0  0  0  0  0  0  0
    0.4807   -7.2906    0.8987 H   0  0  0  0  0  0  0  0  0  0  0  0
    0.7719   -5.2434    3.8171 H   0  0  0  0  0  0  0  0  0  0  0  0
   -0.2303   -6.9628    5.8676 H   0  0  0  0  0  0  0  0  0  0  0  0
   -1.0657   -9.3158    6.0117 H   0  0  0  0  0  0  0  0  0  0  0  0
    0.6118   -9.3063    6.4109 H   0  0  0  0  0  0  0  0  0  0  0  0
    0.1129   -9.8356    4.8046 H   0  0  0  0  0  0  0  0  0  0  0  0
    1.6494   -8.1498    3.8042 H   0  0  0  0  0  0  0  0  0  0  0  0
    1.9507   -6.4016    6.2092 H   0  0  0  0  0  0  0  0  0  0  0  0
    4.9256   -9.6452    6.8513 H   0  0  0  0  0  0  0  0  0  0  0  0
    3.5139  -10.5407    6.2636 H   0  0  0  0  0  0  0  0  0  0  0  0
    3.7231  -10.2760    7.9939 H   0  0  0  0  0  0  0  0  0  0  0  0
    2.8236   -4.7614    4.8301 H   0  0  0  0  0  0  0  0  0  0  0  0
    5.5011   -5.7522    8.2516 H   0  0  0  0  0  0  0  0  0  0  0  0
    5.2366   -4.0576    8.6814 H   0  0  0  0  0  0  0  0  0  0  0  0
    6.3277   -4.4757    7.3508 H   0  0  0  0  0  0  0  0  0  0  0  0
    5.0297   -7.3077    2.1440 H   0  0  0  0  0  0  0  0  0  0  0  0
    3.6555   -7.9071    3.0105 H   0  0  0  0  0  0  0  0  0  0  0  0
    5.1490   -7.6059    3.8709 H   0  0  0  0  0  0  0  0  0  0  0  0
    5.7005   -4.6169    4.3611 H   0  0  0  0  0  0  0  0  0  0  0  0
    8.2753   -6.7923    1.4053 H   0  0  0  0  0  0  0  0  0  0  0  0
    9.3578   -6.8540    2.7999 H   0  0  0  0  0  0  0  0  0  0  0  0
    9.0738   -5.3145    1.9811 H   0  0  0  0  0  0  0  0  0  0  0  0
    4.1825   -2.9626    3.4776 H   0  0  0  0  0  0  0  0  0  0  0  0
    5.8175   -2.7162    2.9426 H   0  0  0  0  0  0  0  0  0  0  0  0
    5.4434   -3.4901    0.7759 H   0  0  0  0  0  0  0  0  0  0  0  0
    3.2002   -1.0714    2.6247 H   0  0  0  0  0  0  0  0  0  0  0  0
    2.0258   -2.2932    2.1360 H   0  0  0  0  0  0  0  0  0  0  0  0
    2.1571   -0.7859    1.2533 H   0  0  0  0  0  0  0  0  0  0  0  0
    5.3163   -0.6170    1.0811 H   0  0  0  0  0  0  0  0  0  0  0  0
    4.1586   -0.2803   -0.1980 H   0  0  0  0  0  0  0  0  0  0  0  0
    5.4205   -1.4713   -0.4611 H   0  0  0  0  0  0  0  0  0  0  0  0
    5.4615   -5.7934    0.4469 H   0  0  0  0  0  0  0  0  0  0  0  0
    4.5491   -5.2102   -0.9062 H   0  0  0  0  0  0  0  0  0  0  0  0
    3.9998   -6.6068    0.0063 H   0  0  0  0  0  0  0  0  0  0  0  0
    2.5416   -4.3811    2.7544 H   0  0  0  0  0  0  0  0  0  0  0  0
  1  2  2  0
  1 37  1  0
  1 38  1  0
  2 36  1  0
  2  3  1  0
  3  9  1  0
  3  4  1  0
  3 39  1  1
  4  5  1  0
  5  6  2  0
  5  7  1  0
  7  8  1  0
  7  9  1  0
  7 40  1  1
  8 41  1  0
  8 42  1  0
  8 43  1  0
  9 10  1  0
  9 44  1  6
 10 11  1  0
 10 15  1  0
 10 45  1  1
 11 12  1  0
 12 13  1  0
 12 14  2  0
 13 46  1  0
 13 47  1  0
 13 48  1  0
 15 16  1  0
 15 20  1  0
 15 49  1  6
 16 17  1  0
 17 18  1  0
 17 19  2  0
 18 50  1  0
 18 51  1  0
 18 52  1  0
 20 36  1  0
 20 21  1  6
 20 22  1  0
 21 53  1  0
 21 54  1  0
 21 55  1  0
 22 23  1  0
 22 27  1  0
 22 56  1  1
 23 24  1  0
 24 25  1  0
 24 26  2  0
 25 57  1  0
 25 58  1  0
 25 59  1  0
 27 28  1  0
 27 60  1  0
 27 61  1  0
 28 34  1  0
 28 29  1  0
 28 62  1  6
 29 30  1  0
 29 31  1  0
 29 32  1  0
 30 63  1  0
 30 64  1  0
 30 65  1  0
 31 66  1  0
 31 67  1  0
 31 68  1  0
 32 33  1  0
 33 34  1  0
 34 35  1  6
 34 36  1  0
 35 69  1  0
 35 70  1  0
 35 71  1  0
 36 72  1  1
M  END
>  <i_m_ct_stereo_status>  (363) 
1

>  <s_m_source_file>  (363) 
/var/tmp/pbs.5076255.sched01/tmpk7n3yjou/123nw9z_609.sdf

>  <i_m_source_file_index>  (363) 
39

>  <i_lp_mmshare_version>  (363) 
48012

>  <i_f3d_flags>  (363) 
0

>  <s_epik_input>  (363) 
W0NIM11DKD1PKU9bQ0BASF0xW0NASF0oT0MoPU8pW0NIM10pW0NAQEhdKFtDQEBIXShDKE8yKT1PKVtDSDNdKVtDQEhdMkMoPVtDSDJdKVtDQEBIXShbQ0BdMTNbQ0gzXSlbQ0BdNChbQ0gzXSlbQ0BASF0oQyhbQ0gzXSkoW0NIM10pT080KVtDSDJdW0NAQEhdM09DKD1PKVtDSDNd

>  <s_epik_cmdline>  (363) 
J2VwaWtfcHl0aG9uJywgJy1waHQnLCAnMi4wJywgJy1waCcsICc3LjAnLCAnLXRuJywgJzgnLCAnLW1hJywgJzIwMCcsICctaW1hZScsICc8aW5maWxlLm1hZT4nLCAnLW9tYWUnLCAnPG91dGZpbGUubWFlPic=

>  <r_lp_tautomer_probability>  (363) 
1

>  <r_epik_Ionization_Penalty>  (363) 
0

>  <r_epik_Ionization_Penalty_Charging>  (363) 
0

>  <r_epik_Ionization_Penalty_Neutral>  (363) 
0

>  <r_epik_State_Penalty>  (363) 
-0

>  <r_epik_Charging_Adjusted_Penalty>  (363) 
0

>  <i_epik_Tot_Q>  (363) 
0

>  <i_epik_Tot_abs_Q>  (363) 
0

>  <s_epik_Chemistry_Notes>  (363) 
This compound has an ester and may undergo hydrolysis at high or low pH.

>  <s_lp_Force_Field>  (363) 
OPLS3e

>  <r_lp_Energy>  (363) 
34.4389

>  <b_lp_Chiralities_Consistent>  (363) 
1

>  <s_lp_Variant>  (363) 
112:0-1

>  <s_i_glide_gridfile>  (363) 
pfpi4k_grid

>  <i_i_glide_lignum>  (363) 
39

>  <i_i_glide_rotatable_bonds>  (363) 
6

>  <r_i_docking_score>  (363) 
-1.86493

>  <r_i_glide_ligand_efficiency>  (363) 
-0.0518035

>  <r_i_glide_ligand_efficiency_sa>  (363) 
-0.171051

>  <r_i_glide_ligand_efficiency_ln>  (363) 
-0.406877

>  <r_i_glide_gscore>  (363) 
-1.86493

>  <r_i_glide_lipo>  (363) 
-0.126129

>  <r_i_glide_hbond>  (363) 
-0.16

>  <r_i_glide_metal>  (363) 
-0

>  <r_i_glide_rewards>  (363) 
-0.00883157

>  <r_i_glide_evdw>  (363) 
-27.4066

>  <r_i_glide_ecoul>  (363) 
-2.44624

>  <r_i_glide_erotb>  (363) 
0.23749

>  <r_i_glide_esite>  (363) 
-0.070189

>  <r_i_glide_emodel>  (363) 
-33.7714

>  <r_i_glide_energy>  (363) 
-29.8529

>  <r_i_glide_einternal>  (363) 
0.303444

>  <r_i_glide_intrahb_reward>  (363) 
-0

>  <i_i_glide_confnum>  (363) 
3

>  <i_i_glide_posenum>  (363) 
28

>  <r_i_glide_eff_state_penalty>  (363) 
0

>  <ligand_id>  (363) 
112

>  <original_smiles>  (363) 
C=C1C2OC(=O)C(C)C2C(OC(C)=O)C(OC(C)=O)C2(C)C(OC(C)=O)CC3C(C)(C)OOC3(C)C12

>  <smiles>  (363) 
[H]C([H])=C1C2([H])OC(=O)C([H])(C([H])([H])[H])C2([H])C([H])(OC(=O)C([H])([H])[H])C([H])(OC(=O)C([H])([H])[H])C2(C([H])([H])[H])C([H])(OC(=O)C([H])([H])[H])C([H])([H])C3([H])C(C([H])([H])[H])(C([H])([H])[H])OOC3(C([H])([H])[H])C12[H]

$$$$
