0:0:0
     RDKit          3D

 56 61  0  0  1  0  0  0  0  0999 V2000
    2.3978   -6.7522    2.5059 C   0  0  0  0  0  0  0  0  0  0  0  0
    3.8416   -6.5310    2.9980 C   0  0  2  0  0  0  0  0  0  0  0  0
    4.0331   -5.4834    4.1125 C   0  0  2  0  0  0  0  0  0  0  0  0
    2.8578   -4.5467    4.4662 C   0  0  0  0  0  0  0  0  0  0  0  0
    3.4562   -3.2862    4.6507 O   0  0  0  0  0  0  0  0  0  0  0  0
    4.6753   -3.1704    4.1443 C   0  0  0  0  0  0  0  0  0  0  0  0
    5.3316   -2.1495    4.0432 O   0  0  0  0  0  0  0  0  0  0  0  0
    5.1716   -4.5552    3.7054 C   0  0  2  0  0  0  0  0  0  0  0  0
    5.4881   -4.8082    2.1953 C   0  0  1  0  0  0  0  0  0  0  0  0
    7.0184   -4.9006    2.0170 C   0  0  0  0  0  0  0  0  0  0  0  0
    4.9354   -6.2259    1.9545 C   0  0  2  0  0  0  0  0  0  0  0  0
    4.6016   -6.5082    0.5119 C   0  0  0  0  0  0  0  0  0  0  0  0
    4.8051   -5.6192   -0.4745 C   0  0  0  0  0  0  0  0  0  0  0  0
    5.2988   -4.1891   -0.3247 C   0  0  2  0  0  0  0  0  0  0  0  0
    4.9650   -3.7682    1.1323 C   0  0  1  0  0  0  0  0  0  0  0  0
    3.4633   -3.4855    1.1535 C   0  0  0  0  0  0  0  0  0  0  0  0
    3.1601   -2.3265    0.2313 C   0  0  0  0  0  0  0  0  0  0  0  0
    3.3875   -2.6185   -1.2781 C   0  0  1  0  0  0  0  0  0  0  0  0
    2.2436   -3.4515   -1.8534 C   0  0  0  0  0  0  0  0  0  0  0  0
    3.4411   -1.3291   -2.0330 C   0  0  2  0  0  0  0  0  0  0  0  0
    3.9745   -1.2120   -3.3594 O   0  0  0  0  0  0  0  0  0  0  0  0
    4.8166   -0.8916   -2.2295 C   0  0  2  0  0  0  0  0  0  0  0  0
    5.7350   -1.9165   -1.6270 C   0  0  1  0  0  0  0  0  0  0  0  0
    6.2560   -1.4358   -0.4164 O   0  0  0  0  0  0  0  0  0  0  0  0
    4.8335   -3.1820   -1.4678 C   0  0  1  0  0  0  0  0  0  0  0  0
    5.0162   -3.8043   -2.8726 C   0  0  0  0  0  0  0  0  0  0  0  0
    1.9621   -5.8823    2.0194 H   0  0  0  0  0  0  0  0  0  0  0  0
    1.7542   -7.0153    3.3474 H   0  0  0  0  0  0  0  0  0  0  0  0
    2.3466   -7.5860    1.8039 H   0  0  0  0  0  0  0  0  0  0  0  0
    4.1217   -7.4846    3.4430 H   0  0  0  0  0  0  0  0  0  0  0  0
    4.3451   -5.9852    5.0272 H   0  0  0  0  0  0  0  0  0  0  0  0
    2.1333   -4.4435    3.6601 H   0  0  0  0  0  0  0  0  0  0  0  0
    2.3235   -4.8621    5.3610 H   0  0  0  0  0  0  0  0  0  0  0  0
    6.0488   -4.8046    4.2966 H   0  0  0  0  0  0  0  0  0  0  0  0
    7.3364   -5.3653    1.0797 H   0  0  0  0  0  0  0  0  0  0  0  0
    7.4922   -5.4777    2.8117 H   0  0  0  0  0  0  0  0  0  0  0  0
    7.4492   -3.9031    2.0230 H   0  0  0  0  0  0  0  0  0  0  0  0
    5.7392   -6.9355    2.1690 H   0  0  0  0  0  0  0  0  0  0  0  0
    4.2846   -7.5179    0.2866 H   0  0  0  0  0  0  0  0  0  0  0  0
    4.6416   -5.9516   -1.4723 H   0  0  0  0  0  0  0  0  0  0  0  0
    6.3749   -4.2542   -0.4531 H   0  0  0  0  0  0  0  0  0  0  0  0
    5.4643   -2.8372    1.3776 H   0  0  0  0  0  0  0  0  0  0  0  0
    2.8791   -4.3374    0.8165 H   0  0  0  0  0  0  0  0  0  0  0  0
    3.0838   -3.2073    2.1241 H   0  0  0  0  0  0  0  0  0  0  0  0
    2.1281   -2.1333    0.4756 H   0  0  0  0  0  0  0  0  0  0  0  0
    3.7049   -1.4382    0.5432 H   0  0  0  0  0  0  0  0  0  0  0  0
    2.3065   -3.5521   -2.9403 H   0  0  0  0  0  0  0  0  0  0  0  0
    1.2597   -3.0557   -1.6632 H   0  0  0  0  0  0  0  0  0  0  0  0
    2.2219   -4.4424   -1.3767 H   0  0  0  0  0  0  0  0  0  0  0  0
    2.6235   -0.6655   -1.8891 H   0  0  0  0  0  0  0  0  0  0  0  0
    5.1027    0.1408   -2.2338 H   0  0  0  0  0  0  0  0  0  0  0  0
    6.5848   -2.0807   -2.2880 H   0  0  0  0  0  0  0  0  0  0  0  0
    5.5324   -1.2319    0.1573 H   0  0  0  0  0  0  0  0  0  0  0  0
    4.9599   -3.1347   -3.7262 H   0  0  0  0  0  0  0  0  0  0  0  0
    4.2795   -4.5376   -3.1219 H   0  0  0  0  0  0  0  0  0  0  0  0
    6.0122   -4.2084   -2.9499 H   0  0  0  0  0  0  0  0  0  0  0  0
  1  2  1  0
  1 27  1  0
  1 28  1  0
  1 29  1  0
  2 11  1  0
  2  3  1  0
  2 30  1  1
  3  8  1  0
  3  4  1  0
  3 31  1  1
  4  5  1  0
  4 32  1  0
  4 33  1  0
  5  6  1  0
  6  7  2  0
  6  8  1  0
  8  9  1  0
  8 34  1  1
  9 15  1  0
  9 10  1  1
  9 11  1  0
 10 35  1  0
 10 36  1  0
 10 37  1  0
 11 12  1  0
 11 38  1  1
 12 13  2  0
 12 39  1  0
 13 14  1  0
 13 40  1  0
 14 25  1  0
 14 15  1  0
 14 41  1  1
 15 16  1  0
 15 42  1  1
 16 17  1  0
 16 43  1  0
 16 44  1  0
 17 18  1  0
 17 45  1  0
 17 46  1  0
 18 25  1  0
 18 19  1  6
 18 20  1  0
 19 47  1  0
 19 48  1  0
 19 49  1  0
 20 22  1  0
 20 21  1  0
 20 50  1  6
 21 22  1  0
 22 23  1  0
 22 51  1  6
 23 24  1  0
 23 25  1  0
 23 52  1  6
 24 53  1  0
 25 26  1  6
 26 54  1  0
 26 55  1  0
 26 56  1  0
M  END
>  <i_m_ct_stereo_status>  (1) 
1

>  <s_m_source_file>  (1) 
/var/tmp/pbs.5076255.sched01/tmp9s019jnz/08u7fdliu.sdf

>  <i_m_source_file_index>  (1) 
1

>  <i_lp_mmshare_version>  (1) 
48012

>  <i_f3d_flags>  (1) 
0

>  <s_epik_input>  (1) 
Tz1DMU9bQ0gyXVtDQEhdKFtDQEhdMVtDQEBdMjNbQ0gzXSlbQ0BASF0oW0NIM10pW0NASF0yW0NIXT1bQ0hdW0NAQEhdNFtDQEhdM1tDSDJdW0NIMl1bQ0BAXTUoW0NIM10pW0NASF02W0NASF0oTzYpW0NAQEhdKFtPSF0pW0NAQF00NVtDSDNd

>  <s_epik_cmdline>  (1) 
J2VwaWtfcHl0aG9uJywgJy1waHQnLCAnMi4wJywgJy1waCcsICc3LjAnLCAnLXRuJywgJzgnLCAnLW1hJywgJzIwMCcsICctaW1hZScsICc8aW5maWxlLm1hZT4nLCAnLW9tYWUnLCAnPG91dGZpbGUubWFlPic=

>  <r_lp_tautomer_probability>  (1) 
1

>  <r_epik_Ionization_Penalty>  (1) 
1.00394e-07

>  <r_epik_Ionization_Penalty_Charging>  (1) 
0

>  <r_epik_Ionization_Penalty_Neutral>  (1) 
1.00394e-07

>  <r_epik_State_Penalty>  (1) 
-0

>  <r_epik_Charging_Adjusted_Penalty>  (1) 
0

>  <i_epik_Tot_Q>  (1) 
0

>  <i_epik_Tot_abs_Q>  (1) 
0

>  <s_epik_Chemistry_Notes>  (1) 
This compound has an ester and may undergo hydrolysis at high or low pH.

>  <s_lp_Force_Field>  (1) 
OPLS3e

>  <r_lp_Energy>  (1) 
56.572

>  <b_lp_Chiralities_Consistent>  (1) 
1

>  <s_lp_Variant>  (1) 
0:0-1

>  <s_i_glide_gridfile>  (1) 
pfpi4k_grid

>  <i_i_glide_lignum>  (1) 
1

>  <i_i_glide_rotatable_bonds>  (1) 
1

>  <r_i_docking_score>  (1) 
-3.05679

>  <r_i_glide_ligand_efficiency>  (1) 
-0.117569

>  <r_i_glide_ligand_efficiency_sa>  (1) 
-0.348298

>  <r_i_glide_ligand_efficiency_ln>  (1) 
-0.717878

>  <r_i_glide_gscore>  (1) 
-3.05679

>  <r_i_glide_lipo>  (1) 
-0.574089

>  <r_i_glide_hbond>  (1) 
-0.0821491

>  <r_i_glide_metal>  (1) 
-0

>  <r_i_glide_rewards>  (1) 
-0.997746

>  <r_i_glide_evdw>  (1) 
-16.8641

>  <r_i_glide_ecoul>  (1) 
-3.7307

>  <r_i_glide_erotb>  (1) 
0

>  <r_i_glide_esite>  (1) 
0

>  <r_i_glide_emodel>  (1) 
-25.3165

>  <r_i_glide_energy>  (1) 
-20.5948

>  <r_i_glide_einternal>  (1) 
0.00268306

>  <r_i_glide_intrahb_reward>  (1) 
-0

>  <i_i_glide_confnum>  (1) 
1

>  <i_i_glide_posenum>  (1) 
23

>  <r_i_glide_eff_state_penalty>  (1) 
0

>  <ligand_id>  (1) 
0

>  <original_smiles>  (1) 
CC1C2COC(=O)C2C2(C)C1C=CC1C2CCC2(C)C3OC3C(O)C12C

>  <smiles>  (1) 
[H]OC1([H])C2([H])OC2([H])C2(C([H])([H])[H])C([H])([H])C([H])([H])C3([H])C([H])(C([H])=C([H])C4([H])C([H])(C([H])([H])[H])C5([H])C([H])([H])OC(=O)C5([H])C43C([H])([H])[H])C12C([H])([H])[H]

$$$$
0:0:1
     RDKit          3D

 56 61  0  0  1  0  0  0  0  0999 V2000
    4.2346   -8.6151    0.8115 C   0  0  0  0  0  0  0  0  0  0  0  0
    4.1849   -8.1226    2.2661 C   0  0  2  0  0  0  0  0  0  0  0  0
    2.7820   -7.8297    2.8485 C   0  0  2  0  0  0  0  0  0  0  0  0
    1.5628   -7.7410    1.9104 C   0  0  0  0  0  0  0  0  0  0  0  0
    0.8199   -6.6266    2.3922 O   0  0  0  0  0  0  0  0  0  0  0  0
    1.5007   -5.8453    3.2397 C   0  0  0  0  0  0  0  0  0  0  0  0
    1.1022   -4.7912    3.7338 O   0  0  0  0  0  0  0  0  0  0  0  0
    2.8526   -6.4734    3.5357 C   0  0  2  0  0  0  0  0  0  0  0  0
    4.1675   -5.7411    3.1033 C   0  0  1  0  0  0  0  0  0  0  0  0
    4.7671   -5.1040    4.3881 C   0  0  0  0  0  0  0  0  0  0  0  0
    5.0762   -6.9143    2.6575 C   0  0  2  0  0  0  0  0  0  0  0  0
    6.1901   -6.5027    1.7027 C   0  0  0  0  0  0  0  0  0  0  0  0
    6.3983   -5.2418    1.2794 C   0  0  0  0  0  0  0  0  0  0  0  0
    5.4857   -4.0502    1.6190 C   0  0  2  0  0  0  0  0  0  0  0  0
    4.0769   -4.6215    1.9861 C   0  0  1  0  0  0  0  0  0  0  0  0
    3.4040   -5.0017    0.6490 C   0  0  0  0  0  0  0  0  0  0  0  0
    3.1996   -3.7640   -0.2235 C   0  0  0  0  0  0  0  0  0  0  0  0
    4.5151   -3.0728   -0.6653 C   0  0  1  0  0  0  0  0  0  0  0  0
    5.1372   -3.8446   -1.8419 C   0  0  0  0  0  0  0  0  0  0  0  0
    4.1370   -1.6769   -1.1159 C   0  0  2  0  0  0  0  0  0  0  0  0
    5.1753   -0.7081   -1.2988 O   0  0  0  0  0  0  0  0  0  0  0  0
    4.4589   -0.7071   -0.0440 C   0  0  2  0  0  0  0  0  0  0  0  0
    5.0440   -1.4575    1.1315 C   0  0  1  0  0  0  0  0  0  0  0  0
    4.0349   -1.5097    2.1186 O   0  0  0  0  0  0  0  0  0  0  0  0
    5.4893   -2.8587    0.5637 C   0  0  1  0  0  0  0  0  0  0  0  0
    6.9704   -2.6107    0.1221 C   0  0  0  0  0  0  0  0  0  0  0  0
    3.8991   -7.8646    0.1039 H   0  0  0  0  0  0  0  0  0  0  0  0
    3.6071   -9.4989    0.6827 H   0  0  0  0  0  0  0  0  0  0  0  0
    5.2444   -8.9026    0.5203 H   0  0  0  0  0  0  0  0  0  0  0  0
    4.5679   -8.9706    2.8345 H   0  0  0  0  0  0  0  0  0  0  0  0
    2.5566   -8.5742    3.6148 H   0  0  0  0  0  0  0  0  0  0  0  0
    1.8426   -7.5491    0.8812 H   0  0  0  0  0  0  0  0  0  0  0  0
    0.9767   -8.6619    1.9243 H   0  0  0  0  0  0  0  0  0  0  0  0
    2.8748   -6.6516    4.6096 H   0  0  0  0  0  0  0  0  0  0  0  0
    5.8182   -4.8378    4.2640 H   0  0  0  0  0  0  0  0  0  0  0  0
    4.7470   -5.7954    5.2315 H   0  0  0  0  0  0  0  0  0  0  0  0
    4.2276   -4.2034    4.6878 H   0  0  0  0  0  0  0  0  0  0  0  0
    5.6157   -7.2514    3.5442 H   0  0  0  0  0  0  0  0  0  0  0  0
    6.8903   -7.2794    1.4287 H   0  0  0  0  0  0  0  0  0  0  0  0
    7.2725   -5.0676    0.6780 H   0  0  0  0  0  0  0  0  0  0  0  0
    5.9287   -3.6096    2.5070 H   0  0  0  0  0  0  0  0  0  0  0  0
    3.4662   -3.8394    2.4298 H   0  0  0  0  0  0  0  0  0  0  0  0
    3.9977   -5.7237    0.0955 H   0  0  0  0  0  0  0  0  0  0  0  0
    2.4312   -5.4503    0.7918 H   0  0  0  0  0  0  0  0  0  0  0  0
    2.6129   -4.0381   -1.0993 H   0  0  0  0  0  0  0  0  0  0  0  0
    2.5790   -3.0621    0.3340 H   0  0  0  0  0  0  0  0  0  0  0  0
    5.9511   -3.2915   -2.3126 H   0  0  0  0  0  0  0  0  0  0  0  0
    4.4068   -4.0478   -2.6235 H   0  0  0  0  0  0  0  0  0  0  0  0
    5.5184   -4.8028   -1.4990 H   0  0  0  0  0  0  0  0  0  0  0  0
    3.2605   -1.5419   -1.7477 H   0  0  0  0  0  0  0  0  0  0  0  0
    3.8132    0.1443    0.1385 H   0  0  0  0  0  0  0  0  0  0  0  0
    5.8703   -0.8860    1.5570 H   0  0  0  0  0  0  0  0  0  0  0  0
    3.2288   -1.7946    1.7131 H   0  0  0  0  0  0  0  0  0  0  0  0
    7.1059   -1.6753   -0.4172 H   0  0  0  0  0  0  0  0  0  0  0  0
    7.3731   -3.3850   -0.5288 H   0  0  0  0  0  0  0  0  0  0  0  0
    7.6235   -2.5456    0.9921 H   0  0  0  0  0  0  0  0  0  0  0  0
  1  2  1  0
  1 27  1  0
  1 28  1  0
  1 29  1  0
  2 11  1  0
  2  3  1  0
  2 30  1  1
  3  8  1  0
  3  4  1  0
  3 31  1  1
  4  5  1  0
  4 32  1  0
  4 33  1  0
  5  6  1  0
  6  7  2  0
  6  8  1  0
  8  9  1  0
  8 34  1  1
  9 15  1  0
  9 10  1  1
  9 11  1  0
 10 35  1  0
 10 36  1  0
 10 37  1  0
 11 12  1  0
 11 38  1  1
 12 13  2  0
 12 39  1  0
 13 14  1  0
 13 40  1  0
 14 25  1  0
 14 15  1  0
 14 41  1  1
 15 16  1  0
 15 42  1  1
 16 17  1  0
 16 43  1  0
 16 44  1  0
 17 18  1  0
 17 45  1  0
 17 46  1  0
 18 25  1  0
 18 19  1  6
 18 20  1  0
 19 47  1  0
 19 48  1  0
 19 49  1  0
 20 22  1  0
 20 21  1  0
 20 50  1  6
 21 22  1  0
 22 23  1  0
 22 51  1  1
 23 24  1  0
 23 25  1  0
 23 52  1  1
 24 53  1  0
 25 26  1  6
 26 54  1  0
 26 55  1  0
 26 56  1  0
M  END
>  <i_m_ct_stereo_status>  (2) 
1

>  <s_m_source_file>  (2) 
/var/tmp/pbs.5076255.sched01/tmp9s019jnz/08u7fdliu.sdf

>  <i_m_source_file_index>  (2) 
1

>  <i_lp_mmshare_version>  (2) 
48012

>  <i_f3d_flags>  (2) 
0

>  <s_epik_input>  (2) 
Tz1DMU9bQ0gyXVtDQEhdKFtDQEhdMVtDQEBdMjNbQ0gzXSlbQ0BASF0oW0NIM10pW0NASF0yW0NIXT1bQ0hdW0NAQEhdNFtDQEhdM1tDSDJdW0NIMl1bQ0BAXTUoW0NIM10pW0NASF02W0NASF0oTzYpW0NAQEhdKFtPSF0pW0NAQF00NVtDSDNd

>  <s_epik_cmdline>  (2) 
J2VwaWtfcHl0aG9uJywgJy1waHQnLCAnMi4wJywgJy1waCcsICc3LjAnLCAnLXRuJywgJzgnLCAnLW1hJywgJzIwMCcsICctaW1hZScsICc8aW5maWxlLm1hZT4nLCAnLW9tYWUnLCAnPG91dGZpbGUubWFlPic=

>  <r_lp_tautomer_probability>  (2) 
1

>  <r_epik_Ionization_Penalty>  (2) 
1.00394e-07

>  <r_epik_Ionization_Penalty_Charging>  (2) 
0

>  <r_epik_Ionization_Penalty_Neutral>  (2) 
1.00394e-07

>  <r_epik_State_Penalty>  (2) 
-0

>  <r_epik_Charging_Adjusted_Penalty>  (2) 
0

>  <i_epik_Tot_Q>  (2) 
0

>  <i_epik_Tot_abs_Q>  (2) 
0

>  <s_epik_Chemistry_Notes>  (2) 
This compound has an ester and may undergo hydrolysis at high or low pH.

>  <s_lp_Force_Field>  (2) 
OPLS3e

>  <r_lp_Energy>  (2) 
56.572

>  <b_lp_Chiralities_Consistent>  (2) 
1

>  <s_lp_Variant>  (2) 
0:0-1

>  <s_i_glide_gridfile>  (2) 
pfpi4k_grid

>  <i_i_glide_lignum>  (2) 
1

>  <i_i_glide_rotatable_bonds>  (2) 
1

>  <r_i_docking_score>  (2) 
-2.92147

>  <r_i_glide_ligand_efficiency>  (2) 
-0.112364

>  <r_i_glide_ligand_efficiency_sa>  (2) 
-0.332879

>  <r_i_glide_ligand_efficiency_ln>  (2) 
-0.686098

>  <r_i_glide_gscore>  (2) 
-2.92147

>  <r_i_glide_lipo>  (2) 
-0.427022

>  <r_i_glide_hbond>  (2) 
0

>  <r_i_glide_metal>  (2) 
-0

>  <r_i_glide_rewards>  (2) 
-0.964969

>  <r_i_glide_evdw>  (2) 
-27.1712

>  <r_i_glide_ecoul>  (2) 
-1.01699

>  <r_i_glide_erotb>  (2) 
0

>  <r_i_glide_esite>  (2) 
-0.0183679

>  <r_i_glide_emodel>  (2) 
-33.8542

>  <r_i_glide_energy>  (2) 
-28.1882

>  <r_i_glide_einternal>  (2) 
0.0967945

>  <r_i_glide_intrahb_reward>  (2) 
-0

>  <i_i_glide_confnum>  (2) 
2

>  <i_i_glide_posenum>  (2) 
35

>  <r_i_glide_eff_state_penalty>  (2) 
0

>  <ligand_id>  (2) 
0

>  <original_smiles>  (2) 
CC1C2COC(=O)C2C2(C)C1C=CC1C2CCC2(C)C3OC3C(O)C12C

>  <smiles>  (2) 
[H]OC1([H])C2([H])OC2([H])C2(C([H])([H])[H])C([H])([H])C([H])([H])C3([H])C([H])(C([H])=C([H])C4([H])C([H])(C([H])([H])[H])C5([H])C([H])([H])OC(=O)C5([H])C43C([H])([H])[H])C12C([H])([H])[H]

$$$$
0:0:2
     RDKit          3D

 56 61  0  0  1  0  0  0  0  0999 V2000
    4.1973   -8.5762    0.8840 C   0  0  0  0  0  0  0  0  0  0  0  0
    4.2349   -8.0858    2.3420 C   0  0  2  0  0  0  0  0  0  0  0  0
    2.8728   -7.7442    2.9932 C   0  0  2  0  0  0  0  0  0  0  0  0
    1.6129   -7.6137    2.1148 C   0  0  0  0  0  0  0  0  0  0  0  0
    0.9330   -6.4749    2.6319 O   0  0  0  0  0  0  0  0  0  0  0  0
    1.6802   -5.7143    3.4402 C   0  0  0  0  0  0  0  0  0  0  0  0
    1.3466   -4.6473    3.9529 O   0  0  0  0  0  0  0  0  0  0  0  0
    3.0219   -6.3902    3.6736 C   0  0  2  0  0  0  0  0  0  0  0  0
    4.3379   -5.7039    3.1762 C   0  0  1  0  0  0  0  0  0  0  0  0
    5.0231   -5.0872    4.4281 C   0  0  0  0  0  0  0  0  0  0  0  0
    5.1842   -6.9077    2.6891 C   0  0  2  0  0  0  0  0  0  0  0  0
    6.2625   -6.5399    1.6810 C   0  0  0  0  0  0  0  0  0  0  0  0
    6.4929   -5.2830    1.2424 C   0  0  0  0  0  0  0  0  0  0  0  0
    5.6412   -4.0630    1.6240 C   0  0  2  0  0  0  0  0  0  0  0  0
    4.2336   -4.5816    2.0623 C   0  0  1  0  0  0  0  0  0  0  0  0
    3.4827   -4.9409    0.7618 C   0  0  0  0  0  0  0  0  0  0  0  0
    3.2789   -3.6972   -0.1018 C   0  0  0  0  0  0  0  0  0  0  0  0
    4.5928   -3.0550   -0.6111 C   0  0  1  0  0  0  0  0  0  0  0  0
    5.1273   -3.8515   -1.8130 C   0  0  0  0  0  0  0  0  0  0  0  0
    4.2417   -1.6482   -1.0456 C   0  0  2  0  0  0  0  0  0  0  0  0
    5.3042   -0.7186   -1.2815 O   0  0  0  0  0  0  0  0  0  0  0  0
    4.6456   -0.6879    0.0062 C   0  0  2  0  0  0  0  0  0  0  0  0
    5.2665   -1.4534    1.1539 C   0  0  1  0  0  0  0  0  0  0  0  0
    4.3034   -1.4667    2.1893 O   0  0  0  0  0  0  0  0  0  0  0  0
    5.6334   -2.8720    0.5685 C   0  0  1  0  0  0  0  0  0  0  0  0
    7.0993   -2.6791    0.0551 C   0  0  0  0  0  0  0  0  0  0  0  0
    3.8469   -7.8113    0.1995 H   0  0  0  0  0  0  0  0  0  0  0  0
    3.5343   -9.4383    0.7894 H   0  0  0  0  0  0  0  0  0  0  0  0
    5.1799   -8.9005    0.5426 H   0  0  0  0  0  0  0  0  0  0  0  0
    4.6147   -8.9463    2.8935 H   0  0  0  0  0  0  0  0  0  0  0  0
    2.6608   -8.4784    3.7726 H   0  0  0  0  0  0  0  0  0  0  0  0
    1.8457   -7.4342    1.0673 H   0  0  0  0  0  0  0  0  0  0  0  0
    0.9957   -8.5131    2.1630 H   0  0  0  0  0  0  0  0  0  0  0  0
    3.0909   -6.5674    4.7463 H   0  0  0  0  0  0  0  0  0  0  0  0
    6.0755   -4.8578    4.2512 H   0  0  0  0  0  0  0  0  0  0  0  0
    5.0224   -5.7780    5.2733 H   0  0  0  0  0  0  0  0  0  0  0  0
    4.5289   -4.1705    4.7546 H   0  0  0  0  0  0  0  0  0  0  0  0
    5.7546   -7.2643    3.5498 H   0  0  0  0  0  0  0  0  0  0  0  0
    6.9208   -7.3393    1.3748 H   0  0  0  0  0  0  0  0  0  0  0  0
    7.3414   -5.1443    0.5993 H   0  0  0  0  0  0  0  0  0  0  0  0
    6.1486   -3.6406    2.4856 H   0  0  0  0  0  0  0  0  0  0  0  0
    3.6688   -3.7794    2.5290 H   0  0  0  0  0  0  0  0  0  0  0  0
    4.0219   -5.6840    0.1816 H   0  0  0  0  0  0  0  0  0  0  0  0
    2.5024   -5.3543    0.9528 H   0  0  0  0  0  0  0  0  0  0  0  0
    2.6392   -3.9507   -0.9462 H   0  0  0  0  0  0  0  0  0  0  0  0
    2.7153   -2.9708    0.4849 H   0  0  0  0  0  0  0  0  0  0  0  0
    5.9384   -3.3314   -2.3239 H   0  0  0  0  0  0  0  0  0  0  0  0
    4.3525   -4.0239   -2.5589 H   0  0  0  0  0  0  0  0  0  0  0  0
    5.4848   -4.8277   -1.4912 H   0  0  0  0  0  0  0  0  0  0  0  0
    3.3407   -1.4829   -1.6353 H   0  0  0  0  0  0  0  0  0  0  0  0
    4.0468    0.1959    0.2118 H   0  0  0  0  0  0  0  0  0  0  0  0
    6.1327   -0.9077    1.5311 H   0  0  0  0  0  0  0  0  0  0  0  0
    4.6432   -1.9526    2.9241 H   0  0  0  0  0  0  0  0  0  0  0  0
    7.2398   -1.7542   -0.4971 H   0  0  0  0  0  0  0  0  0  0  0  0
    7.4428   -3.4669   -0.6118 H   0  0  0  0  0  0  0  0  0  0  0  0
    7.8004   -2.6326    0.8890 H   0  0  0  0  0  0  0  0  0  0  0  0
  1  2  1  0
  1 27  1  0
  1 28  1  0
  1 29  1  0
  2 11  1  0
  2  3  1  0
  2 30  1  1
  3  8  1  0
  3  4  1  0
  3 31  1  1
  4  5  1  0
  4 32  1  0
  4 33  1  0
  5  6  1  0
  6  7  2  0
  6  8  1  0
  8  9  1  0
  8 34  1  1
  9 15  1  0
  9 10  1  1
  9 11  1  0
 10 35  1  0
 10 36  1  0
 10 37  1  0
 11 12  1  0
 11 38  1  1
 12 13  2  0
 12 39  1  0
 13 14  1  0
 13 40  1  0
 14 25  1  0
 14 15  1  0
 14 41  1  1
 15 16  1  0
 15 42  1  1
 16 17  1  0
 16 43  1  0
 16 44  1  0
 17 18  1  0
 17 45  1  0
 17 46  1  0
 18 25  1  0
 18 19  1  6
 18 20  1  0
 19 47  1  0
 19 48  1  0
 19 49  1  0
 20 22  1  0
 20 21  1  0
 20 50  1  6
 21 22  1  0
 22 23  1  0
 22 51  1  1
 23 24  1  0
 23 25  1  0
 23 52  1  1
 24 53  1  0
 25 26  1  6
 26 54  1  0
 26 55  1  0
 26 56  1  0
M  END
>  <i_m_ct_stereo_status>  (3) 
1

>  <s_m_source_file>  (3) 
/var/tmp/pbs.5076255.sched01/tmp9s019jnz/08u7fdliu.sdf

>  <i_m_source_file_index>  (3) 
1

>  <i_lp_mmshare_version>  (3) 
48012

>  <i_f3d_flags>  (3) 
0

>  <s_epik_input>  (3) 
Tz1DMU9bQ0gyXVtDQEhdKFtDQEhdMVtDQEBdMjNbQ0gzXSlbQ0BASF0oW0NIM10pW0NASF0yW0NIXT1bQ0hdW0NAQEhdNFtDQEhdM1tDSDJdW0NIMl1bQ0BAXTUoW0NIM10pW0NASF02W0NASF0oTzYpW0NAQEhdKFtPSF0pW0NAQF00NVtDSDNd

>  <s_epik_cmdline>  (3) 
J2VwaWtfcHl0aG9uJywgJy1waHQnLCAnMi4wJywgJy1waCcsICc3LjAnLCAnLXRuJywgJzgnLCAnLW1hJywgJzIwMCcsICctaW1hZScsICc8aW5maWxlLm1hZT4nLCAnLW9tYWUnLCAnPG91dGZpbGUubWFlPic=

>  <r_lp_tautomer_probability>  (3) 
1

>  <r_epik_Ionization_Penalty>  (3) 
1.00394e-07

>  <r_epik_Ionization_Penalty_Charging>  (3) 
0

>  <r_epik_Ionization_Penalty_Neutral>  (3) 
1.00394e-07

>  <r_epik_State_Penalty>  (3) 
-0

>  <r_epik_Charging_Adjusted_Penalty>  (3) 
0

>  <i_epik_Tot_Q>  (3) 
0

>  <i_epik_Tot_abs_Q>  (3) 
0

>  <s_epik_Chemistry_Notes>  (3) 
This compound has an ester and may undergo hydrolysis at high or low pH.

>  <s_lp_Force_Field>  (3) 
OPLS3e

>  <r_lp_Energy>  (3) 
56.572

>  <b_lp_Chiralities_Consistent>  (3) 
1

>  <s_lp_Variant>  (3) 
0:0-1

>  <s_i_glide_gridfile>  (3) 
pfpi4k_grid

>  <i_i_glide_lignum>  (3) 
1

>  <i_i_glide_rotatable_bonds>  (3) 
1

>  <r_i_docking_score>  (3) 
-2.84886

>  <r_i_glide_ligand_efficiency>  (3) 
-0.109572

>  <r_i_glide_ligand_efficiency_sa>  (3) 
-0.324605

>  <r_i_glide_ligand_efficiency_ln>  (3) 
-0.669046

>  <r_i_glide_gscore>  (3) 
-2.84886

>  <r_i_glide_lipo>  (3) 
-0.490172

>  <r_i_glide_hbond>  (3) 
0

>  <r_i_glide_metal>  (3) 
-0

>  <r_i_glide_rewards>  (3) 
-0.964969

>  <r_i_glide_evdw>  (3) 
-27.1964

>  <r_i_glide_ecoul>  (3) 
-0.158078

>  <r_i_glide_erotb>  (3) 
0

>  <r_i_glide_esite>  (3) 
-0.0101893

>  <r_i_glide_emodel>  (3) 
-32.8163

>  <r_i_glide_energy>  (3) 
-27.3545

>  <r_i_glide_einternal>  (3) 
0.312618

>  <r_i_glide_intrahb_reward>  (3) 
-0

>  <i_i_glide_confnum>  (3) 
1

>  <i_i_glide_posenum>  (3) 
19

>  <r_i_glide_eff_state_penalty>  (3) 
0

>  <ligand_id>  (3) 
0

>  <original_smiles>  (3) 
CC1C2COC(=O)C2C2(C)C1C=CC1C2CCC2(C)C3OC3C(O)C12C

>  <smiles>  (3) 
[H]OC1([H])C2([H])OC2([H])C2(C([H])([H])[H])C([H])([H])C([H])([H])C3([H])C([H])(C([H])=C([H])C4([H])C([H])(C([H])([H])[H])C5([H])C([H])([H])OC(=O)C5([H])C43C([H])([H])[H])C12C([H])([H])[H]

$$$$
1:0:0
     RDKit          3D

 73 79  0  0  1  0  0  0  0  0999 V2000
    2.7556   -1.6374    3.2841 C   0  0  0  0  0  0  0  0  0  0  0  0
    1.6227   -2.5768    3.7448 C   0  0  2  0  0  0  0  0  0  0  0  0
    1.3543   -2.5410    5.2683 C   0  0  0  0  0  0  0  0  0  0  0  0
    1.5889   -3.9883    5.7311 C   0  0  1  0  0  0  0  0  0  0  0  0
    2.9899   -3.9802    5.9649 O   0  0  0  0  0  0  0  0  0  0  0  0
    1.0689   -4.4005    7.1057 C   0  0  1  0  0  0  0  0  0  0  0  0
   -0.3266   -4.1911    7.2390 O   0  0  0  0  0  0  0  0  0  0  0  0
    1.4823   -5.8471    7.5139 C   0  0  0  0  0  0  0  0  0  0  0  0
    2.4868   -6.7384    6.6652 C   0  0  1  0  0  0  0  0  0  0  0  0
    2.6880   -7.9606    7.6318 C   0  0  0  0  0  0  0  0  0  0  0  0
    2.0763   -7.1409    5.1529 C   0  0  1  0  0  0  0  0  0  0  0  0
    0.8740   -6.3511    4.4918 C   0  0  2  0  0  0  0  0  0  0  0  0
   -0.3400   -6.8380    5.2779 C   0  0  0  0  0  0  0  0  0  0  0  0
   -0.8614   -7.9686    4.7940 C   0  0  0  0  0  0  0  0  0  0  0  0
   -0.2681   -8.3177    3.4645 C   0  0  2  0  0  0  0  0  0  0  0  0
   -1.3899   -8.8057    2.5293 C   0  0  0  0  0  0  0  0  0  0  0  0
    0.9180   -9.3415    3.5350 C   0  0  0  0  0  0  0  0  0  0  0  0
    2.3002   -8.7499    3.0580 C   0  0  1  0  0  0  0  0  0  0  0  0
    3.0522   -9.8961    2.6935 O   0  0  0  0  0  0  0  0  0  0  0  0
    2.0430   -8.1082    1.6890 C   0  0  0  0  0  0  0  0  0  0  0  0
    1.0862   -6.9279    1.8119 C   0  0  1  0  0  0  0  0  0  0  0  0
    0.2200   -6.8396    0.6959 O   0  0  0  0  0  0  0  0  0  0  0  0
    0.2911   -6.9212    3.1210 C   0  0  2  0  0  0  0  0  0  0  0  0
    3.0952   -7.8156    4.1123 C   0  0  2  0  0  0  0  0  0  0  0  0
    3.9201   -8.8240    4.9870 C   0  0  0  0  0  0  0  0  0  0  0  0
    4.1688   -6.8400    3.3918 C   0  0  2  0  0  0  0  0  0  0  0  0
    5.3906   -7.4879    2.7572 C   0  0  0  0  0  0  0  0  0  0  0  0
    5.4624   -6.8494    4.0299 O   0  0  0  0  0  0  0  0  0  0  0  0
    3.8384   -5.4475    2.7675 C   0  0  1  0  0  0  0  0  0  0  0  0
    3.9408   -5.2401    1.2278 C   0  0  0  0  0  0  0  0  0  0  0  0
    3.2055   -4.3769    3.4518 O   0  0  0  0  0  0  0  0  0  0  0  0
    1.8146   -4.0695    3.3641 C   0  0  1  0  0  0  0  0  0  0  0  0
    1.0474   -4.7835    4.4937 C   0  0  2  0  0  0  0  0  0  0  0  0
    3.6953   -1.8741    3.7840 H   0  0  0  0  0  0  0  0  0  0  0  0
    2.5147   -0.5986    3.5108 H   0  0  0  0  0  0  0  0  0  0  0  0
    2.9187   -1.7125    2.2081 H   0  0  0  0  0  0  0  0  0  0  0  0
    0.7094   -2.2300    3.2580 H   0  0  0  0  0  0  0  0  0  0  0  0
    1.9746   -1.8147    5.7985 H   0  0  0  0  0  0  0  0  0  0  0  0
    0.3146   -2.2583    5.4364 H   0  0  0  0  0  0  0  0  0  0  0  0
    3.2687   -4.8682    6.1022 H   0  0  0  0  0  0  0  0  0  0  0  0
    1.5087   -3.7133    7.8319 H   0  0  0  0  0  0  0  0  0  0  0  0
   -0.7729   -4.7952    6.6746 H   0  0  0  0  0  0  0  0  0  0  0  0
    1.9466   -5.6965    8.4888 H   0  0  0  0  0  0  0  0  0  0  0  0
    0.6020   -6.4377    7.7703 H   0  0  0  0  0  0  0  0  0  0  0  0
    3.4612   -6.2623    6.6303 H   0  0  0  0  0  0  0  0  0  0  0  0
    1.8657   -8.6786    7.5735 H   0  0  0  0  0  0  0  0  0  0  0  0
    2.7480   -7.6544    8.6767 H   0  0  0  0  0  0  0  0  0  0  0  0
    3.6127   -8.5080    7.4998 H   0  0  0  0  0  0  0  0  0  0  0  0
    1.6032   -8.0507    5.4903 H   0  0  0  0  0  0  0  0  0  0  0  0
   -0.7281   -6.3554    6.1557 H   0  0  0  0  0  0  0  0  0  0  0  0
   -1.7034   -8.5073    5.2027 H   0  0  0  0  0  0  0  0  0  0  0  0
   -1.0098   -9.0400    1.5431 H   0  0  0  0  0  0  0  0  0  0  0  0
   -2.1797   -8.0634    2.4173 H   0  0  0  0  0  0  0  0  0  0  0  0
   -1.8493   -9.7184    2.9117 H   0  0  0  0  0  0  0  0  0  0  0  0
    0.9967   -9.8195    4.5123 H   0  0  0  0  0  0  0  0  0  0  0  0
    0.6677  -10.1809    2.8796 H   0  0  0  0  0  0  0  0  0  0  0  0
    3.7758   -9.6358    2.1537 H   0  0  0  0  0  0  0  0  0  0  0  0
    2.9632   -7.8153    1.1892 H   0  0  0  0  0  0  0  0  0  0  0  0
    1.6029   -8.8586    1.0346 H   0  0  0  0  0  0  0  0  0  0  0  0
    1.6479   -6.0371    1.7508 H   0  0  0  0  0  0  0  0  0  0  0  0
   -0.1109   -7.7100    0.5168 H   0  0  0  0  0  0  0  0  0  0  0  0
   -0.5665   -6.2791    2.9051 H   0  0  0  0  0  0  0  0  0  0  0  0
    4.6216   -9.4574    4.4433 H   0  0  0  0  0  0  0  0  0  0  0  0
    3.2762   -9.5268    5.5194 H   0  0  0  0  0  0  0  0  0  0  0  0
    4.5560   -8.2996    5.7019 H   0  0  0  0  0  0  0  0  0  0  0  0
    5.5068   -8.5608    2.7718 H   0  0  0  0  0  0  0  0  0  0  0  0
    5.9425   -6.9749    1.9706 H   0  0  0  0  0  0  0  0  0  0  0  0
    4.8071   -4.9909    2.9883 H   0  0  0  0  0  0  0  0  0  0  0  0
    4.2538   -6.1308    0.6899 H   0  0  0  0  0  0  0  0  0  0  0  0
    4.6764   -4.4698    1.0030 H   0  0  0  0  0  0  0  0  0  0  0  0
    3.0221   -4.8817    0.7678 H   0  0  0  0  0  0  0  0  0  0  0  0
    1.4116   -4.1738    2.3643 H   0  0  0  0  0  0  0  0  0  0  0  0
    0.0149   -4.4495    4.3743 H   0  0  0  0  0  0  0  0  0  0  0  0
  1  2  1  0
  1 34  1  0
  1 35  1  0
  1 36  1  0
  2 32  1  0
  2  3  1  0
  2 37  1  6
  3  4  1  0
  3 38  1  0
  3 39  1  0
  4 33  1  0
  4  5  1  1
  4  6  1  0
  5 40  1  0
  6  7  1  0
  6  8  1  0
  6 41  1  1
  7 42  1  0
  8  9  1  0
  8 43  1  0
  8 44  1  0
  9 10  1  0
  9 11  1  0
  9 45  1  6
 10 46  1  0
 10 47  1  0
 10 48  1  0
 11 24  1  0
 11 12  1  0
 11 49  1  1
 12 23  1  0
 12 33  1  0
 12 13  1  1
 13 14  2  0
 13 50  1  0
 14 15  1  0
 14 51  1  0
 15 23  1  0
 15 16  1  6
 15 17  1  0
 16 52  1  0
 16 53  1  0
 16 54  1  0
 17 18  1  0
 17 55  1  0
 17 56  1  0
 18 19  1  6
 18 20  1  0
 18 24  1  0
 19 57  1  0
 20 21  1  0
 20 58  1  0
 20 59  1  0
 21 22  1  0
 21 23  1  0
 21 60  1  1
 22 61  1  0
 23 62  1  6
 24 25  1  1
 24 26  1  0
 25 63  1  0
 25 64  1  0
 25 65  1  0
 26 28  1  1
 26 27  1  0
 26 29  1  0
 27 28  1  0
 27 66  1  0
 27 67  1  0
 29 30  1  0
 29 31  1  0
 29 68  1  1
 30 69  1  0
 30 70  1  0
 30 71  1  0
 31 32  1  0
 32 33  1  0
 32 72  1  6
 33 73  1  6
M  END
>  <i_m_ct_stereo_status>  (4) 
1

>  <s_m_source_file>  (4) 
/var/tmp/pbs.5076255.sched01/tmp9s019jnz/08u7fdliu.sdf

>  <i_m_source_file_index>  (4) 
2

>  <i_lp_mmshare_version>  (4) 
48012

>  <i_f3d_flags>  (4) 
0

>  <s_epik_input>  (4) 
W0NIM11bQ0BASF0xW0NIMl1bQ0BIXShbT0hdKVtDQF0oW09IXSkoW0NIMl1bQ0BIXTJbQ0gzXSlbQ0BIXTNbQ0BASF0yT1tDQEhdKFtDSDNdKVtDQF00KFtDSDJdTzQpW0NAXShbQ0BASF0xW0NAXTM1NikoW0NIM10pW0NAQF03KFtPSF0pW0NIMl1bQ0BAXShbQ0gzXSkoW0NIXT1bQ0hdNSlbQ0BASF02W0NAQEhdKFtDSDJdNylbT0hd

>  <s_epik_cmdline>  (4) 
J2VwaWtfcHl0aG9uJywgJy1waHQnLCAnMi4wJywgJy1waCcsICc3LjAnLCAnLXRuJywgJzgnLCAnLW1hJywgJzIwMCcsICctaW1hZScsICc8aW5maWxlLm1hZT4nLCAnLW9tYWUnLCAnPG91dGZpbGUubWFlPic=

>  <r_lp_tautomer_probability>  (4) 
1

>  <r_epik_Ionization_Penalty>  (4) 
1.98884e-06

>  <r_epik_Ionization_Penalty_Charging>  (4) 
0

>  <r_epik_Ionization_Penalty_Neutral>  (4) 
1.98884e-06

>  <r_epik_State_Penalty>  (4) 
-0

>  <r_epik_Charging_Adjusted_Penalty>  (4) 
0

>  <i_epik_Tot_Q>  (4) 
0

>  <i_epik_Tot_abs_Q>  (4) 
0

>  <s_lp_Force_Field>  (4) 
OPLS3e

>  <r_lp_Energy>  (4) 
152.273

>  <b_lp_Chiralities_Consistent>  (4) 
1

>  <s_lp_Variant>  (4) 
1:0-1

>  <s_i_glide_gridfile>  (4) 
pfpi4k_grid

>  <i_i_glide_lignum>  (4) 
2

>  <i_i_glide_rotatable_bonds>  (4) 
4

>  <r_i_docking_score>  (4) 
-2.80621

>  <r_i_glide_ligand_efficiency>  (4) 
-0.0850368

>  <r_i_glide_ligand_efficiency_sa>  (4) 
-0.272758

>  <r_i_glide_ligand_efficiency_ln>  (4) 
-0.624088

>  <r_i_glide_gscore>  (4) 
-2.80621

>  <r_i_glide_lipo>  (4) 
-0.142082

>  <r_i_glide_hbond>  (4) 
-0.25908

>  <r_i_glide_metal>  (4) 
-0

>  <r_i_glide_rewards>  (4) 
-0.268617

>  <r_i_glide_evdw>  (4) 
-26.8637

>  <r_i_glide_ecoul>  (4) 
-5.28834

>  <r_i_glide_erotb>  (4) 
0

>  <r_i_glide_esite>  (4) 
0

>  <r_i_glide_emodel>  (4) 
-37.912

>  <r_i_glide_energy>  (4) 
-32.152

>  <r_i_glide_einternal>  (4) 
0.453861

>  <r_i_glide_intrahb_reward>  (4) 
-0

>  <i_i_glide_confnum>  (4) 
2

>  <i_i_glide_posenum>  (4) 
36

>  <r_i_glide_eff_state_penalty>  (4) 
0

>  <ligand_id>  (4) 
1

>  <original_smiles>  (4) 
CC1CC2(O)C(O)CC(C)C3C45C=CC6(C)CC(O)(CC(O)C64)C3(C)C3(CO3)C(C)OC1C25

>  <smiles>  (4) 
[H]OC1([H])C([H])([H])C2(O[H])C([H])([H])C3(C([H])([H])[H])C([H])=C([H])C4(C5([H])C6([H])OC([H])(C([H])([H])[H])C7(OC7([H])[H])C2(C([H])([H])[H])C4([H])C([H])(C([H])([H])[H])C([H])([H])C([H])(O[H])C5(O[H])C([H])([H])C6([H])C([H])([H])[H])C13[H]

$$$$
1:0:1
     RDKit          3D

 73 79  0  0  1  0  0  0  0  0999 V2000
    2.0584   -1.2827    3.6156 C   0  0  0  0  0  0  0  0  0  0  0  0
    1.1055   -2.3947    4.0968 C   0  0  2  0  0  0  0  0  0  0  0  0
    0.9499   -2.4728    5.6338 C   0  0  0  0  0  0  0  0  0  0  0  0
    1.4165   -3.8932    5.9924 C   0  0  1  0  0  0  0  0  0  0  0  0
    2.8170   -3.6954    6.1313 O   0  0  0  0  0  0  0  0  0  0  0  0
    1.0635   -4.4425    7.3709 C   0  0  1  0  0  0  0  0  0  0  0  0
   -0.3339   -4.4378    7.6062 O   0  0  0  0  0  0  0  0  0  0  0  0
    1.7023   -5.8337    7.6625 C   0  0  0  0  0  0  0  0  0  0  0  0
    2.7538   -6.5302    6.6957 C   0  0  1  0  0  0  0  0  0  0  0  0
    3.1948   -7.7567    7.5726 C   0  0  0  0  0  0  0  0  0  0  0  0
    2.2873   -6.9132    5.1940 C   0  0  1  0  0  0  0  0  0  0  0  0
    0.9420   -6.2718    4.6659 C   0  0  2  0  0  0  0  0  0  0  0  0
   -0.1325   -6.9679    5.5022 C   0  0  0  0  0  0  0  0  0  0  0  0
   -0.5303   -8.1316    4.9810 C   0  0  0  0  0  0  0  0  0  0  0  0
    0.0106   -8.3263    3.5972 C   0  0  2  0  0  0  0  0  0  0  0  0
   -1.0982   -8.9156    2.7068 C   0  0  0  0  0  0  0  0  0  0  0  0
    1.3281   -9.1777    3.5274 C   0  0  0  0  0  0  0  0  0  0  0  0
    2.5788   -8.3723    2.9928 C   0  0  1  0  0  0  0  0  0  0  0  0
    3.4875   -9.3523    2.5082 O   0  0  0  0  0  0  0  0  0  0  0  0
    2.1270   -7.7133    1.6823 C   0  0  0  0  0  0  0  0  0  0  0  0
    1.0372   -6.6812    1.9415 C   0  0  1  0  0  0  0  0  0  0  0  0
    0.1018   -6.6606    0.8808 O   0  0  0  0  0  0  0  0  0  0  0  0
    0.3447   -6.8486    3.3022 C   0  0  2  0  0  0  0  0  0  0  0  0
    3.3083   -7.3830    4.0459 C   0  0  2  0  0  0  0  0  0  0  0  0
    4.3290   -8.3049    4.8053 C   0  0  0  0  0  0  0  0  0  0  0  0
    4.1783   -6.2341    3.3157 C   0  0  2  0  0  0  0  0  0  0  0  0
    5.4295   -6.6677    2.5635 C   0  0  0  0  0  0  0  0  0  0  0  0
    5.5053   -6.0874    3.8659 O   0  0  0  0  0  0  0  0  0  0  0  0
    3.6157   -4.8693    2.8001 C   0  0  1  0  0  0  0  0  0  0  0  0
    3.5738   -4.5725    1.2737 C   0  0  0  0  0  0  0  0  0  0  0  0
    2.8959   -3.9359    3.5914 O   0  0  0  0  0  0  0  0  0  0  0  0
    1.4727   -3.8261    3.6177 C   0  0  1  0  0  0  0  0  0  0  0  0
    0.8980   -4.6965    4.7509 C   0  0  2  0  0  0  0  0  0  0  0  0
    3.0573   -1.4063    4.0353 H   0  0  0  0  0  0  0  0  0  0  0  0
    1.6948   -0.3003    3.9188 H   0  0  0  0  0  0  0  0  0  0  0  0
    2.1494   -1.2802    2.5284 H   0  0  0  0  0  0  0  0  0  0  0  0
    0.1189   -2.1584    3.6940 H   0  0  0  0  0  0  0  0  0  0  0  0
    1.5015   -1.6918    6.1630 H   0  0  0  0  0  0  0  0  0  0  0  0
   -0.1034   -2.3500    5.8873 H   0  0  0  0  0  0  0  0  0  0  0  0
    3.2257   -4.5393    6.2056 H   0  0  0  0  0  0  0  0  0  0  0  0
    1.4574   -3.7366    8.1058 H   0  0  0  0  0  0  0  0  0  0  0  0
   -0.7365   -5.0639    7.0324 H   0  0  0  0  0  0  0  0  0  0  0  0
    2.2136   -5.6670    8.6110 H   0  0  0  0  0  0  0  0  0  0  0  0
    0.9350   -6.5556    7.9431 H   0  0  0  0  0  0  0  0  0  0  0  0
    3.6483   -5.9184    6.6234 H   0  0  0  0  0  0  0  0  0  0  0  0
    2.4769   -8.5795    7.5284 H   0  0  0  0  0  0  0  0  0  0  0  0
    3.2904   -7.4970    8.6274 H   0  0  0  0  0  0  0  0  0  0  0  0
    4.1740   -8.1602    7.3465 H   0  0  0  0  0  0  0  0  0  0  0  0
    1.9729   -7.8972    5.5087 H   0  0  0  0  0  0  0  0  0  0  0  0
   -0.5123   -6.5993    6.4346 H   0  0  0  0  0  0  0  0  0  0  0  0
   -1.2612   -8.7992    5.4142 H   0  0  0  0  0  0  0  0  0  0  0  0
   -0.7638   -9.0522    1.6830 H   0  0  0  0  0  0  0  0  0  0  0  0
   -1.9896   -8.2884    2.6924 H   0  0  0  0  0  0  0  0  0  0  0  0
   -1.3977   -9.8969    3.0732 H   0  0  0  0  0  0  0  0  0  0  0  0
    1.5419   -9.6819    4.4724 H   0  0  0  0  0  0  0  0  0  0  0  0
    1.1381  -10.0133    2.8474 H   0  0  0  0  0  0  0  0  0  0  0  0
    3.0224   -9.9695    1.9667 H   0  0  0  0  0  0  0  0  0  0  0  0
    2.9609   -7.2701    1.1436 H   0  0  0  0  0  0  0  0  0  0  0  0
    1.7379   -8.4831    1.0120 H   0  0  0  0  0  0  0  0  0  0  0  0
    1.4669   -5.7183    1.9004 H   0  0  0  0  0  0  0  0  0  0  0  0
   -0.1821   -7.5540    0.7288 H   0  0  0  0  0  0  0  0  0  0  0  0
   -0.6056   -6.3226    3.1822 H   0  0  0  0  0  0  0  0  0  0  0  0
    5.0710   -8.8023    4.1810 H   0  0  0  0  0  0  0  0  0  0  0  0
    3.8339   -9.1187    5.3379 H   0  0  0  0  0  0  0  0  0  0  0  0
    4.9386   -7.7304    5.5023 H   0  0  0  0  0  0  0  0  0  0  0  0
    5.6867   -7.7137    2.5033 H   0  0  0  0  0  0  0  0  0  0  0  0
    5.8459   -6.0435    1.7742 H   0  0  0  0  0  0  0  0  0  0  0  0
    4.5268   -4.2935    2.9840 H   0  0  0  0  0  0  0  0  0  0  0  0
    3.9652   -5.3826    0.6647 H   0  0  0  0  0  0  0  0  0  0  0  0
    4.1773   -3.6956    1.0471 H   0  0  0  0  0  0  0  0  0  0  0  0
    2.5836   -4.3247    0.8998 H   0  0  0  0  0  0  0  0  0  0  0  0
    1.0141   -3.9422    2.6466 H   0  0  0  0  0  0  0  0  0  0  0  0
   -0.1770   -4.5071    4.7166 H   0  0  0  0  0  0  0  0  0  0  0  0
  1  2  1  0
  1 34  1  0
  1 35  1  0
  1 36  1  0
  2 32  1  0
  2  3  1  0
  2 37  1  6
  3  4  1  0
  3 38  1  0
  3 39  1  0
  4 33  1  0
  4  5  1  6
  4  6  1  0
  5 40  1  0
  6  7  1  0
  6  8  1  0
  6 41  1  1
  7 42  1  0
  8  9  1  0
  8 43  1  0
  8 44  1  0
  9 10  1  0
  9 11  1  0
  9 45  1  6
 10 46  1  0
 10 47  1  0
 10 48  1  0
 11 24  1  0
 11 12  1  0
 11 49  1  1
 12 23  1  0
 12 33  1  0
 12 13  1  1
 13 14  2  0
 13 50  1  0
 14 15  1  0
 14 51  1  0
 15 23  1  0
 15 16  1  6
 15 17  1  0
 16 52  1  0
 16 53  1  0
 16 54  1  0
 17 18  1  0
 17 55  1  0
 17 56  1  0
 18 19  1  6
 18 20  1  0
 18 24  1  0
 19 57  1  0
 20 21  1  0
 20 58  1  0
 20 59  1  0
 21 22  1  0
 21 23  1  0
 21 60  1  1
 22 61  1  0
 23 62  1  6
 24 25  1  1
 24 26  1  0
 25 63  1  0
 25 64  1  0
 25 65  1  0
 26 28  1  1
 26 27  1  0
 26 29  1  0
 27 28  1  0
 27 66  1  0
 27 67  1  0
 29 30  1  0
 29 31  1  0
 29 68  1  1
 30 69  1  0
 30 70  1  0
 30 71  1  0
 31 32  1  0
 32 33  1  0
 32 72  1  6
 33 73  1  6
M  END
>  <i_m_ct_stereo_status>  (5) 
1

>  <s_m_source_file>  (5) 
/var/tmp/pbs.5076255.sched01/tmp9s019jnz/08u7fdliu.sdf

>  <i_m_source_file_index>  (5) 
2

>  <i_lp_mmshare_version>  (5) 
48012

>  <i_f3d_flags>  (5) 
0

>  <s_epik_input>  (5) 
W0NIM11bQ0BASF0xW0NIMl1bQ0BIXShbT0hdKVtDQF0oW09IXSkoW0NIMl1bQ0BIXTJbQ0gzXSlbQ0BIXTNbQ0BASF0yT1tDQEhdKFtDSDNdKVtDQF00KFtDSDJdTzQpW0NAXShbQ0BASF0xW0NAXTM1NikoW0NIM10pW0NAQF03KFtPSF0pW0NIMl1bQ0BAXShbQ0gzXSkoW0NIXT1bQ0hdNSlbQ0BASF02W0NAQEhdKFtDSDJdNylbT0hd

>  <s_epik_cmdline>  (5) 
J2VwaWtfcHl0aG9uJywgJy1waHQnLCAnMi4wJywgJy1waCcsICc3LjAnLCAnLXRuJywgJzgnLCAnLW1hJywgJzIwMCcsICctaW1hZScsICc8aW5maWxlLm1hZT4nLCAnLW9tYWUnLCAnPG91dGZpbGUubWFlPic=

>  <r_lp_tautomer_probability>  (5) 
1

>  <r_epik_Ionization_Penalty>  (5) 
1.98884e-06

>  <r_epik_Ionization_Penalty_Charging>  (5) 
0

>  <r_epik_Ionization_Penalty_Neutral>  (5) 
1.98884e-06

>  <r_epik_State_Penalty>  (5) 
-0

>  <r_epik_Charging_Adjusted_Penalty>  (5) 
0

>  <i_epik_Tot_Q>  (5) 
0

>  <i_epik_Tot_abs_Q>  (5) 
0

>  <s_lp_Force_Field>  (5) 
OPLS3e

>  <r_lp_Energy>  (5) 
152.273

>  <b_lp_Chiralities_Consistent>  (5) 
1

>  <s_lp_Variant>  (5) 
1:0-1

>  <s_i_glide_gridfile>  (5) 
pfpi4k_grid

>  <i_i_glide_lignum>  (5) 
2

>  <i_i_glide_rotatable_bonds>  (5) 
4

>  <r_i_docking_score>  (5) 
-2.78634

>  <r_i_glide_ligand_efficiency>  (5) 
-0.0844346

>  <r_i_glide_ligand_efficiency_sa>  (5) 
-0.270827

>  <r_i_glide_ligand_efficiency_ln>  (5) 
-0.619668

>  <r_i_glide_gscore>  (5) 
-2.78634

>  <r_i_glide_lipo>  (5) 
-0.0404147

>  <r_i_glide_hbond>  (5) 
-0.16

>  <r_i_glide_metal>  (5) 
-0

>  <r_i_glide_rewards>  (5) 
-0.268617

>  <r_i_glide_evdw>  (5) 
-26.7592

>  <r_i_glide_ecoul>  (5) 
-6.529

>  <r_i_glide_erotb>  (5) 
0

>  <r_i_glide_esite>  (5) 
0

>  <r_i_glide_emodel>  (5) 
-39.1316

>  <r_i_glide_energy>  (5) 
-33.2882

>  <r_i_glide_einternal>  (5) 
0.261811

>  <r_i_glide_intrahb_reward>  (5) 
-0

>  <i_i_glide_confnum>  (5) 
2

>  <i_i_glide_posenum>  (5) 
20

>  <r_i_glide_eff_state_penalty>  (5) 
0

>  <ligand_id>  (5) 
1

>  <original_smiles>  (5) 
CC1CC2(O)C(O)CC(C)C3C45C=CC6(C)CC(O)(CC(O)C64)C3(C)C3(CO3)C(C)OC1C25

>  <smiles>  (5) 
[H]OC1([H])C([H])([H])C2(O[H])C([H])([H])C3(C([H])([H])[H])C([H])=C([H])C4(C5([H])C6([H])OC([H])(C([H])([H])[H])C7(OC7([H])[H])C2(C([H])([H])[H])C4([H])C([H])(C([H])([H])[H])C([H])([H])C([H])(O[H])C5(O[H])C([H])([H])C6([H])C([H])([H])[H])C13[H]

$$$$
1:0:2
     RDKit          3D

 73 79  0  0  1  0  0  0  0  0999 V2000
    2.0893   -1.3054    3.6346 C   0  0  0  0  0  0  0  0  0  0  0  0
    1.1314   -2.4116    4.1152 C   0  0  2  0  0  0  0  0  0  0  0  0
    0.9853   -2.4968    5.6542 C   0  0  0  0  0  0  0  0  0  0  0  0
    1.4440   -3.9223    6.0030 C   0  0  1  0  0  0  0  0  0  0  0  0
    2.8453   -3.7350    6.1341 O   0  0  0  0  0  0  0  0  0  0  0  0
    1.0937   -4.4766    7.3797 C   0  0  1  0  0  0  0  0  0  0  0  0
   -0.3010   -4.4652    7.6226 O   0  0  0  0  0  0  0  0  0  0  0  0
    1.7247   -5.8742    7.6629 C   0  0  0  0  0  0  0  0  0  0  0  0
    2.7647   -6.5734    6.6878 C   0  0  1  0  0  0  0  0  0  0  0  0
    3.2000   -7.8084    7.5533 C   0  0  0  0  0  0  0  0  0  0  0  0
    2.2878   -6.9452    5.1869 C   0  0  1  0  0  0  0  0  0  0  0  0
    0.9431   -6.2901    4.6678 C   0  0  2  0  0  0  0  0  0  0  0  0
   -0.1324   -6.9829    5.5065 C   0  0  0  0  0  0  0  0  0  0  0  0
   -0.5435   -8.1393    4.9813 C   0  0  0  0  0  0  0  0  0  0  0  0
   -0.0132   -8.3319    3.5935 C   0  0  2  0  0  0  0  0  0  0  0  0
   -1.1308   -8.9073    2.7045 C   0  0  0  0  0  0  0  0  0  0  0  0
    1.2983   -9.1922    3.5156 C   0  0  0  0  0  0  0  0  0  0  0  0
    2.5503   -8.3916    2.9806 C   0  0  1  0  0  0  0  0  0  0  0  0
    3.4279   -9.3771    2.4638 O   0  0  0  0  0  0  0  0  0  0  0  0
    2.1000   -7.7195    1.6821 C   0  0  0  0  0  0  0  0  0  0  0  0
    1.0191   -6.6850    1.9449 C   0  0  1  0  0  0  0  0  0  0  0  0
    0.0835   -6.6591    0.8796 O   0  0  0  0  0  0  0  0  0  0  0  0
    0.3302   -6.8536    3.3062 C   0  0  2  0  0  0  0  0  0  0  0  0
    3.2992   -7.4168    4.0332 C   0  0  2  0  0  0  0  0  0  0  0  0
    4.3184   -8.3525    4.7765 C   0  0  0  0  0  0  0  0  0  0  0  0
    4.1698   -6.2729    3.3018 C   0  0  2  0  0  0  0  0  0  0  0  0
    5.4116   -6.7086    2.5347 C   0  0  0  0  0  0  0  0  0  0  0  0
    5.5042   -6.1370    3.8387 O   0  0  0  0  0  0  0  0  0  0  0  0
    3.6153   -4.8989    2.7947 C   0  0  1  0  0  0  0  0  0  0  0  0
    3.5656   -4.5941    1.2679 C   0  0  0  0  0  0  0  0  0  0  0  0
    2.9052   -3.9655    3.5922 O   0  0  0  0  0  0  0  0  0  0  0  0
    1.4844   -3.8441    3.6280 C   0  0  1  0  0  0  0  0  0  0  0  0
    0.9103   -4.7157    4.7610 C   0  0  2  0  0  0  0  0  0  0  0  0
    3.0909   -1.4391    4.0460 H   0  0  0  0  0  0  0  0  0  0  0  0
    1.7363   -0.3207    3.9456 H   0  0  0  0  0  0  0  0  0  0  0  0
    2.1713   -1.2973    2.5470 H   0  0  0  0  0  0  0  0  0  0  0  0
    0.1449   -2.1651    3.7199 H   0  0  0  0  0  0  0  0  0  0  0  0
    1.5450   -1.7229    6.1823 H   0  0  0  0  0  0  0  0  0  0  0  0
   -0.0660   -2.3684    5.9152 H   0  0  0  0  0  0  0  0  0  0  0  0
    3.2494   -4.5862    6.1927 H   0  0  0  0  0  0  0  0  0  0  0  0
    1.4973   -3.7773    8.1168 H   0  0  0  0  0  0  0  0  0  0  0  0
   -0.7117   -5.0851    7.0436 H   0  0  0  0  0  0  0  0  0  0  0  0
    2.2448   -5.7154    8.6086 H   0  0  0  0  0  0  0  0  0  0  0  0
    0.9536   -6.5904    7.9446 H   0  0  0  0  0  0  0  0  0  0  0  0
    3.6641   -5.9682    6.6115 H   0  0  0  0  0  0  0  0  0  0  0  0
    2.4763   -8.6252    7.5090 H   0  0  0  0  0  0  0  0  0  0  0  0
    3.3051   -7.5557    8.6089 H   0  0  0  0  0  0  0  0  0  0  0  0
    4.1756   -8.2197    7.3188 H   0  0  0  0  0  0  0  0  0  0  0  0
    1.9655   -7.9283    5.4980 H   0  0  0  0  0  0  0  0  0  0  0  0
   -0.5023   -6.6197    6.4430 H   0  0  0  0  0  0  0  0  0  0  0  0
   -1.2768   -8.8068    5.4153 H   0  0  0  0  0  0  0  0  0  0  0  0
   -0.8003   -9.0415    1.6768 H   0  0  0  0  0  0  0  0  0  0  0  0
   -2.0160   -8.2711    2.6975 H   0  0  0  0  0  0  0  0  0  0  0  0
   -1.4376   -9.8878    3.0682 H   0  0  0  0  0  0  0  0  0  0  0  0
    1.5050   -9.7066    4.4556 H   0  0  0  0  0  0  0  0  0  0  0  0
    1.1019  -10.0172    2.8250 H   0  0  0  0  0  0  0  0  0  0  0  0
    3.5511  -10.0383    3.1264 H   0  0  0  0  0  0  0  0  0  0  0  0
    2.9358   -7.2860    1.1396 H   0  0  0  0  0  0  0  0  0  0  0  0
    1.7055   -8.4902    1.0165 H   0  0  0  0  0  0  0  0  0  0  0  0
    1.4555   -5.7250    1.9035 H   0  0  0  0  0  0  0  0  0  0  0  0
   -0.2009   -7.5446    0.7203 H   0  0  0  0  0  0  0  0  0  0  0  0
   -0.6161   -6.3202    3.1907 H   0  0  0  0  0  0  0  0  0  0  0  0
    5.0524   -8.8470    4.1435 H   0  0  0  0  0  0  0  0  0  0  0  0
    3.8198   -9.1643    5.3115 H   0  0  0  0  0  0  0  0  0  0  0  0
    4.9342   -7.7837    5.4748 H   0  0  0  0  0  0  0  0  0  0  0  0
    5.6602   -7.7581    2.4649 H   0  0  0  0  0  0  0  0  0  0  0  0
    5.8269   -6.0849    1.7447 H   0  0  0  0  0  0  0  0  0  0  0  0
    4.5308   -4.3318    2.9753 H   0  0  0  0  0  0  0  0  0  0  0  0
    3.9475   -5.4024    0.6518 H   0  0  0  0  0  0  0  0  0  0  0  0
    4.1731   -3.7166    1.0423 H   0  0  0  0  0  0  0  0  0  0  0  0
    2.5740   -4.3361    0.9029 H   0  0  0  0  0  0  0  0  0  0  0  0
    1.0159   -3.9519    2.6602 H   0  0  0  0  0  0  0  0  0  0  0  0
   -0.1633   -4.5183    4.7353 H   0  0  0  0  0  0  0  0  0  0  0  0
  1  2  1  0
  1 34  1  0
  1 35  1  0
  1 36  1  0
  2 32  1  0
  2  3  1  0
  2 37  1  6
  3  4  1  0
  3 38  1  0
  3 39  1  0
  4 33  1  0
  4  5  1  6
  4  6  1  0
  5 40  1  0
  6  7  1  0
  6  8  1  0
  6 41  1  1
  7 42  1  0
  8  9  1  0
  8 43  1  0
  8 44  1  0
  9 10  1  0
  9 11  1  0
  9 45  1  6
 10 46  1  0
 10 47  1  0
 10 48  1  0
 11 24  1  0
 11 12  1  0
 11 49  1  1
 12 23  1  0
 12 33  1  0
 12 13  1  1
 13 14  2  0
 13 50  1  0
 14 15  1  0
 14 51  1  0
 15 23  1  0
 15 16  1  6
 15 17  1  0
 16 52  1  0
 16 53  1  0
 16 54  1  0
 17 18  1  0
 17 55  1  0
 17 56  1  0
 18 19  1  6
 18 20  1  0
 18 24  1  0
 19 57  1  0
 20 21  1  0
 20 58  1  0
 20 59  1  0
 21 22  1  0
 21 23  1  0
 21 60  1  1
 22 61  1  0
 23 62  1  6
 24 25  1  1
 24 26  1  0
 25 63  1  0
 25 64  1  0
 25 65  1  0
 26 28  1  1
 26 27  1  0
 26 29  1  0
 27 28  1  0
 27 66  1  0
 27 67  1  0
 29 30  1  0
 29 31  1  0
 29 68  1  1
 30 69  1  0
 30 70  1  0
 30 71  1  0
 31 32  1  0
 32 33  1  0
 32 72  1  6
 33 73  1  1
M  END
>  <i_m_ct_stereo_status>  (6) 
1

>  <s_m_source_file>  (6) 
/var/tmp/pbs.5076255.sched01/tmp9s019jnz/08u7fdliu.sdf

>  <i_m_source_file_index>  (6) 
2

>  <i_lp_mmshare_version>  (6) 
48012

>  <i_f3d_flags>  (6) 
0

>  <s_epik_input>  (6) 
W0NIM11bQ0BASF0xW0NIMl1bQ0BIXShbT0hdKVtDQF0oW09IXSkoW0NIMl1bQ0BIXTJbQ0gzXSlbQ0BIXTNbQ0BASF0yT1tDQEhdKFtDSDNdKVtDQF00KFtDSDJdTzQpW0NAXShbQ0BASF0xW0NAXTM1NikoW0NIM10pW0NAQF03KFtPSF0pW0NIMl1bQ0BAXShbQ0gzXSkoW0NIXT1bQ0hdNSlbQ0BASF02W0NAQEhdKFtDSDJdNylbT0hd

>  <s_epik_cmdline>  (6) 
J2VwaWtfcHl0aG9uJywgJy1waHQnLCAnMi4wJywgJy1waCcsICc3LjAnLCAnLXRuJywgJzgnLCAnLW1hJywgJzIwMCcsICctaW1hZScsICc8aW5maWxlLm1hZT4nLCAnLW9tYWUnLCAnPG91dGZpbGUubWFlPic=

>  <r_lp_tautomer_probability>  (6) 
1

>  <r_epik_Ionization_Penalty>  (6) 
1.98884e-06

>  <r_epik_Ionization_Penalty_Charging>  (6) 
0

>  <r_epik_Ionization_Penalty_Neutral>  (6) 
1.98884e-06

>  <r_epik_State_Penalty>  (6) 
-0

>  <r_epik_Charging_Adjusted_Penalty>  (6) 
0

>  <i_epik_Tot_Q>  (6) 
0

>  <i_epik_Tot_abs_Q>  (6) 
0

>  <s_lp_Force_Field>  (6) 
OPLS3e

>  <r_lp_Energy>  (6) 
152.273

>  <b_lp_Chiralities_Consistent>  (6) 
1

>  <s_lp_Variant>  (6) 
1:0-1

>  <s_i_glide_gridfile>  (6) 
pfpi4k_grid

>  <i_i_glide_lignum>  (6) 
2

>  <i_i_glide_rotatable_bonds>  (6) 
4

>  <r_i_docking_score>  (6) 
-2.73119

>  <r_i_glide_ligand_efficiency>  (6) 
-0.0827634

>  <r_i_glide_ligand_efficiency_sa>  (6) 
-0.265466

>  <r_i_glide_ligand_efficiency_ln>  (6) 
-0.607403

>  <r_i_glide_gscore>  (6) 
-2.73119

>  <r_i_glide_lipo>  (6) 
-0.0374549

>  <r_i_glide_hbond>  (6) 
-0.16

>  <r_i_glide_metal>  (6) 
-0

>  <r_i_glide_rewards>  (6) 
-0.268617

>  <r_i_glide_evdw>  (6) 
-26.8031

>  <r_i_glide_ecoul>  (6) 
-6.16645

>  <r_i_glide_erotb>  (6) 
0

>  <r_i_glide_esite>  (6) 
0

>  <r_i_glide_emodel>  (6) 
-38.6004

>  <r_i_glide_energy>  (6) 
-32.9695

>  <r_i_glide_einternal>  (6) 
0.409236

>  <r_i_glide_intrahb_reward>  (6) 
-0

>  <i_i_glide_confnum>  (6) 
1

>  <i_i_glide_posenum>  (6) 
31

>  <r_i_glide_eff_state_penalty>  (6) 
0

>  <ligand_id>  (6) 
1

>  <original_smiles>  (6) 
CC1CC2(O)C(O)CC(C)C3C45C=CC6(C)CC(O)(CC(O)C64)C3(C)C3(CO3)C(C)OC1C25

>  <smiles>  (6) 
[H]OC1([H])C([H])([H])C2(O[H])C([H])([H])C3(C([H])([H])[H])C([H])=C([H])C4(C5([H])C6([H])OC([H])(C([H])([H])[H])C7(OC7([H])[H])C2(C([H])([H])[H])C4([H])C([H])(C([H])([H])[H])C([H])([H])C([H])(O[H])C5(O[H])C([H])([H])C6([H])C([H])([H])[H])C13[H]

$$$$
2:0:0
     RDKit          3D

 68 73  0  0  1  0  0  0  0  0999 V2000
    0.4241   -8.7120    6.1441 C   0  0  0  0  0  0  0  0  0  0  0  0
    0.9498   -7.3038    5.8254 C   0  0  2  0  0  0  0  0  0  0  0  0
   -0.1462   -6.2407    5.8524 C   0  0  0  0  0  0  0  0  0  0  0  0
    0.4640   -4.9812    5.6268 O   0  0  0  0  0  0  0  0  0  0  0  0
    1.1336   -4.8231    4.4088 C   0  0  1  0  0  0  0  0  0  0  0  0
    1.8905   -3.6369    4.5390 O   0  0  0  0  0  0  0  0  0  0  0  0
    2.1346   -2.9175    3.3575 C   0  0  1  0  0  0  0  0  0  0  0  0
    1.8365   -1.5543    3.5129 O   0  0  0  0  0  0  0  0  0  0  0  0
    2.8571   -0.6142    3.8859 C   0  0  2  0  0  0  0  0  0  0  0  0
    2.1225    0.3764    4.8183 C   0  0  0  0  0  0  0  0  0  0  0  0
    3.3134    0.1199    2.5954 C   0  0  0  0  0  0  0  0  0  0  0  0
    3.2267   -0.6365    1.2520 C   0  0  0  0  0  0  0  0  0  0  0  0
    4.3010   -1.7091    0.9478 C   0  0  2  0  0  0  0  0  0  0  0  0
    4.4851   -1.6039   -0.4581 O   0  0  0  0  0  0  0  0  0  0  0  0
    4.0846   -2.7059   -1.2521 C   0  0  1  0  0  0  0  0  0  0  0  0
    3.7412   -2.1087   -2.6255 C   0  0  0  0  0  0  0  0  0  0  0  0
    5.2421   -3.7075   -1.3784 C   0  0  0  0  0  0  0  0  0  0  0  0
    5.9509   -3.9676   -0.0473 C   0  0  0  0  0  0  0  0  0  0  0  0
    5.0185   -4.2657    1.1422 C   0  0  2  0  0  0  0  0  0  0  0  0
    4.4870   -5.7351    1.1149 C   0  0  0  0  0  0  0  0  0  0  0  0
    4.5047   -6.3948    0.0795 O   0  0  0  0  0  0  0  0  0  0  0  0
    3.9905   -6.4171    2.4043 C   0  0  0  0  0  0  0  0  0  0  0  0
    2.4722   -6.2137    2.6608 C   0  0  0  0  0  0  0  0  0  0  0  0
    2.0890   -6.0526    4.1581 C   0  0  2  0  0  0  0  0  0  0  0  0
    1.4649   -7.2867    4.5095 O   0  0  0  0  0  0  0  0  0  0  0  0
    3.9302   -3.1526    1.4146 C   0  0  2  0  0  0  0  0  0  0  0  0
    2.7446   -3.4663    0.6905 O   0  0  0  0  0  0  0  0  0  0  0  0
    2.8988   -3.3774   -0.8249 O   0  0  0  0  0  0  0  0  0  0  0  0
    3.6243   -3.1586    2.9586 C   0  0  1  0  0  0  0  0  0  0  0  0
    4.6262   -2.4419    3.8899 C   0  0  0  0  0  0  0  0  0  0  0  0
    4.0073   -1.2943    4.6803 C   0  0  1  0  0  0  0  0  0  0  0  0
    5.1097   -0.3529    5.2126 C   0  0  0  0  0  0  0  0  0  0  0  0
    0.0349   -8.7692    7.1617 H   0  0  0  0  0  0  0  0  0  0  0  0
    1.2212   -9.4513    6.0597 H   0  0  0  0  0  0  0  0  0  0  0  0
   -0.3762   -9.0096    5.4648 H   0  0  0  0  0  0  0  0  0  0  0  0
    1.7321   -7.0485    6.5436 H   0  0  0  0  0  0  0  0  0  0  0  0
   -0.9246   -6.4413    5.1158 H   0  0  0  0  0  0  0  0  0  0  0  0
   -0.6151   -6.2187    6.8361 H   0  0  0  0  0  0  0  0  0  0  0  0
    0.3506   -4.7532    3.6498 H   0  0  0  0  0  0  0  0  0  0  0  0
    1.4361   -3.2421    2.5851 H   0  0  0  0  0  0  0  0  0  0  0  0
    2.7401    1.2403    5.0712 H   0  0  0  0  0  0  0  0  0  0  0  0
    1.8292   -0.1035    5.7526 H   0  0  0  0  0  0  0  0  0  0  0  0
    1.2160    0.7590    4.3509 H   0  0  0  0  0  0  0  0  0  0  0  0
    2.6611    0.9846    2.4710 H   0  0  0  0  0  0  0  0  0  0  0  0
    4.3060    0.5468    2.7153 H   0  0  0  0  0  0  0  0  0  0  0  0
    2.2266   -1.0345    1.0874 H   0  0  0  0  0  0  0  0  0  0  0  0
    3.3263    0.1352    0.4897 H   0  0  0  0  0  0  0  0  0  0  0  0
    5.2501   -1.3873    1.3744 H   0  0  0  0  0  0  0  0  0  0  0  0
    2.9260   -1.3878   -2.5313 H   0  0  0  0  0  0  0  0  0  0  0  0
    3.4233   -2.8828   -3.3256 H   0  0  0  0  0  0  0  0  0  0  0  0
    4.5920   -1.5839   -3.0677 H   0  0  0  0  0  0  0  0  0  0  0  0
    4.8704   -4.6337   -1.8173 H   0  0  0  0  0  0  0  0  0  0  0  0
    5.9858   -3.3308   -2.0829 H   0  0  0  0  0  0  0  0  0  0  0  0
    6.6515   -4.7913   -0.1793 H   0  0  0  0  0  0  0  0  0  0  0  0
    6.5772   -3.1099    0.1963 H   0  0  0  0  0  0  0  0  0  0  0  0
    5.6890   -4.2482    2.0036 H   0  0  0  0  0  0  0  0  0  0  0  0
    4.2111   -7.4848    2.3523 H   0  0  0  0  0  0  0  0  0  0  0  0
    4.5876   -6.0503    3.2421 H   0  0  0  0  0  0  0  0  0  0  0  0
    2.0903   -5.3783    2.0805 H   0  0  0  0  0  0  0  0  0  0  0  0
    1.9453   -7.0724    2.2424 H   0  0  0  0  0  0  0  0  0  0  0  0
    2.9656   -5.9200    4.7947 H   0  0  0  0  0  0  0  0  0  0  0  0
    3.7727   -4.1662    3.2835 H   0  0  0  0  0  0  0  0  0  0  0  0
    5.0025   -3.1657    4.6098 H   0  0  0  0  0  0  0  0  0  0  0  0
    5.5139   -2.1149    3.3564 H   0  0  0  0  0  0  0  0  0  0  0  0
    3.5499   -1.7433    5.5640 H   0  0  0  0  0  0  0  0  0  0  0  0
    5.6732    0.1123    4.4033 H   0  0  0  0  0  0  0  0  0  0  0  0
    5.8272   -0.9091    5.8179 H   0  0  0  0  0  0  0  0  0  0  0  0
    4.7128    0.4417    5.8432 H   0  0  0  0  0  0  0  0  0  0  0  0
  1  2  1  0
  1 33  1  0
  1 34  1  0
  1 35  1  0
  2 25  1  0
  2  3  1  0
  2 36  1  1
  3  4  1  0
  3 37  1  0
  3 38  1  0
  4  5  1  0
  5 24  1  0
  5  6  1  0
  5 39  1  6
  6  7  1  0
  7 29  1  0
  7  8  1  0
  7 40  1  6
  8  9  1  0
  9 31  1  0
  9 10  1  1
  9 11  1  0
 10 41  1  0
 10 42  1  0
 10 43  1  0
 11 12  1  0
 11 44  1  0
 11 45  1  0
 12 13  1  0
 12 46  1  0
 12 47  1  0
 13 26  1  0
 13 14  1  0
 13 48  1  1
 14 15  1  0
 15 28  1  0
 15 16  1  6
 15 17  1  0
 16 49  1  0
 16 50  1  0
 16 51  1  0
 17 18  1  0
 17 52  1  0
 17 53  1  0
 18 19  1  0
 18 54  1  0
 18 55  1  0
 19 20  1  0
 19 26  1  0
 19 56  1  1
 20 21  2  0
 20 22  1  0
 22 23  1  0
 22 57  1  0
 22 58  1  0
 23 24  1  0
 23 59  1  0
 23 60  1  0
 24 25  1  0
 24 61  1  1
 26 27  1  6
 26 29  1  0
 27 28  1  0
 29 30  1  0
 29 62  1  1
 30 31  1  0
 30 63  1  0
 30 64  1  0
 31 32  1  0
 31 65  1  1
 32 66  1  0
 32 67  1  0
 32 68  1  0
M  END
>  <i_m_ct_stereo_status>  (7) 
1

>  <s_m_source_file>  (7) 
/var/tmp/pbs.5076255.sched01/tmp9s019jnz/08u7fdliu.sdf

>  <i_m_source_file_index>  (7) 
3

>  <i_lp_mmshare_version>  (7) 
48012

>  <i_f3d_flags>  (7) 
0

>  <s_epik_input>  (7) 
TzFPW0NAXShPMikoW0NIM10pW0NIMl1bQ0gyXVtDQEBIXTNDKD1PKVtDSDJdW0NIMl1bQ0BIXShPW0NASF0oW0NIM10pW0NIMl1PNClbQ0BASF00T1tDQEhdKFtDQEBIXTVbQ0gyXVtDQEhdNltDSDNdKU9bQ0BdNihbQ0gzXSlbQ0gyXVtDSDJdW0NASF0yW0NAQF0xMzU=

>  <s_epik_cmdline>  (7) 
J2VwaWtfcHl0aG9uJywgJy1waHQnLCAnMi4wJywgJy1waCcsICc3LjAnLCAnLXRuJywgJzgnLCAnLW1hJywgJzIwMCcsICctaW1hZScsICc8aW5maWxlLm1hZT4nLCAnLW9tYWUnLCAnPG91dGZpbGUubWFlPic=

>  <r_lp_tautomer_probability>  (7) 
1

>  <r_epik_Ionization_Penalty>  (7) 
7.83824e-12

>  <r_epik_Ionization_Penalty_Charging>  (7) 
0

>  <r_epik_Ionization_Penalty_Neutral>  (7) 
7.83824e-12

>  <r_epik_State_Penalty>  (7) 
-0

>  <r_epik_Charging_Adjusted_Penalty>  (7) 
0

>  <i_epik_Tot_Q>  (7) 
0

>  <i_epik_Tot_abs_Q>  (7) 
0

>  <s_epik_Chemistry_Notes>  (7) 
This compound contains an acetal/aminal-like group ( X-CH(R)-Y where X, Y are N, S, or O) that may be acid/base labile, releasing an aldehyde.

>  <s_lp_Force_Field>  (7) 
OPLS3e

>  <r_lp_Energy>  (7) 
77.7873

>  <b_lp_Chiralities_Consistent>  (7) 
1

>  <s_lp_Variant>  (7) 
2:0-1

>  <s_i_glide_gridfile>  (7) 
pfpi4k_grid

>  <i_i_glide_lignum>  (7) 
3

>  <i_i_glide_rotatable_bonds>  (7) 
0

>  <r_i_docking_score>  (7) 
-2.12875

>  <r_i_glide_ligand_efficiency>  (7) 
-0.0665233

>  <r_i_glide_ligand_efficiency_sa>  (7) 
-0.211198

>  <r_i_glide_ligand_efficiency_ln>  (7) 
-0.476685

>  <r_i_glide_gscore>  (7) 
-2.12875

>  <r_i_glide_lipo>  (7) 
-0.234125

>  <r_i_glide_hbond>  (7) 
0

>  <r_i_glide_metal>  (7) 
-0

>  <r_i_glide_rewards>  (7) 
-0.410005

>  <r_i_glide_evdw>  (7) 
-30.5912

>  <r_i_glide_ecoul>  (7) 
0.430636

>  <r_i_glide_erotb>  (7) 
0

>  <r_i_glide_esite>  (7) 
-0.0196499

>  <r_i_glide_emodel>  (7) 
-33.3275

>  <r_i_glide_energy>  (7) 
-30.1606

>  <r_i_glide_einternal>  (7) 
0

>  <r_i_glide_intrahb_reward>  (7) 
-0

>  <i_i_glide_confnum>  (7) 
1

>  <i_i_glide_posenum>  (7) 
8

>  <r_i_glide_eff_state_penalty>  (7) 
0

>  <ligand_id>  (7) 
2

>  <original_smiles>  (7) 
CC1COC2OC3OC4(C)CCC5OC6(C)CCC(C(=O)CCC2O1)C5(OO6)C3CC4C

>  <smiles>  (7) 
[H]C([H])([H])C1([H])OC2([H])C([H])(OC1([H])[H])OC1([H])OC3(C([H])([H])[H])C([H])([H])C([H])([H])C4([H])OC5(C([H])([H])[H])OOC4(C([H])(C(=O)C([H])([H])C2([H])[H])C([H])([H])C5([H])[H])C1([H])C([H])([H])C3([H])C([H])([H])[H]

$$$$
2:0:1
     RDKit          3D

 68 73  0  0  1  0  0  0  0  0999 V2000
    0.6630  -10.9929    4.7831 C   0  0  0  0  0  0  0  0  0  0  0  0
    0.9469   -9.4892    4.8110 C   0  0  2  0  0  0  0  0  0  0  0  0
   -0.3163   -8.6435    4.9522 C   0  0  0  0  0  0  0  0  0  0  0  0
    0.0976   -7.2880    5.0413 O   0  0  0  0  0  0  0  0  0  0  0  0
    0.7804   -6.7689    3.9417 C   0  0  1  0  0  0  0  0  0  0  0  0
    1.3214   -5.5347    4.3778 O   0  0  0  0  0  0  0  0  0  0  0  0
    1.5220   -4.5589    3.3904 C   0  0  1  0  0  0  0  0  0  0  0  0
    1.0016   -3.3123    3.7654 O   0  0  0  0  0  0  0  0  0  0  0  0
    1.8222   -2.3354    4.4191 C   0  0  2  0  0  0  0  0  0  0  0  0
    0.8758   -1.6845    5.4559 C   0  0  0  0  0  0  0  0  0  0  0  0
    2.2128   -1.2792    3.3483 C   0  0  0  0  0  0  0  0  0  0  0  0
    2.3267   -1.7410    1.8764 C   0  0  0  0  0  0  0  0  0  0  0  0
    3.5788   -2.5447    1.4563 C   0  0  2  0  0  0  0  0  0  0  0  0
    3.8350   -2.1231    0.1352 O   0  0  0  0  0  0  0  0  0  0  0  0
    3.6568   -3.0826   -0.8880 C   0  0  1  0  0  0  0  0  0  0  0  0
    3.3234   -2.2941   -2.1618 C   0  0  0  0  0  0  0  0  0  0  0  0
    4.9589   -3.8565   -1.1150 C   0  0  0  0  0  0  0  0  0  0  0  0
    5.6313   -4.2814    0.1908 C   0  0  0  0  0  0  0  0  0  0  0  0
    4.7006   -4.9434    1.2233 C   0  0  2  0  0  0  0  0  0  0  0  0
    4.4096   -6.4311    0.8630 C   0  0  0  0  0  0  0  0  0  0  0  0
    4.5509   -6.8254   -0.2830 O   0  0  0  0  0  0  0  0  0  0  0  0
    3.9699   -7.4499    1.9293 C   0  0  0  0  0  0  0  0  0  0  0  0
    2.4278   -7.5451    2.0838 C   0  0  0  0  0  0  0  0  0  0  0  0
    1.9444   -7.7600    3.5433 C   0  0  2  0  0  0  0  0  0  0  0  0
    1.5274   -9.1232    3.5784 O   0  0  0  0  0  0  0  0  0  0  0  0
    3.4311   -4.0909    1.5977 C   0  0  2  0  0  0  0  0  0  0  0  0
    2.3619   -4.4684    0.7346 O   0  0  0  0  0  0  0  0  0  0  0  0
    2.5373   -3.9549   -0.7155 O   0  0  0  0  0  0  0  0  0  0  0  0
    3.0544   -4.4786    3.0753 C   0  0  1  0  0  0  0  0  0  0  0  0
    3.8661   -3.8229    4.2149 C   0  0  0  0  0  0  0  0  0  0  0  0
    3.0126   -2.9923    5.1633 C   0  0  1  0  0  0  0  0  0  0  0  0
    3.9119   -2.0233    5.9628 C   0  0  0  0  0  0  0  0  0  0  0  0
    0.2184  -11.3175    5.7234 H   0  0  0  0  0  0  0  0  0  0  0  0
    1.5727  -11.5733    4.6343 H   0  0  0  0  0  0  0  0  0  0  0  0
   -0.0392  -11.2488    3.9921 H   0  0  0  0  0  0  0  0  0  0  0  0
    1.6308   -9.2754    5.6364 H   0  0  0  0  0  0  0  0  0  0  0  0
   -1.0007   -8.7989    4.1196 H   0  0  0  0  0  0  0  0  0  0  0  0
   -0.8451   -8.9185    5.8657 H   0  0  0  0  0  0  0  0  0  0  0  0
    0.0481   -6.6724    3.1319 H   0  0  0  0  0  0  0  0  0  0  0  0
    0.9462   -4.8325    2.5021 H   0  0  0  0  0  0  0  0  0  0  0  0
    1.3258   -0.8110    5.9337 H   0  0  0  0  0  0  0  0  0  0  0  0
    0.6159   -2.3892    6.2479 H   0  0  0  0  0  0  0  0  0  0  0  0
   -0.0557   -1.3538    4.9974 H   0  0  0  0  0  0  0  0  0  0  0  0
    1.4275   -0.5223    3.3390 H   0  0  0  0  0  0  0  0  0  0  0  0
    3.1084   -0.7320    3.6355 H   0  0  0  0  0  0  0  0  0  0  0  0
    1.4197   -2.2450    1.5513 H   0  0  0  0  0  0  0  0  0  0  0  0
    2.3331   -0.8234    1.2879 H   0  0  0  0  0  0  0  0  0  0  0  0
    4.4353   -2.1892    2.0275 H   0  0  0  0  0  0  0  0  0  0  0  0
    2.3928   -1.7452   -2.0323 H   0  0  0  0  0  0  0  0  0  0  0  0
    3.1756   -2.9464   -3.0285 H   0  0  0  0  0  0  0  0  0  0  0  0
    4.0894   -1.5549   -2.4150 H   0  0  0  0  0  0  0  0  0  0  0  0
    4.7720   -4.7099   -1.7697 H   0  0  0  0  0  0  0  0  0  0  0  0
    5.6700   -3.2323   -1.6615 H   0  0  0  0  0  0  0  0  0  0  0  0
    6.4624   -4.9464   -0.0409 H   0  0  0  0  0  0  0  0  0  0  0  0
    6.0972   -3.4085    0.6474 H   0  0  0  0  0  0  0  0  0  0  0  0
    5.3142   -5.0137    2.1265 H   0  0  0  0  0  0  0  0  0  0  0  0
    4.3708   -8.4344    1.6774 H   0  0  0  0  0  0  0  0  0  0  0  0
    4.4518   -7.1950    2.8758 H   0  0  0  0  0  0  0  0  0  0  0  0
    1.9451   -6.6764    1.6439 H   0  0  0  0  0  0  0  0  0  0  0  0
    2.0771   -8.3665    1.4561 H   0  0  0  0  0  0  0  0  0  0  0  0
    2.7535   -7.6319    4.2669 H   0  0  0  0  0  0  0  0  0  0  0  0
    3.3426   -5.5012    3.2143 H   0  0  0  0  0  0  0  0  0  0  0  0
    4.3058   -4.6228    4.8058 H   0  0  0  0  0  0  0  0  0  0  0  0
    4.7204   -3.2670    3.8465 H   0  0  0  0  0  0  0  0  0  0  0  0
    2.5904   -3.6786    5.8976 H   0  0  0  0  0  0  0  0  0  0  0  0
    4.4358   -1.3167    5.3152 H   0  0  0  0  0  0  0  0  0  0  0  0
    4.6806   -2.5766    6.5069 H   0  0  0  0  0  0  0  0  0  0  0  0
    3.3578   -1.4465    6.7040 H   0  0  0  0  0  0  0  0  0  0  0  0
  1  2  1  0
  1 33  1  0
  1 34  1  0
  1 35  1  0
  2 25  1  0
  2  3  1  0
  2 36  1  1
  3  4  1  0
  3 37  1  0
  3 38  1  0
  4  5  1  0
  5 24  1  0
  5  6  1  0
  5 39  1  6
  6  7  1  0
  7 29  1  0
  7  8  1  0
  7 40  1  6
  8  9  1  0
  9 31  1  0
  9 10  1  1
  9 11  1  0
 10 41  1  0
 10 42  1  0
 10 43  1  0
 11 12  1  0
 11 44  1  0
 11 45  1  0
 12 13  1  0
 12 46  1  0
 12 47  1  0
 13 26  1  0
 13 14  1  0
 13 48  1  1
 14 15  1  0
 15 28  1  0
 15 16  1  6
 15 17  1  0
 16 49  1  0
 16 50  1  0
 16 51  1  0
 17 18  1  0
 17 52  1  0
 17 53  1  0
 18 19  1  0
 18 54  1  0
 18 55  1  0
 19 20  1  0
 19 26  1  0
 19 56  1  1
 20 21  2  0
 20 22  1  0
 22 23  1  0
 22 57  1  0
 22 58  1  0
 23 24  1  0
 23 59  1  0
 23 60  1  0
 24 25  1  0
 24 61  1  1
 26 27  1  6
 26 29  1  0
 27 28  1  0
 29 30  1  0
 29 62  1  6
 30 31  1  0
 30 63  1  0
 30 64  1  0
 31 32  1  0
 31 65  1  1
 32 66  1  0
 32 67  1  0
 32 68  1  0
M  END
>  <i_m_ct_stereo_status>  (8) 
1

>  <s_m_source_file>  (8) 
/var/tmp/pbs.5076255.sched01/tmp9s019jnz/08u7fdliu.sdf

>  <i_m_source_file_index>  (8) 
3

>  <i_lp_mmshare_version>  (8) 
48012

>  <i_f3d_flags>  (8) 
0

>  <s_epik_input>  (8) 
TzFPW0NAXShPMikoW0NIM10pW0NIMl1bQ0gyXVtDQEBIXTNDKD1PKVtDSDJdW0NIMl1bQ0BIXShPW0NASF0oW0NIM10pW0NIMl1PNClbQ0BASF00T1tDQEhdKFtDQEBIXTVbQ0gyXVtDQEhdNltDSDNdKU9bQ0BdNihbQ0gzXSlbQ0gyXVtDSDJdW0NASF0yW0NAQF0xMzU=

>  <s_epik_cmdline>  (8) 
J2VwaWtfcHl0aG9uJywgJy1waHQnLCAnMi4wJywgJy1waCcsICc3LjAnLCAnLXRuJywgJzgnLCAnLW1hJywgJzIwMCcsICctaW1hZScsICc8aW5maWxlLm1hZT4nLCAnLW9tYWUnLCAnPG91dGZpbGUubWFlPic=

>  <r_lp_tautomer_probability>  (8) 
1

>  <r_epik_Ionization_Penalty>  (8) 
7.83824e-12

>  <r_epik_Ionization_Penalty_Charging>  (8) 
0

>  <r_epik_Ionization_Penalty_Neutral>  (8) 
7.83824e-12

>  <r_epik_State_Penalty>  (8) 
-0

>  <r_epik_Charging_Adjusted_Penalty>  (8) 
0

>  <i_epik_Tot_Q>  (8) 
0

>  <i_epik_Tot_abs_Q>  (8) 
0

>  <s_epik_Chemistry_Notes>  (8) 
This compound contains an acetal/aminal-like group ( X-CH(R)-Y where X, Y are N, S, or O) that may be acid/base labile, releasing an aldehyde.

>  <s_lp_Force_Field>  (8) 
OPLS3e

>  <r_lp_Energy>  (8) 
77.7873

>  <b_lp_Chiralities_Consistent>  (8) 
1

>  <s_lp_Variant>  (8) 
2:0-1

>  <s_i_glide_gridfile>  (8) 
pfpi4k_grid

>  <i_i_glide_lignum>  (8) 
3

>  <i_i_glide_rotatable_bonds>  (8) 
0

>  <r_i_docking_score>  (8) 
-1.79097

>  <r_i_glide_ligand_efficiency>  (8) 
-0.0559677

>  <r_i_glide_ligand_efficiency_sa>  (8) 
-0.177686

>  <r_i_glide_ligand_efficiency_ln>  (8) 
-0.401046

>  <r_i_glide_gscore>  (8) 
-1.79097

>  <r_i_glide_lipo>  (8) 
-0.147574

>  <r_i_glide_hbond>  (8) 
-0.00111715

>  <r_i_glide_metal>  (8) 
-0

>  <r_i_glide_rewards>  (8) 
-0.478703

>  <r_i_glide_evdw>  (8) 
-27.2007

>  <r_i_glide_ecoul>  (8) 
1.53166

>  <r_i_glide_erotb>  (8) 
0

>  <r_i_glide_esite>  (8) 
-0.0332848

>  <r_i_glide_emodel>  (8) 
-28.3472

>  <r_i_glide_energy>  (8) 
-25.6691

>  <r_i_glide_einternal>  (8) 
0

>  <r_i_glide_intrahb_reward>  (8) 
-0

>  <i_i_glide_confnum>  (8) 
1

>  <i_i_glide_posenum>  (8) 
20

>  <r_i_glide_eff_state_penalty>  (8) 
0

>  <ligand_id>  (8) 
2

>  <original_smiles>  (8) 
CC1COC2OC3OC4(C)CCC5OC6(C)CCC(C(=O)CCC2O1)C5(OO6)C3CC4C

>  <smiles>  (8) 
[H]C([H])([H])C1([H])OC2([H])C([H])(OC1([H])[H])OC1([H])OC3(C([H])([H])[H])C([H])([H])C([H])([H])C4([H])OC5(C([H])([H])[H])OOC4(C([H])(C(=O)C([H])([H])C2([H])[H])C([H])([H])C5([H])[H])C1([H])C([H])([H])C3([H])C([H])([H])[H]

$$$$
2:0:2
     RDKit          3D

 68 73  0  0  1  0  0  0  0  0999 V2000
    1.0135  -10.8912    4.5530 C   0  0  0  0  0  0  0  0  0  0  0  0
    1.1354   -9.3642    4.6590 C   0  0  2  0  0  0  0  0  0  0  0  0
   -0.2132   -8.6549    4.5401 C   0  0  0  0  0  0  0  0  0  0  0  0
    0.0114   -7.2646    4.7233 O   0  0  0  0  0  0  0  0  0  0  0  0
    0.8700   -6.6457    3.8086 C   0  0  1  0  0  0  0  0  0  0  0  0
    1.1658   -5.3791    4.3643 O   0  0  0  0  0  0  0  0  0  0  0  0
    1.4520   -4.3449    3.4591 C   0  0  1  0  0  0  0  0  0  0  0  0
    0.7156   -3.1839    3.7469 O   0  0  0  0  0  0  0  0  0  0  0  0
    1.2744   -2.1419    4.5615 C   0  0  2  0  0  0  0  0  0  0  0  0
    0.0669   -1.6372    5.3861 C   0  0  0  0  0  0  0  0  0  0  0  0
    1.7693   -1.0144    3.6107 C   0  0  0  0  0  0  0  0  0  0  0  0
    2.2403   -1.4063    2.1909 C   0  0  0  0  0  0  0  0  0  0  0  0
    3.6349   -2.0649    2.0450 C   0  0  2  0  0  0  0  0  0  0  0  0
    4.1064   -1.5662    0.7989 O   0  0  0  0  0  0  0  0  0  0  0  0
    4.2644   -2.4962   -0.2556 C   0  0  1  0  0  0  0  0  0  0  0  0
    4.0878   -1.6774   -1.5459 C   0  0  0  0  0  0  0  0  0  0  0  0
    5.6717   -3.1152   -0.2054 C   0  0  0  0  0  0  0  0  0  0  0  0
    6.0948   -3.5150    1.2099 C   0  0  0  0  0  0  0  0  0  0  0  0
    5.0458   -4.3228    2.0029 C   0  0  2  0  0  0  0  0  0  0  0  0
    5.0112   -5.8206    1.5637 C   0  0  0  0  0  0  0  0  0  0  0  0
    5.4556   -6.1676    0.4732 O   0  0  0  0  0  0  0  0  0  0  0  0
    4.4689   -6.9104    2.5101 C   0  0  0  0  0  0  0  0  0  0  0  0
    2.9486   -7.1687    2.3309 C   0  0  0  0  0  0  0  0  0  0  0  0
    2.1910   -7.4910    3.6496 C   0  0  2  0  0  0  0  0  0  0  0  0
    1.9184   -8.8886    3.5813 O   0  0  0  0  0  0  0  0  0  0  0  0
    3.6328   -3.6230    2.1254 C   0  0  2  0  0  0  0  0  0  0  0  0
    2.8083   -4.0307    1.0385 O   0  0  0  0  0  0  0  0  0  0  0  0
    3.2733   -3.5211   -0.3231 O   0  0  0  0  0  0  0  0  0  0  0  0
    2.9917   -4.0968    3.4855 C   0  0  1  0  0  0  0  0  0  0  0  0
    3.4708   -3.4080    4.7796 C   0  0  0  0  0  0  0  0  0  0  0  0
    2.3579   -2.6904    5.5350 C   0  0  1  0  0  0  0  0  0  0  0  0
    2.9538   -1.6688    6.5277 C   0  0  0  0  0  0  0  0  0  0  0  0
    0.4316  -11.2945    5.3816 H   0  0  0  0  0  0  0  0  0  0  0  0
    1.9987  -11.3638    4.5880 H   0  0  0  0  0  0  0  0  0  0  0  0
    0.5286  -11.1951    3.6255 H   0  0  0  0  0  0  0  0  0  0  0  0
    1.6060   -9.1141    5.6118 H   0  0  0  0  0  0  0  0  0  0  0  0
   -0.6895   -8.8486    3.5787 H   0  0  0  0  0  0  0  0  0  0  0  0
   -0.8928   -9.0034    5.3174 H   0  0  0  0  0  0  0  0  0  0  0  0
    0.3134   -6.5912    2.8706 H   0  0  0  0  0  0  0  0  0  0  0  0
    1.0947   -4.6360    2.4757 H   0  0  0  0  0  0  0  0  0  0  0  0
    0.3063   -0.7397    5.9606 H   0  0  0  0  0  0  0  0  0  0  0  0
   -0.2750   -2.3982    6.0902 H   0  0  0  0  0  0  0  0  0  0  0  0
   -0.7757   -1.3891    4.7421 H   0  0  0  0  0  0  0  0  0  0  0  0
    0.9262   -0.3419    3.4481 H   0  0  0  0  0  0  0  0  0  0  0  0
    2.5188   -0.3872    4.0913 H   0  0  0  0  0  0  0  0  0  0  0  0
    1.4806   -1.9888    1.6714 H   0  0  0  0  0  0  0  0  0  0  0  0
    2.2659   -0.4701    1.6323 H   0  0  0  0  0  0  0  0  0  0  0  0
    4.3090   -1.6322    2.7822 H   0  0  0  0  0  0  0  0  0  0  0  0
    3.0904   -1.2340   -1.5773 H   0  0  0  0  0  0  0  0  0  0  0  0
    4.2040   -2.3019   -2.4309 H   0  0  0  0  0  0  0  0  0  0  0  0
    4.8090   -0.8585   -1.6132 H   0  0  0  0  0  0  0  0  0  0  0  0
    5.7190   -3.9609   -0.8888 H   0  0  0  0  0  0  0  0  0  0  0  0
    6.4054   -2.3976   -0.5767 H   0  0  0  0  0  0  0  0  0  0  0  0
    7.0284   -4.0726    1.1518 H   0  0  0  0  0  0  0  0  0  0  0  0
    6.3457   -2.6162    1.7722 H   0  0  0  0  0  0  0  0  0  0  0  0
    5.4566   -4.3553    3.0123 H   0  0  0  0  0  0  0  0  0  0  0  0
    5.0177   -7.8381    2.3419 H   0  0  0  0  0  0  0  0  0  0  0  0
    4.7086   -6.6267    3.5358 H   0  0  0  0  0  0  0  0  0  0  0  0
    2.4733   -6.3383    1.8131 H   0  0  0  0  0  0  0  0  0  0  0  0
    2.8279   -7.9982    1.6319 H   0  0  0  0  0  0  0  0  0  0  0  0
    2.8053   -7.3039    4.5331 H   0  0  0  0  0  0  0  0  0  0  0  0
    3.3640   -5.0818    3.6595 H   0  0  0  0  0  0  0  0  0  0  0  0
    3.8724   -4.1708    5.4428 H   0  0  0  0  0  0  0  0  0  0  0  0
    4.3116   -2.7441    4.6000 H   0  0  0  0  0  0  0  0  0  0  0  0
    1.8668   -3.4462    6.1488 H   0  0  0  0  0  0  0  0  0  0  0  0
    3.5168   -0.8893    6.0143 H   0  0  0  0  0  0  0  0  0  0  0  0
    3.6467   -2.1599    7.2121 H   0  0  0  0  0  0  0  0  0  0  0  0
    2.1926   -1.1852    7.1394 H   0  0  0  0  0  0  0  0  0  0  0  0
  1  2  1  0
  1 33  1  0
  1 34  1  0
  1 35  1  0
  2 25  1  0
  2  3  1  0
  2 36  1  1
  3  4  1  0
  3 37  1  0
  3 38  1  0
  4  5  1  0
  5 24  1  0
  5  6  1  0
  5 39  1  6
  6  7  1  0
  7 29  1  0
  7  8  1  0
  7 40  1  6
  8  9  1  0
  9 31  1  0
  9 10  1  1
  9 11  1  0
 10 41  1  0
 10 42  1  0
 10 43  1  0
 11 12  1  0
 11 44  1  0
 11 45  1  0
 12 13  1  0
 12 46  1  0
 12 47  1  0
 13 26  1  0
 13 14  1  0
 13 48  1  1
 14 15  1  0
 15 28  1  0
 15 16  1  6
 15 17  1  0
 16 49  1  0
 16 50  1  0
 16 51  1  0
 17 18  1  0
 17 52  1  0
 17 53  1  0
 18 19  1  0
 18 54  1  0
 18 55  1  0
 19 20  1  0
 19 26  1  0
 19 56  1  1
 20 21  2  0
 20 22  1  0
 22 23  1  0
 22 57  1  0
 22 58  1  0
 23 24  1  0
 23 59  1  0
 23 60  1  0
 24 25  1  0
 24 61  1  1
 26 27  1  6
 26 29  1  0
 27 28  1  0
 29 30  1  0
 29 62  1  1
 30 31  1  0
 30 63  1  0
 30 64  1  0
 31 32  1  0
 31 65  1  1
 32 66  1  0
 32 67  1  0
 32 68  1  0
M  END
>  <i_m_ct_stereo_status>  (9) 
1

>  <s_m_source_file>  (9) 
/var/tmp/pbs.5076255.sched01/tmp9s019jnz/08u7fdliu.sdf

>  <i_m_source_file_index>  (9) 
3

>  <i_lp_mmshare_version>  (9) 
48012

>  <i_f3d_flags>  (9) 
0

>  <s_epik_input>  (9) 
TzFPW0NAXShPMikoW0NIM10pW0NIMl1bQ0gyXVtDQEBIXTNDKD1PKVtDSDJdW0NIMl1bQ0BIXShPW0NASF0oW0NIM10pW0NIMl1PNClbQ0BASF00T1tDQEhdKFtDQEBIXTVbQ0gyXVtDQEhdNltDSDNdKU9bQ0BdNihbQ0gzXSlbQ0gyXVtDSDJdW0NASF0yW0NAQF0xMzU=

>  <s_epik_cmdline>  (9) 
J2VwaWtfcHl0aG9uJywgJy1waHQnLCAnMi4wJywgJy1waCcsICc3LjAnLCAnLXRuJywgJzgnLCAnLW1hJywgJzIwMCcsICctaW1hZScsICc8aW5maWxlLm1hZT4nLCAnLW9tYWUnLCAnPG91dGZpbGUubWFlPic=

>  <r_lp_tautomer_probability>  (9) 
1

>  <r_epik_Ionization_Penalty>  (9) 
7.83824e-12

>  <r_epik_Ionization_Penalty_Charging>  (9) 
0

>  <r_epik_Ionization_Penalty_Neutral>  (9) 
7.83824e-12

>  <r_epik_State_Penalty>  (9) 
-0

>  <r_epik_Charging_Adjusted_Penalty>  (9) 
0

>  <i_epik_Tot_Q>  (9) 
0

>  <i_epik_Tot_abs_Q>  (9) 
0

>  <s_epik_Chemistry_Notes>  (9) 
This compound contains an acetal/aminal-like group ( X-CH(R)-Y where X, Y are N, S, or O) that may be acid/base labile, releasing an aldehyde.

>  <s_lp_Force_Field>  (9) 
OPLS3e

>  <r_lp_Energy>  (9) 
77.7873

>  <b_lp_Chiralities_Consistent>  (9) 
1

>  <s_lp_Variant>  (9) 
2:0-1

>  <s_i_glide_gridfile>  (9) 
pfpi4k_grid

>  <i_i_glide_lignum>  (9) 
3

>  <i_i_glide_rotatable_bonds>  (9) 
0

>  <r_i_docking_score>  (9) 
-1.77302

>  <r_i_glide_ligand_efficiency>  (9) 
-0.055407

>  <r_i_glide_ligand_efficiency_sa>  (9) 
-0.175906

>  <r_i_glide_ligand_efficiency_ln>  (9) 
-0.397028

>  <r_i_glide_gscore>  (9) 
-1.77302

>  <r_i_glide_lipo>  (9) 
-0.164918

>  <r_i_glide_hbond>  (9) 
0

>  <r_i_glide_metal>  (9) 
-0

>  <r_i_glide_rewards>  (9) 
-0.391703

>  <r_i_glide_evdw>  (9) 
-29.0046

>  <r_i_glide_ecoul>  (9) 
1.84147

>  <r_i_glide_erotb>  (9) 
0

>  <r_i_glide_esite>  (9) 
-0.0423917

>  <r_i_glide_emodel>  (9) 
-29.8217

>  <r_i_glide_energy>  (9) 
-27.1631

>  <r_i_glide_einternal>  (9) 
0

>  <r_i_glide_intrahb_reward>  (9) 
-0

>  <i_i_glide_confnum>  (9) 
2

>  <i_i_glide_posenum>  (9) 
30

>  <r_i_glide_eff_state_penalty>  (9) 
0

>  <ligand_id>  (9) 
2

>  <original_smiles>  (9) 
CC1COC2OC3OC4(C)CCC5OC6(C)CCC(C(=O)CCC2O1)C5(OO6)C3CC4C

>  <smiles>  (9) 
[H]C([H])([H])C1([H])OC2([H])C([H])(OC1([H])[H])OC1([H])OC3(C([H])([H])[H])C([H])([H])C([H])([H])C4([H])OC5(C([H])([H])[H])OOC4(C([H])(C(=O)C([H])([H])C2([H])[H])C([H])([H])C5([H])[H])C1([H])C([H])([H])C3([H])C([H])([H])[H]

$$$$
4:0:0
     RDKit          3D

 56 62  0  0  1  0  0  0  0  0999 V2000
    7.4946   -6.6090    1.1780 C   0  0  0  0  0  0  0  0  0  0  0  0
    6.5551   -5.6846    1.9748 C   0  0  2  0  0  0  0  0  0  0  0  0
    6.4920   -5.9816    3.5032 C   0  0  0  0  0  0  0  0  0  0  0  0
    5.1082   -6.0077    3.9064 O   0  0  0  0  0  0  0  0  0  0  0  0
    4.3994   -5.3173    2.8949 C   0  0  1  0  0  0  0  0  0  0  0  0
    5.0844   -5.8667    1.6747 C   0  0  1  0  0  0  0  0  0  0  0  0
    4.2065   -5.2960    0.5495 C   0  0  2  0  0  0  0  0  0  0  0  0
    2.7727   -5.6512    1.0242 C   0  0  0  0  0  0  0  0  0  0  0  0
    2.8883   -5.4392    2.5846 C   0  0  1  0  0  0  0  0  0  0  0  0
    2.0888   -6.4749    3.3545 C   0  0  0  0  0  0  0  0  0  0  0  0
    2.7885   -3.9923    3.1225 C   0  0  0  0  0  0  0  0  0  0  0  0
    4.3123   -3.7695    3.1974 C   0  0  1  0  0  0  0  0  0  0  0  0
    4.7331   -3.3200    4.4819 O   0  0  0  0  0  0  0  0  0  0  0  0
    5.0533   -3.2067    2.0991 O   0  0  0  0  0  0  0  0  0  0  0  0
    4.8234   -2.0724    1.3223 C   0  0  2  0  0  0  0  0  0  0  0  0
    5.0197   -0.8794    2.0694 O   0  0  0  0  0  0  0  0  0  0  0  0
    3.4396   -2.0230    0.5377 C   0  0  1  0  0  0  0  0  0  0  0  0
    2.6486   -0.8839    0.8739 O   0  0  0  0  0  0  0  0  0  0  0  0
    3.8653   -2.0457   -0.9562 C   0  0  1  0  0  0  0  0  0  0  0  0
    5.1414   -1.2127   -0.8743 C   0  0  0  0  0  0  0  0  0  0  0  0
    5.7971   -2.1953    0.0852 C   0  0  1  0  0  0  0  0  0  0  0  0
    7.2409   -1.8254    0.4759 C   0  0  0  0  0  0  0  0  0  0  0  0
    5.7258   -3.5340   -0.7177 C   0  0  1  0  0  0  0  0  0  0  0  0
    4.7502   -4.7315   -0.7512 C   0  0  2  0  0  0  0  0  0  0  0  0
    4.3841   -3.4127   -1.4574 C   0  0  1  0  0  0  0  0  0  0  0  0
    4.3649   -3.4524   -2.9812 C   0  0  0  0  0  0  0  0  0  0  0  0
    7.2464   -7.6647    1.3125 H   0  0  0  0  0  0  0  0  0  0  0  0
    8.5310   -6.4746    1.4866 H   0  0  0  0  0  0  0  0  0  0  0  0
    7.4387   -6.3769    0.1166 H   0  0  0  0  0  0  0  0  0  0  0  0
    6.8829   -4.6597    1.8217 H   0  0  0  0  0  0  0  0  0  0  0  0
    6.9625   -6.9373    3.7603 H   0  0  0  0  0  0  0  0  0  0  0  0
    7.0093   -5.2073    4.0666 H   0  0  0  0  0  0  0  0  0  0  0  0
    4.9256   -6.9474    1.6450 H   0  0  0  0  0  0  0  0  0  0  0  0
    3.9486   -4.3391    0.8008 H   0  0  0  0  0  0  0  0  0  0  0  0
    2.0089   -5.0214    0.5659 H   0  0  0  0  0  0  0  0  0  0  0  0
    2.5311   -6.6852    0.7765 H   0  0  0  0  0  0  0  0  0  0  0  0
    1.0168   -6.3884    3.1756 H   0  0  0  0  0  0  0  0  0  0  0  0
    2.2387   -6.3503    4.4340 H   0  0  0  0  0  0  0  0  0  0  0  0
    2.3997   -7.4928    3.1159 H   0  0  0  0  0  0  0  0  0  0  0  0
    2.2056   -3.2898    2.5281 H   0  0  0  0  0  0  0  0  0  0  0  0
    2.3721   -3.9885    4.1341 H   0  0  0  0  0  0  0  0  0  0  0  0
    4.5936   -2.3857    4.4941 H   0  0  0  0  0  0  0  0  0  0  0  0
    4.2320   -0.7522    2.5763 H   0  0  0  0  0  0  0  0  0  0  0  0
    2.7482   -2.8324    0.6789 H   0  0  0  0  0  0  0  0  0  0  0  0
    1.9198   -0.8632    0.2479 H   0  0  0  0  0  0  0  0  0  0  0  0
    3.1099   -1.6379   -1.6314 H   0  0  0  0  0  0  0  0  0  0  0  0
    5.6664   -1.1136   -1.8235 H   0  0  0  0  0  0  0  0  0  0  0  0
    4.9817   -0.2272   -0.4506 H   0  0  0  0  0  0  0  0  0  0  0  0
    7.9165   -1.8566   -0.3724 H   0  0  0  0  0  0  0  0  0  0  0  0
    7.6209   -2.5247    1.2152 H   0  0  0  0  0  0  0  0  0  0  0  0
    7.3045   -0.8229    0.9047 H   0  0  0  0  0  0  0  0  0  0  0  0
    6.5958   -3.6626   -1.3530 H   0  0  0  0  0  0  0  0  0  0  0  0
    5.0111   -5.5237   -1.4424 H   0  0  0  0  0  0  0  0  0  0  0  0
    5.1038   -4.1633   -3.3630 H   0  0  0  0  0  0  0  0  0  0  0  0
    4.5870   -2.4772   -3.4100 H   0  0  0  0  0  0  0  0  0  0  0  0
    3.3782   -3.7720   -3.3331 H   0  0  0  0  0  0  0  0  0  0  0  0
  1  2  1  0
  1 27  1  0
  1 28  1  0
  1 29  1  0
  2  6  1  0
  2  3  1  0
  2 30  1  1
  3  4  1  0
  3 31  1  0
  3 32  1  0
  5  4  1  1
  5  9  1  0
  5 12  1  0
  5  6  1  0
  6  7  1  0
  6 33  1  1
  7 24  1  0
  7  8  1  0
  7 34  1  1
  8  9  1  0
  8 35  1  0
  8 36  1  0
  9 10  1  1
  9 11  1  0
 10 37  1  0
 10 38  1  0
 10 39  1  0
 11 12  1  0
 11 40  1  0
 11 41  1  0
 12 13  1  1
 12 14  1  0
 13 42  1  0
 14 15  1  0
 15 21  1  0
 15 16  1  1
 15 17  1  0
 16 43  1  0
 17 18  1  0
 17 19  1  0
 17 44  1  1
 18 45  1  0
 19 25  1  0
 19 20  1  0
 19 46  1  6
 20 21  1  0
 20 47  1  0
 20 48  1  0
 21 22  1  1
 21 23  1  0
 22 49  1  0
 22 50  1  0
 22 51  1  0
 23 25  1  0
 23 24  1  0
 23 52  1  6
 24 25  1  0
 24 53  1  6
 25 26  1  6
 26 54  1  0
 26 55  1  0
 26 56  1  0
M  END
>  <i_m_ct_stereo_status>  (10) 
1

>  <s_m_source_file>  (10) 
/var/tmp/pbs.5076255.sched01/tmp9s019jnz/08u7fdliu.sdf

>  <i_m_source_file_index>  (10) 
5

>  <i_lp_mmshare_version>  (10) 
48012

>  <i_f3d_flags>  (10) 
0

>  <s_epik_input>  (10) 
TzFbQ0gyXVtDQEBIXShbQ0gzXSlbQ0BASF0oW0NAXTEyMylbQ0BIXTRbQ0BASF01W0NAQEhdNltDQF03KFtDSDNdKVtDQEBdKFtPSF0pKFtDQEBIXShbT0hdKVtDQEBIXShbQ0gyXTcpW0NAXTU2W0NIM10pT1tDQEBdMyhbT0hdKVtDSDJdW0NAXTIoW0NIMl00KVtDSDNd

>  <s_epik_cmdline>  (10) 
J2VwaWtfcHl0aG9uJywgJy1waHQnLCAnMi4wJywgJy1waCcsICc3LjAnLCAnLXRuJywgJzgnLCAnLW1hJywgJzIwMCcsICctaW1hZScsICc8aW5maWxlLm1hZT4nLCAnLW9tYWUnLCAnPG91dGZpbGUubWFlPic=

>  <r_lp_tautomer_probability>  (10) 
1

>  <r_epik_Ionization_Penalty>  (10) 
7.97904e-07

>  <r_epik_Ionization_Penalty_Charging>  (10) 
0

>  <r_epik_Ionization_Penalty_Neutral>  (10) 
7.97904e-07

>  <r_epik_State_Penalty>  (10) 
-0

>  <r_epik_Charging_Adjusted_Penalty>  (10) 
0

>  <i_epik_Tot_Q>  (10) 
0

>  <i_epik_Tot_abs_Q>  (10) 
0

>  <s_lp_Force_Field>  (10) 
OPLS3e

>  <r_lp_Energy>  (10) 
160.408

>  <b_lp_Chiralities_Consistent>  (10) 
1

>  <s_lp_Variant>  (10) 
4:0-1

>  <s_i_glide_gridfile>  (10) 
pfpi4k_grid

>  <i_i_glide_lignum>  (10) 
5

>  <i_i_glide_rotatable_bonds>  (10) 
3

>  <r_i_docking_score>  (10) 
-2.99044

>  <r_i_glide_ligand_efficiency>  (10) 
-0.115017

>  <r_i_glide_ligand_efficiency_sa>  (10) 
-0.340737

>  <r_i_glide_ligand_efficiency_ln>  (10) 
-0.702295

>  <r_i_glide_gscore>  (10) 
-2.99044

>  <r_i_glide_lipo>  (10) 
-0.262337

>  <r_i_glide_hbond>  (10) 
0

>  <r_i_glide_metal>  (10) 
-0

>  <r_i_glide_rewards>  (10) 
-0.99523

>  <r_i_glide_evdw>  (10) 
-17.9778

>  <r_i_glide_ecoul>  (10) 
-5.5599

>  <r_i_glide_erotb>  (10) 
0

>  <r_i_glide_esite>  (10) 
0

>  <r_i_glide_emodel>  (10) 
-27.7498

>  <r_i_glide_energy>  (10) 
-23.5377

>  <r_i_glide_einternal>  (10) 
0.368583

>  <r_i_glide_intrahb_reward>  (10) 
-0

>  <i_i_glide_confnum>  (10) 
2

>  <i_i_glide_posenum>  (10) 
7

>  <r_i_glide_eff_state_penalty>  (10) 
0

>  <ligand_id>  (10) 
4

>  <original_smiles>  (10) 
CC1COC23C1C1CC2(C)CC3(O)OC2(O)C(O)C3CC2(C)C2C1C32C

>  <smiles>  (10) 
[H]OC1([H])C2(O[H])OC3(O[H])C([H])([H])C4(C([H])([H])[H])C([H])([H])C([H])(C5([H])C([H])(C([H])([H])[H])C([H])([H])OC354)C3([H])C4([H])C2(C([H])([H])[H])C([H])([H])C1([H])C34C([H])([H])[H]

$$$$
4:0:1
     RDKit          3D

 56 62  0  0  1  0  0  0  0  0999 V2000
    3.5097   -5.4585    3.8210 C   0  0  0  0  0  0  0  0  0  0  0  0
    4.1343   -4.0998    3.4685 C   0  0  2  0  0  0  0  0  0  0  0  0
    4.8459   -3.3825    4.6510 C   0  0  0  0  0  0  0  0  0  0  0  0
    4.4295   -2.0012    4.6910 O   0  0  0  0  0  0  0  0  0  0  0  0
    3.8841   -1.7339    3.4154 C   0  0  1  0  0  0  0  0  0  0  0  0
    3.1255   -3.0101    3.1669 C   0  0  1  0  0  0  0  0  0  0  0  0
    2.3656   -2.6857    1.8740 C   0  0  2  0  0  0  0  0  0  0  0  0
    1.7139   -1.3106    2.1818 C   0  0  0  0  0  0  0  0  0  0  0  0
    2.8558   -0.6324    3.0442 C   0  0  1  0  0  0  0  0  0  0  0  0
    2.2963    0.2211    4.1749 C   0  0  0  0  0  0  0  0  0  0  0  0
    4.0066    0.0334    2.2633 C   0  0  0  0  0  0  0  0  0  0  0  0
    4.9662   -1.1554    2.4073 C   0  0  1  0  0  0  0  0  0  0  0  0
    6.2075   -0.7315    2.8872 O   0  0  0  0  0  0  0  0  0  0  0  0
    5.0798   -2.2219    1.4566 O   0  0  0  0  0  0  0  0  0  0  0  0
    5.1925   -2.1816    0.0554 C   0  0  2  0  0  0  0  0  0  0  0  0
    6.5020   -1.7830   -0.3303 O   0  0  0  0  0  0  0  0  0  0  0  0
    4.0908   -1.3730   -0.7536 C   0  0  1  0  0  0  0  0  0  0  0  0
    4.6176   -0.4221   -1.6556 O   0  0  0  0  0  0  0  0  0  0  0  0
    3.3578   -2.4517   -1.5786 C   0  0  1  0  0  0  0  0  0  0  0  0
    4.5454   -3.3375   -1.9400 C   0  0  0  0  0  0  0  0  0  0  0  0
    4.8394   -3.6254   -0.4716 C   0  0  1  0  0  0  0  0  0  0  0  0
    6.0032   -4.6007   -0.2419 C   0  0  0  0  0  0  0  0  0  0  0  0
    3.4657   -4.2192   -0.0334 C   0  0  1  0  0  0  0  0  0  0  0  0
    2.2469   -3.6847    0.7236 C   0  0  2  0  0  0  0  0  0  0  0  0
    2.4208   -3.3772   -0.7756 C   0  0  1  0  0  0  0  0  0  0  0  0
    1.4097   -3.9968   -1.7110 C   0  0  0  0  0  0  0  0  0  0  0  0
    2.8151   -5.3955    4.6605 H   0  0  0  0  0  0  0  0  0  0  0  0
    4.2850   -6.1745    4.0881 H   0  0  0  0  0  0  0  0  0  0  0  0
    2.9696   -5.8682    2.9675 H   0  0  0  0  0  0  0  0  0  0  0  0
    4.8514   -4.2460    2.6609 H   0  0  0  0  0  0  0  0  0  0  0  0
    4.6082   -3.8344    5.6126 H   0  0  0  0  0  0  0  0  0  0  0  0
    5.9217   -3.4308    4.5172 H   0  0  0  0  0  0  0  0  0  0  0  0
    2.3516   -3.0973    3.9390 H   0  0  0  0  0  0  0  0  0  0  0  0
    2.9660   -2.1241    1.2482 H   0  0  0  0  0  0  0  0  0  0  0  0
    1.4963   -0.7162    1.2922 H   0  0  0  0  0  0  0  0  0  0  0  0
    0.7831   -1.4058    2.7442 H   0  0  0  0  0  0  0  0  0  0  0  0
    1.7400    1.0788    3.7990 H   0  0  0  0  0  0  0  0  0  0  0  0
    3.1160    0.6184    4.7713 H   0  0  0  0  0  0  0  0  0  0  0  0
    1.6637   -0.3543    4.8425 H   0  0  0  0  0  0  0  0  0  0  0  0
    3.8347    0.4044    1.2497 H   0  0  0  0  0  0  0  0  0  0  0  0
    4.4050    0.8146    2.9121 H   0  0  0  0  0  0  0  0  0  0  0  0
    6.7330   -0.4184    2.1500 H   0  0  0  0  0  0  0  0  0  0  0  0
    7.1004   -2.4200    0.0389 H   0  0  0  0  0  0  0  0  0  0  0  0
    3.3434   -0.8549   -0.1787 H   0  0  0  0  0  0  0  0  0  0  0  0
    4.9022    0.2878   -1.1061 H   0  0  0  0  0  0  0  0  0  0  0  0
    2.8229   -2.0377   -2.4277 H   0  0  0  0  0  0  0  0  0  0  0  0
    4.2897   -4.2183   -2.5341 H   0  0  0  0  0  0  0  0  0  0  0  0
    5.3422   -2.8048   -2.4607 H   0  0  0  0  0  0  0  0  0  0  0  0
    5.7679   -5.5763   -0.6656 H   0  0  0  0  0  0  0  0  0  0  0  0
    6.1984   -4.7310    0.8232 H   0  0  0  0  0  0  0  0  0  0  0  0
    6.9243   -4.2523   -0.7167 H   0  0  0  0  0  0  0  0  0  0  0  0
    3.4348   -5.2965   -0.1751 H   0  0  0  0  0  0  0  0  0  0  0  0
    1.6817   -4.5623    1.0228 H   0  0  0  0  0  0  0  0  0  0  0  0
    1.1587   -5.0009   -1.3739 H   0  0  0  0  0  0  0  0  0  0  0  0
    1.8541   -4.0913   -2.7022 H   0  0  0  0  0  0  0  0  0  0  0  0
    0.5174   -3.3708   -1.7754 H   0  0  0  0  0  0  0  0  0  0  0  0
  1  2  1  0
  1 27  1  0
  1 28  1  0
  1 29  1  0
  2  6  1  0
  2  3  1  0
  2 30  1  6
  3  4  1  0
  3 31  1  0
  3 32  1  0
  5  4  1  1
  5  9  1  0
  5 12  1  0
  5  6  1  0
  6  7  1  0
  6 33  1  1
  7 24  1  0
  7  8  1  0
  7 34  1  6
  8  9  1  0
  8 35  1  0
  8 36  1  0
  9 10  1  1
  9 11  1  0
 10 37  1  0
 10 38  1  0
 10 39  1  0
 11 12  1  0
 11 40  1  0
 11 41  1  0
 12 13  1  1
 12 14  1  0
 13 42  1  0
 14 15  1  0
 15 21  1  0
 15 16  1  1
 15 17  1  0
 16 43  1  0
 17 18  1  0
 17 19  1  0
 17 44  1  1
 18 45  1  0
 19 25  1  0
 19 20  1  0
 19 46  1  6
 20 21  1  0
 20 47  1  0
 20 48  1  0
 21 22  1  6
 21 23  1  0
 22 49  1  0
 22 50  1  0
 22 51  1  0
 23 25  1  0
 23 24  1  0
 23 52  1  6
 24 25  1  0
 24 53  1  6
 25 26  1  6
 26 54  1  0
 26 55  1  0
 26 56  1  0
M  END
>  <i_m_ct_stereo_status>  (11) 
1

>  <s_m_source_file>  (11) 
/var/tmp/pbs.5076255.sched01/tmp9s019jnz/08u7fdliu.sdf

>  <i_m_source_file_index>  (11) 
5

>  <i_lp_mmshare_version>  (11) 
48012

>  <i_f3d_flags>  (11) 
0

>  <s_epik_input>  (11) 
TzFbQ0gyXVtDQEBIXShbQ0gzXSlbQ0BASF0oW0NAXTEyMylbQ0BIXTRbQ0BASF01W0NAQEhdNltDQF03KFtDSDNdKVtDQEBdKFtPSF0pKFtDQEBIXShbT0hdKVtDQEBIXShbQ0gyXTcpW0NAXTU2W0NIM10pT1tDQEBdMyhbT0hdKVtDSDJdW0NAXTIoW0NIMl00KVtDSDNd

>  <s_epik_cmdline>  (11) 
J2VwaWtfcHl0aG9uJywgJy1waHQnLCAnMi4wJywgJy1waCcsICc3LjAnLCAnLXRuJywgJzgnLCAnLW1hJywgJzIwMCcsICctaW1hZScsICc8aW5maWxlLm1hZT4nLCAnLW9tYWUnLCAnPG91dGZpbGUubWFlPic=

>  <r_lp_tautomer_probability>  (11) 
1

>  <r_epik_Ionization_Penalty>  (11) 
7.97904e-07

>  <r_epik_Ionization_Penalty_Charging>  (11) 
0

>  <r_epik_Ionization_Penalty_Neutral>  (11) 
7.97904e-07

>  <r_epik_State_Penalty>  (11) 
-0

>  <r_epik_Charging_Adjusted_Penalty>  (11) 
0

>  <i_epik_Tot_Q>  (11) 
0

>  <i_epik_Tot_abs_Q>  (11) 
0

>  <s_lp_Force_Field>  (11) 
OPLS3e

>  <r_lp_Energy>  (11) 
160.408

>  <b_lp_Chiralities_Consistent>  (11) 
1

>  <s_lp_Variant>  (11) 
4:0-1

>  <s_i_glide_gridfile>  (11) 
pfpi4k_grid

>  <i_i_glide_lignum>  (11) 
5

>  <i_i_glide_rotatable_bonds>  (11) 
3

>  <r_i_docking_score>  (11) 
-2.84217

>  <r_i_glide_ligand_efficiency>  (11) 
-0.109314

>  <r_i_glide_ligand_efficiency_sa>  (11) 
-0.323843

>  <r_i_glide_ligand_efficiency_ln>  (11) 
-0.667475

>  <r_i_glide_gscore>  (11) 
-2.84217

>  <r_i_glide_lipo>  (11) 
-0.13424

>  <r_i_glide_hbond>  (11) 
0

>  <r_i_glide_metal>  (11) 
-0

>  <r_i_glide_rewards>  (11) 
-1.07609

>  <r_i_glide_evdw>  (11) 
-13.8654

>  <r_i_glide_ecoul>  (11) 
-6.25713

>  <r_i_glide_erotb>  (11) 
0

>  <r_i_glide_esite>  (11) 
0

>  <r_i_glide_emodel>  (11) 
-23.1221

>  <r_i_glide_energy>  (11) 
-20.1226

>  <r_i_glide_einternal>  (11) 
0.561651

>  <r_i_glide_intrahb_reward>  (11) 
-0

>  <i_i_glide_confnum>  (11) 
2

>  <i_i_glide_posenum>  (11) 
6

>  <r_i_glide_eff_state_penalty>  (11) 
0

>  <ligand_id>  (11) 
4

>  <original_smiles>  (11) 
CC1COC23C1C1CC2(C)CC3(O)OC2(O)C(O)C3CC2(C)C2C1C32C

>  <smiles>  (11) 
[H]OC1([H])C2(O[H])OC3(O[H])C([H])([H])C4(C([H])([H])[H])C([H])([H])C([H])(C5([H])C([H])(C([H])([H])[H])C([H])([H])OC354)C3([H])C4([H])C2(C([H])([H])[H])C([H])([H])C1([H])C34C([H])([H])[H]

$$$$
4:0:2
     RDKit          3D

 56 62  0  0  1  0  0  0  0  0999 V2000
    1.1663   -5.5021    2.7315 C   0  0  0  0  0  0  0  0  0  0  0  0
    2.3276   -4.5569    3.0710 C   0  0  2  0  0  0  0  0  0  0  0  0
    2.5439   -4.3331    4.5970 C   0  0  0  0  0  0  0  0  0  0  0  0
    2.6984   -2.9185    4.8304 O   0  0  0  0  0  0  0  0  0  0  0  0
    3.0407   -2.3480    3.5726 C   0  0  1  0  0  0  0  0  0  0  0  0
    2.1027   -3.1118    2.6790 C   0  0  1  0  0  0  0  0  0  0  0  0
    2.3147   -2.3852    1.3465 C   0  0  2  0  0  0  0  0  0  0  0  0
    2.1811   -0.8915    1.7388 C   0  0  0  0  0  0  0  0  0  0  0  0
    2.8826   -0.8673    3.1570 C   0  0  1  0  0  0  0  0  0  0  0  0
    2.1704    0.0673    4.1190 C   0  0  0  0  0  0  0  0  0  0  0  0
    4.4296   -0.8226    3.2016 C   0  0  0  0  0  0  0  0  0  0  0  0
    4.6016   -2.3460    3.3756 C   0  0  1  0  0  0  0  0  0  0  0  0
    5.3881   -2.6946    4.5062 O   0  0  0  0  0  0  0  0  0  0  0  0
    4.7944   -3.2324    2.2409 O   0  0  0  0  0  0  0  0  0  0  0  0
    5.5932   -3.1368    1.0972 C   0  0  2  0  0  0  0  0  0  0  0  0
    6.9599   -3.3832    1.3721 O   0  0  0  0  0  0  0  0  0  0  0  0
    5.4202   -1.8442    0.1969 C   0  0  1  0  0  0  0  0  0  0  0  0
    6.6153   -1.0960    0.0632 O   0  0  0  0  0  0  0  0  0  0  0  0
    4.9125   -2.4124   -1.1537 C   0  0  1  0  0  0  0  0  0  0  0  0
    5.6832   -3.7272   -1.1898 C   0  0  0  0  0  0  0  0  0  0  0  0
    5.0503   -4.2193    0.1020 C   0  0  1  0  0  0  0  0  0  0  0  0
    5.4804   -5.6414    0.5245 C   0  0  0  0  0  0  0  0  0  0  0  0
    3.5290   -4.1315   -0.2186 C   0  0  1  0  0  0  0  0  0  0  0  0
    2.4215   -3.0874   -0.0070 C   0  0  2  0  0  0  0  0  0  0  0  0
    3.4473   -2.8927   -1.1232 C   0  0  1  0  0  0  0  0  0  0  0  0
    2.9164   -3.0113   -2.5493 C   0  0  0  0  0  0  0  0  0  0  0  0
    0.2285   -5.1780    3.1830 H   0  0  0  0  0  0  0  0  0  0  0  0
    1.3692   -6.5120    3.0917 H   0  0  0  0  0  0  0  0  0  0  0  0
    1.0312   -5.5685    1.6527 H   0  0  0  0  0  0  0  0  0  0  0  0
    3.2379   -4.9631    2.6368 H   0  0  0  0  0  0  0  0  0  0  0  0
    1.7077   -4.6979    5.1956 H   0  0  0  0  0  0  0  0  0  0  0  0
    3.4395   -4.8565    4.9347 H   0  0  0  0  0  0  0  0  0  0  0  0
    1.0795   -2.8807    2.9782 H   0  0  0  0  0  0  0  0  0  0  0  0
    3.3121   -2.1820    1.2582 H   0  0  0  0  0  0  0  0  0  0  0  0
    2.6483   -0.2151    1.0203 H   0  0  0  0  0  0  0  0  0  0  0  0
    1.1263   -0.6046    1.7990 H   0  0  0  0  0  0  0  0  0  0  0  0
    2.2319    1.1068    3.7953 H   0  0  0  0  0  0  0  0  0  0  0  0
    2.6289    0.0166    5.1126 H   0  0  0  0  0  0  0  0  0  0  0  0
    1.1180   -0.1937    4.2465 H   0  0  0  0  0  0  0  0  0  0  0  0
    4.9140   -0.3362    2.3610 H   0  0  0  0  0  0  0  0  0  0  0  0
    4.7704   -0.3014    4.1040 H   0  0  0  0  0  0  0  0  0  0  0  0
    5.0747   -3.5398    4.7768 H   0  0  0  0  0  0  0  0  0  0  0  0
    6.9969   -4.2069    1.8230 H   0  0  0  0  0  0  0  0  0  0  0  0
    4.7206   -1.0918    0.5194 H   0  0  0  0  0  0  0  0  0  0  0  0
    6.8678   -0.7974    0.9231 H   0  0  0  0  0  0  0  0  0  0  0  0
    5.1068   -1.7500   -1.9959 H   0  0  0  0  0  0  0  0  0  0  0  0
    5.4387   -4.3481   -2.0504 H   0  0  0  0  0  0  0  0  0  0  0  0
    6.7630   -3.6012   -1.1451 H   0  0  0  0  0  0  0  0  0  0  0  0
    5.1535   -6.3776   -0.2077 H   0  0  0  0  0  0  0  0  0  0  0  0
    5.0534   -5.9242    1.4866 H   0  0  0  0  0  0  0  0  0  0  0  0
    6.5612   -5.7470    0.6032 H   0  0  0  0  0  0  0  0  0  0  0  0
    3.1425   -5.0702   -0.6060 H   0  0  0  0  0  0  0  0  0  0  0  0
    1.4547   -3.3806   -0.3982 H   0  0  0  0  0  0  0  0  0  0  0  0
    2.1014   -3.7381   -2.5955 H   0  0  0  0  0  0  0  0  0  0  0  0
    3.6938   -3.3439   -3.2362 H   0  0  0  0  0  0  0  0  0  0  0  0
    2.5334   -2.0463   -2.8852 H   0  0  0  0  0  0  0  0  0  0  0  0
  1  2  1  0
  1 27  1  0
  1 28  1  0
  1 29  1  0
  2  6  1  0
  2  3  1  0
  2 30  1  6
  3  4  1  0
  3 31  1  0
  3 32  1  0
  5  4  1  1
  5  9  1  0
  5 12  1  0
  5  6  1  0
  6  7  1  0
  6 33  1  1
  7 24  1  0
  7  8  1  0
  7 34  1  1
  8  9  1  0
  8 35  1  0
  8 36  1  0
  9 10  1  1
  9 11  1  0
 10 37  1  0
 10 38  1  0
 10 39  1  0
 11 12  1  0
 11 40  1  0
 11 41  1  0
 12 13  1  1
 12 14  1  0
 13 42  1  0
 14 15  1  0
 15 21  1  0
 15 16  1  1
 15 17  1  0
 16 43  1  0
 17 18  1  0
 17 19  1  0
 17 44  1  1
 18 45  1  0
 19 25  1  0
 19 20  1  0
 19 46  1  6
 20 21  1  0
 20 47  1  0
 20 48  1  0
 21 22  1  1
 21 23  1  0
 22 49  1  0
 22 50  1  0
 22 51  1  0
 23 25  1  0
 23 24  1  0
 23 52  1  6
 24 25  1  0
 24 53  1  6
 25 26  1  6
 26 54  1  0
 26 55  1  0
 26 56  1  0
M  END
>  <i_m_ct_stereo_status>  (12) 
1

>  <s_m_source_file>  (12) 
/var/tmp/pbs.5076255.sched01/tmp9s019jnz/08u7fdliu.sdf

>  <i_m_source_file_index>  (12) 
5

>  <i_lp_mmshare_version>  (12) 
48012

>  <i_f3d_flags>  (12) 
0

>  <s_epik_input>  (12) 
TzFbQ0gyXVtDQEBIXShbQ0gzXSlbQ0BASF0oW0NAXTEyMylbQ0BIXTRbQ0BASF01W0NAQEhdNltDQF03KFtDSDNdKVtDQEBdKFtPSF0pKFtDQEBIXShbT0hdKVtDQEBIXShbQ0gyXTcpW0NAXTU2W0NIM10pT1tDQEBdMyhbT0hdKVtDSDJdW0NAXTIoW0NIMl00KVtDSDNd

>  <s_epik_cmdline>  (12) 
J2VwaWtfcHl0aG9uJywgJy1waHQnLCAnMi4wJywgJy1waCcsICc3LjAnLCAnLXRuJywgJzgnLCAnLW1hJywgJzIwMCcsICctaW1hZScsICc8aW5maWxlLm1hZT4nLCAnLW9tYWUnLCAnPG91dGZpbGUubWFlPic=

>  <r_lp_tautomer_probability>  (12) 
1

>  <r_epik_Ionization_Penalty>  (12) 
7.97904e-07

>  <r_epik_Ionization_Penalty_Charging>  (12) 
0

>  <r_epik_Ionization_Penalty_Neutral>  (12) 
7.97904e-07

>  <r_epik_State_Penalty>  (12) 
-0

>  <r_epik_Charging_Adjusted_Penalty>  (12) 
0

>  <i_epik_Tot_Q>  (12) 
0

>  <i_epik_Tot_abs_Q>  (12) 
0

>  <s_lp_Force_Field>  (12) 
OPLS3e

>  <r_lp_Energy>  (12) 
160.408

>  <b_lp_Chiralities_Consistent>  (12) 
1

>  <s_lp_Variant>  (12) 
4:0-1

>  <s_i_glide_gridfile>  (12) 
pfpi4k_grid

>  <i_i_glide_lignum>  (12) 
5

>  <i_i_glide_rotatable_bonds>  (12) 
3

>  <r_i_docking_score>  (12) 
-2.62652

>  <r_i_glide_ligand_efficiency>  (12) 
-0.10102

>  <r_i_glide_ligand_efficiency_sa>  (12) 
-0.299271

>  <r_i_glide_ligand_efficiency_ln>  (12) 
-0.616829

>  <r_i_glide_gscore>  (12) 
-2.62652

>  <r_i_glide_lipo>  (12) 
-0.300592

>  <r_i_glide_hbond>  (12) 
0

>  <r_i_glide_metal>  (12) 
-0

>  <r_i_glide_rewards>  (12) 
-1.06575

>  <r_i_glide_evdw>  (12) 
-15.8396

>  <r_i_glide_ecoul>  (12) 
-3.12125

>  <r_i_glide_erotb>  (12) 
0

>  <r_i_glide_esite>  (12) 
0

>  <r_i_glide_emodel>  (12) 
-22.4271

>  <r_i_glide_energy>  (12) 
-18.9609

>  <r_i_glide_einternal>  (12) 
0.596398

>  <r_i_glide_intrahb_reward>  (12) 
-0

>  <i_i_glide_confnum>  (12) 
1

>  <i_i_glide_posenum>  (12) 
36

>  <r_i_glide_eff_state_penalty>  (12) 
0

>  <ligand_id>  (12) 
4

>  <original_smiles>  (12) 
CC1COC23C1C1CC2(C)CC3(O)OC2(O)C(O)C3CC2(C)C2C1C32C

>  <smiles>  (12) 
[H]OC1([H])C2(O[H])OC3(O[H])C([H])([H])C4(C([H])([H])[H])C([H])([H])C([H])(C5([H])C([H])(C([H])([H])[H])C([H])([H])OC354)C3([H])C4([H])C2(C([H])([H])[H])C([H])([H])C1([H])C34C([H])([H])[H]

$$$$
5:0:0
     RDKit          3D

 50 54  0  0  1  0  0  0  0  0999 V2000
   -2.5579    3.2163    5.5372 C   0  0  0  0  0  0  0  0  0  0  0  0
   -1.0326    3.2532    5.5400 C   0  0  0  0  0  0  0  0  0  0  0  0
   -1.0836    3.5544    4.0362 C   0  0  0  0  0  0  0  0  0  0  0  0
   -0.0479    2.8630    3.2047 N   0  0  2  0  0  0  0  0  0  0  0  0
   -0.4481    1.4833    2.8028 C   0  0  0  0  0  0  0  0  0  0  0  0
    0.5789    0.8530    1.8894 C   0  0  0  0  0  0  0  0  0  0  0  0
    1.9797    0.8666    2.5130 C   0  0  2  0  0  0  0  0  0  0  0  0
    2.3700    2.2878    2.9393 C   0  0  0  0  0  0  0  0  0  0  0  0
    1.3009    2.8942    3.8461 C   0  0  0  0  0  0  0  0  0  0  0  0
    2.9694    0.3026    1.5099 C   0  0  0  0  0  0  0  0  0  0  0  0
    2.9087   -1.1743    1.8013 C   0  0  1  0  0  0  0  0  0  0  0  0
    4.0382   -1.9401    1.2156 N   0  0  2  0  0  0  0  0  0  0  0  0
    5.3974   -1.6485    1.7599 C   0  0  0  0  0  0  0  0  0  0  0  0
    6.3431   -2.0554    0.6634 C   0  0  1  0  0  0  0  0  0  0  0  0
    6.2637   -3.3937   -0.0315 C   0  0  0  0  0  0  0  0  0  0  0  0
    5.5459   -2.1922   -0.6003 C   0  0  1  0  0  0  0  0  0  0  0  0
    4.1161   -1.8645   -0.2709 C   0  0  0  0  0  0  0  0  0  0  0  0
    2.7894   -1.1969    3.3199 C   0  0  0  0  0  0  0  0  0  0  0  0
    2.0107   -0.0383    3.6280 O   0  0  0  0  0  0  0  0  0  0  0  0
   -2.5152    2.9826    4.0241 C   0  0  0  0  0  0  0  0  0  0  0  0
   -3.0230    4.1484    5.8328 H   0  0  0  0  0  0  0  0  0  0  0  0
   -2.9633    2.3873    6.1089 H   0  0  0  0  0  0  0  0  0  0  0  0
   -0.5802    4.0416    6.1400 H   0  0  0  0  0  0  0  0  0  0  0  0
   -0.6120    2.2676    5.7822 H   0  0  0  0  0  0  0  0  0  0  0  0
   -1.0699    4.6250    3.8572 H   0  0  0  0  0  0  0  0  0  0  0  0
   -0.5839    0.8498    3.6818 H   0  0  0  0  0  0  0  0  0  0  0  0
   -1.4005    1.5032    2.2713 H   0  0  0  0  0  0  0  0  0  0  0  0
    0.2725   -0.1670    1.6700 H   0  0  0  0  0  0  0  0  0  0  0  0
    0.5886    1.3721    0.9329 H   0  0  0  0  0  0  0  0  0  0  0  0
    3.3303    2.2760    3.4586 H   0  0  0  0  0  0  0  0  0  0  0  0
    2.5196    2.9286    2.0735 H   0  0  0  0  0  0  0  0  0  0  0  0
    1.5778    3.9169    4.0977 H   0  0  0  0  0  0  0  0  0  0  0  0
    1.3077    2.3197    4.7721 H   0  0  0  0  0  0  0  0  0  0  0  0
    2.6741    0.5412    0.4914 H   0  0  0  0  0  0  0  0  0  0  0  0
    3.9538    0.7254    1.6885 H   0  0  0  0  0  0  0  0  0  0  0  0
    1.9862   -1.5773    1.3942 H   0  0  0  0  0  0  0  0  0  0  0  0
    5.5515   -0.5874    1.9566 H   0  0  0  0  0  0  0  0  0  0  0  0
    5.5967   -2.1976    2.6774 H   0  0  0  0  0  0  0  0  0  0  0  0
    7.2898   -1.5245    0.6285 H   0  0  0  0  0  0  0  0  0  0  0  0
    7.1555   -3.7432   -0.5566 H   0  0  0  0  0  0  0  0  0  0  0  0
    5.6566   -4.1762    0.4253 H   0  0  0  0  0  0  0  0  0  0  0  0
    5.9402   -1.7506   -1.5119 H   0  0  0  0  0  0  0  0  0  0  0  0
    3.4136   -2.5416   -0.7562 H   0  0  0  0  0  0  0  0  0  0  0  0
    3.9231   -0.8553   -0.6431 H   0  0  0  0  0  0  0  0  0  0  0  0
    2.3316   -2.1048    3.7159 H   0  0  0  0  0  0  0  0  0  0  0  0
    3.7541   -1.0741    3.8108 H   0  0  0  0  0  0  0  0  0  0  0  0
   -2.6062    1.9135    3.8146 H   0  0  0  0  0  0  0  0  0  0  0  0
   -3.2331    3.5686    3.4509 H   0  0  0  0  0  0  0  0  0  0  0  0
    0.0290    3.3870    2.3277 H   0  0  0  0  0  0  0  0  0  0  0  0
    3.8718   -2.9203    1.4196 H   0  0  0  0  0  0  0  0  0  0  0  0
  1 20  1  0
  1  2  1  0
  1 21  1  0
  1 22  1  0
  2  3  1  0
  2 23  1  0
  2 24  1  0
  3  4  1  0
  3 20  1  0
  3 25  1  0
  4  9  1  0
  4  5  1  0
  4 49  1  6
  5  6  1  0
  5 26  1  0
  5 27  1  0
  6  7  1  0
  6 28  1  0
  6 29  1  0
  7 19  1  1
  7  8  1  0
  7 10  1  0
  8  9  1  0
  8 30  1  0
  8 31  1  0
  9 32  1  0
  9 33  1  0
 10 11  1  0
 10 34  1  0
 10 35  1  0
 11 12  1  0
 11 18  1  0
 11 36  1  6
 12 17  1  0
 12 13  1  0
 12 50  1  6
 13 14  1  0
 13 37  1  0
 13 38  1  0
 14 16  1  0
 14 15  1  0
 14 39  1  6
 15 16  1  0
 15 40  1  0
 15 41  1  0
 16 17  1  0
 16 42  1  6
 17 43  1  0
 17 44  1  0
 18 19  1  0
 18 45  1  0
 18 46  1  0
 20 47  1  0
 20 48  1  0
M  CHG  2   4   1  12   1
M  END
>  <i_m_ct_stereo_status>  (13) 
1

>  <s_m_source_file>  (13) 
/var/tmp/pbs.5076255.sched01/tmp9s019jnz/08u7fdliu.sdf

>  <i_m_source_file_index>  (13) 
6

>  <i_lp_mmshare_version>  (13) 
48012

>  <i_f3d_flags>  (13) 
0

>  <s_epik_input>  (13) 
W0NIMl0xW0NIMl1bQ0gyXVtDSF0xTihbQ0gyXVtDSDJdMilbQ0gyXVtDSDJdQzIzW0NIMl1bQ0BIXShbQ0gyXU8zKU4oW0NIMl00KVtDSDJdW0NAQEhdKFtDQEBIXTQ1KVtDSDJdNQ==

>  <s_epik_cmdline>  (13) 
J2VwaWtfcHl0aG9uJywgJy1waHQnLCAnMi4wJywgJy1waCcsICc3LjAnLCAnLXRuJywgJzgnLCAnLW1hJywgJzIwMCcsICctaW1hZScsICc8aW5maWxlLm1hZT4nLCAnLW9tYWUnLCAnPG91dGZpbGUubWFlPic=

>  <r_epik_Ionization_Penalty>  (13) 
0.0149146

>  <r_epik_Ionization_Penalty_Charging>  (13) 
0.0149146

>  <r_epik_Ionization_Penalty_Neutral>  (13) 
2.23649e-15

>  <r_epik_State_Penalty>  (13) 
0.00690108

>  <r_epik_Charging_Adjusted_Penalty>  (13) 
0.0218156

>  <i_epik_Tot_Q>  (13) 
2

>  <i_epik_Tot_abs_Q>  (13) 
2

>  <s_lp_Force_Field>  (13) 
OPLS3e

>  <r_lp_Energy>  (13) 
45.306

>  <b_lp_Chiralities_Consistent>  (13) 
1

>  <s_lp_Variant>  (13) 
5:0-1

>  <s_i_glide_gridfile>  (13) 
pfpi4k_grid

>  <i_i_glide_lignum>  (13) 
6

>  <i_i_glide_rotatable_bonds>  (13) 
2

>  <r_i_docking_score>  (13) 
-3.84029

>  <r_i_glide_ligand_efficiency>  (13) 
-0.192015

>  <r_i_glide_ligand_efficiency_sa>  (13) 
-0.521208

>  <r_i_glide_ligand_efficiency_ln>  (13) 
-0.961099

>  <r_i_glide_gscore>  (13) 
-3.84029

>  <r_i_glide_lipo>  (13) 
-0.319746

>  <r_i_glide_hbond>  (13) 
-0.2

>  <r_i_glide_metal>  (13) 
-0

>  <r_i_glide_rewards>  (13) 
-1.51068

>  <r_i_glide_evdw>  (13) 
-23.0433

>  <r_i_glide_ecoul>  (13) 
-6.85908

>  <r_i_glide_erotb>  (13) 
0.465036

>  <r_i_glide_esite>  (13) 
-0.0938693

>  <r_i_glide_emodel>  (13) 
-29.8742

>  <r_i_glide_energy>  (13) 
-29.9024

>  <r_i_glide_einternal>  (13) 
16.1753

>  <r_i_glide_intrahb_reward>  (13) 
-0

>  <i_i_glide_confnum>  (13) 
3

>  <i_i_glide_posenum>  (13) 
32

>  <r_i_glide_eff_state_penalty>  (13) 
0

>  <ligand_id>  (13) 
5

>  <original_smiles>  (13) 
C1CC(N2CCC3(CC2)CC(N2CC4CC4C2)CO3)C1

>  <smiles>  (13) 
[H]C1([H])OC2(C([H])([H])C([H])([H])[N+]([H])(C3([H])C([H])([H])C([H])([H])C3([H])[H])C([H])([H])C2([H])[H])C([H])([H])C1([H])[N+]1([H])C([H])([H])C2([H])C([H])([H])C2([H])C1([H])[H]

$$$$
5:0:1
     RDKit          3D

 50 54  0  0  1  0  0  0  0  0999 V2000
    5.2952   -3.4921   -2.3128 C   0  0  0  0  0  0  0  0  0  0  0  0
    5.1637   -2.0882   -1.7176 C   0  0  0  0  0  0  0  0  0  0  0  0
    5.3864   -2.7358   -0.3411 C   0  0  0  0  0  0  0  0  0  0  0  0
    4.5466   -2.1917    0.7777 N   0  0  2  0  0  0  0  0  0  0  0  0
    3.0660   -2.1544    0.5253 C   0  0  0  0  0  0  0  0  0  0  0  0
    2.3029   -1.7181    1.7653 C   0  0  0  0  0  0  0  0  0  0  0  0
    2.7895   -0.3595    2.2796 C   0  0  2  0  0  0  0  0  0  0  0  0
    4.3071   -0.4016    2.5057 C   0  0  0  0  0  0  0  0  0  0  0  0
    5.0543   -0.8744    1.2516 C   0  0  0  0  0  0  0  0  0  0  0  0
    2.0015    0.0324    3.5172 C   0  0  0  0  0  0  0  0  0  0  0  0
    0.7853    0.6804    2.8901 C   0  0  1  0  0  0  0  0  0  0  0  0
    0.0112    1.4800    3.8617 N   0  0  2  0  0  0  0  0  0  0  0  0
   -0.5737    0.6637    4.9613 C   0  0  0  0  0  0  0  0  0  0  0  0
   -1.7785    1.4261    5.4369 C   0  0  1  0  0  0  0  0  0  0  0  0
   -1.7309    2.8990    5.7721 C   0  0  0  0  0  0  0  0  0  0  0  0
   -2.1057    2.4459    4.3777 C   0  0  1  0  0  0  0  0  0  0  0  0
   -1.0962    2.2840    3.2712 C   0  0  0  0  0  0  0  0  0  0  0  0
    1.4197    1.4952    1.7748 C   0  0  0  0  0  0  0  0  0  0  0  0
    2.4758    0.6465    1.3144 O   0  0  0  0  0  0  0  0  0  0  0  0
    4.9998   -4.0956   -0.9361 C   0  0  0  0  0  0  0  0  0  0  0  0
    6.3033   -3.7093   -2.6798 H   0  0  0  0  0  0  0  0  0  0  0  0
    4.5224   -3.7141   -3.0441 H   0  0  0  0  0  0  0  0  0  0  0  0
    5.9490   -1.3870   -2.0029 H   0  0  0  0  0  0  0  0  0  0  0  0
    4.1718   -1.6835   -1.9127 H   0  0  0  0  0  0  0  0  0  0  0  0
    6.4440   -2.7596   -0.0964 H   0  0  0  0  0  0  0  0  0  0  0  0
    2.8430   -1.4357   -0.2632 H   0  0  0  0  0  0  0  0  0  0  0  0
    2.6542   -3.1177    0.2322 H   0  0  0  0  0  0  0  0  0  0  0  0
    1.2559   -1.6746    1.4848 H   0  0  0  0  0  0  0  0  0  0  0  0
    2.3718   -2.4847    2.5401 H   0  0  0  0  0  0  0  0  0  0  0  0
    4.6595    0.5812    2.8022 H   0  0  0  0  0  0  0  0  0  0  0  0
    4.5394   -1.0548    3.3486 H   0  0  0  0  0  0  0  0  0  0  0  0
    6.1180   -0.9349    1.4763 H   0  0  0  0  0  0  0  0  0  0  0  0
    4.9457   -0.1379    0.4554 H   0  0  0  0  0  0  0  0  0  0  0  0
    1.7521   -0.8271    4.1427 H   0  0  0  0  0  0  0  0  0  0  0  0
    2.5544    0.7434    4.1279 H   0  0  0  0  0  0  0  0  0  0  0  0
    0.1534   -0.0674    2.4302 H   0  0  0  0  0  0  0  0  0  0  0  0
   -0.9104   -0.2965    4.5621 H   0  0  0  0  0  0  0  0  0  0  0  0
    0.1321    0.4755    5.7685 H   0  0  0  0  0  0  0  0  0  0  0  0
   -2.5796    0.8347    5.8695 H   0  0  0  0  0  0  0  0  0  0  0  0
   -2.5309    3.2925    6.4029 H   0  0  0  0  0  0  0  0  0  0  0  0
   -0.7542    3.3537    5.9205 H   0  0  0  0  0  0  0  0  0  0  0  0
   -3.1417    2.5544    4.0685 H   0  0  0  0  0  0  0  0  0  0  0  0
   -0.7523    3.2442    2.8911 H   0  0  0  0  0  0  0  0  0  0  0  0
   -1.5583    1.7231    2.4561 H   0  0  0  0  0  0  0  0  0  0  0  0
    0.7019    1.7399    0.9887 H   0  0  0  0  0  0  0  0  0  0  0  0
    1.8552    2.4246    2.1400 H   0  0  0  0  0  0  0  0  0  0  0  0
    3.9618   -4.4089   -0.8484 H   0  0  0  0  0  0  0  0  0  0  0  0
    5.6802   -4.9051   -0.6553 H   0  0  0  0  0  0  0  0  0  0  0  0
    4.6859   -2.8331    1.5489 H   0  0  0  0  0  0  0  0  0  0  0  0
    0.6251    2.1477    4.2991 H   0  0  0  0  0  0  0  0  0  0  0  0
  1 20  1  0
  1  2  1  0
  1 21  1  0
  1 22  1  0
  2  3  1  0
  2 23  1  0
  2 24  1  0
  3  4  1  0
  3 20  1  0
  3 25  1  0
  4  9  1  0
  4  5  1  0
  4 49  1  1
  5  6  1  0
  5 26  1  0
  5 27  1  0
  6  7  1  0
  6 28  1  0
  6 29  1  0
  7 19  1  6
  7  8  1  0
  7 10  1  0
  8  9  1  0
  8 30  1  0
  8 31  1  0
  9 32  1  0
  9 33  1  0
 10 11  1  0
 10 34  1  0
 10 35  1  0
 11 12  1  0
 11 18  1  0
 11 36  1  6
 12 17  1  0
 12 13  1  0
 12 50  1  1
 13 14  1  0
 13 37  1  0
 13 38  1  0
 14 16  1  0
 14 15  1  0
 14 39  1  1
 15 16  1  0
 15 40  1  0
 15 41  1  0
 16 17  1  0
 16 42  1  6
 17 43  1  0
 17 44  1  0
 18 19  1  0
 18 45  1  0
 18 46  1  0
 20 47  1  0
 20 48  1  0
M  CHG  2   4   1  12   1
M  END
>  <i_m_ct_stereo_status>  (14) 
1

>  <s_m_source_file>  (14) 
/var/tmp/pbs.5076255.sched01/tmp9s019jnz/08u7fdliu.sdf

>  <i_m_source_file_index>  (14) 
6

>  <i_lp_mmshare_version>  (14) 
48012

>  <i_f3d_flags>  (14) 
0

>  <s_epik_input>  (14) 
W0NIMl0xW0NIMl1bQ0gyXVtDSF0xTihbQ0gyXVtDSDJdMilbQ0gyXVtDSDJdQzIzW0NIMl1bQ0BIXShbQ0gyXU8zKU4oW0NIMl00KVtDSDJdW0NAQEhdKFtDQEBIXTQ1KVtDSDJdNQ==

>  <s_epik_cmdline>  (14) 
J2VwaWtfcHl0aG9uJywgJy1waHQnLCAnMi4wJywgJy1waCcsICc3LjAnLCAnLXRuJywgJzgnLCAnLW1hJywgJzIwMCcsICctaW1hZScsICc8aW5maWxlLm1hZT4nLCAnLW9tYWUnLCAnPG91dGZpbGUubWFlPic=

>  <r_epik_Ionization_Penalty>  (14) 
0.0149146

>  <r_epik_Ionization_Penalty_Charging>  (14) 
0.0149146

>  <r_epik_Ionization_Penalty_Neutral>  (14) 
2.23649e-15

>  <r_epik_State_Penalty>  (14) 
0.00690108

>  <r_epik_Charging_Adjusted_Penalty>  (14) 
0.0218156

>  <i_epik_Tot_Q>  (14) 
2

>  <i_epik_Tot_abs_Q>  (14) 
2

>  <s_lp_Force_Field>  (14) 
OPLS3e

>  <r_lp_Energy>  (14) 
45.306

>  <b_lp_Chiralities_Consistent>  (14) 
1

>  <s_lp_Variant>  (14) 
5:0-1

>  <s_i_glide_gridfile>  (14) 
pfpi4k_grid

>  <i_i_glide_lignum>  (14) 
6

>  <i_i_glide_rotatable_bonds>  (14) 
2

>  <r_i_docking_score>  (14) 
-3.42187

>  <r_i_glide_ligand_efficiency>  (14) 
-0.171093

>  <r_i_glide_ligand_efficiency_sa>  (14) 
-0.464419

>  <r_i_glide_ligand_efficiency_ln>  (14) 
-0.856381

>  <r_i_glide_gscore>  (14) 
-3.42187

>  <r_i_glide_lipo>  (14) 
-0.40131

>  <r_i_glide_hbond>  (14) 
0

>  <r_i_glide_metal>  (14) 
-0

>  <r_i_glide_rewards>  (14) 
-1.51068

>  <r_i_glide_evdw>  (14) 
-23.5383

>  <r_i_glide_ecoul>  (14) 
-5.16607

>  <r_i_glide_erotb>  (14) 
0.465036

>  <r_i_glide_esite>  (14) 
-0.023085

>  <r_i_glide_emodel>  (14) 
-31.8837

>  <r_i_glide_energy>  (14) 
-28.7044

>  <r_i_glide_einternal>  (14) 
9.11577

>  <r_i_glide_intrahb_reward>  (14) 
-0

>  <i_i_glide_confnum>  (14) 
3

>  <i_i_glide_posenum>  (14) 
9

>  <r_i_glide_eff_state_penalty>  (14) 
0

>  <ligand_id>  (14) 
5

>  <original_smiles>  (14) 
C1CC(N2CCC3(CC2)CC(N2CC4CC4C2)CO3)C1

>  <smiles>  (14) 
[H]C1([H])OC2(C([H])([H])C([H])([H])[N+]([H])(C3([H])C([H])([H])C([H])([H])C3([H])[H])C([H])([H])C2([H])[H])C([H])([H])C1([H])[N+]1([H])C([H])([H])C2([H])C([H])([H])C2([H])C1([H])[H]

$$$$
5:0:2
     RDKit          3D

 50 54  0  0  1  0  0  0  0  0999 V2000
   -2.8602    2.9691    4.3668 C   0  0  0  0  0  0  0  0  0  0  0  0
   -1.8219    1.9112    4.7277 C   0  0  0  0  0  0  0  0  0  0  0  0
   -0.7518    2.9516    4.3722 C   0  0  0  0  0  0  0  0  0  0  0  0
    0.4305    2.4314    3.6361 N   0  0  2  0  0  0  0  0  0  0  0  0
    0.1195    1.5875    2.4418 C   0  0  0  0  0  0  0  0  0  0  0  0
    1.3883    1.2101    1.7068 C   0  0  0  0  0  0  0  0  0  0  0  0
    2.3915    0.4803    2.6117 C   0  0  2  0  0  0  0  0  0  0  0  0
    2.6713    1.3223    3.8640 C   0  0  0  0  0  0  0  0  0  0  0  0
    1.3692    1.7340    4.5608 C   0  0  0  0  0  0  0  0  0  0  0  0
    3.6545    0.1474    1.8293 C   0  0  0  0  0  0  0  0  0  0  0  0
    3.2763   -1.1657    1.1971 C   0  0  1  0  0  0  0  0  0  0  0  0
    4.4187   -1.9046    0.6450 N   0  0  2  0  0  0  0  0  0  0  0  0
    5.1326   -1.1598   -0.4275 C   0  0  0  0  0  0  0  0  0  0  0  0
    5.7902   -2.2119   -1.2775 C   0  0  1  0  0  0  0  0  0  0  0  0
    6.6081   -3.3366   -0.6797 C   0  0  0  0  0  0  0  0  0  0  0  0
    5.1273   -3.5198   -0.9523 C   0  0  1  0  0  0  0  0  0  0  0  0
    4.0731   -3.2383    0.0849 C   0  0  0  0  0  0  0  0  0  0  0  0
    2.5353   -1.8513    2.3425 C   0  0  0  0  0  0  0  0  0  0  0  0
    1.8409   -0.7885    2.9873 O   0  0  0  0  0  0  0  0  0  0  0  0
   -1.7976    3.7370    3.5757 C   0  0  0  0  0  0  0  0  0  0  0  0
   -3.2274    3.4995    5.2467 H   0  0  0  0  0  0  0  0  0  0  0  0
   -3.6643    2.5890    3.7417 H   0  0  0  0  0  0  0  0  0  0  0  0
   -1.8247    1.6130    5.7790 H   0  0  0  0  0  0  0  0  0  0  0  0
   -1.9137    1.0530    4.0603 H   0  0  0  0  0  0  0  0  0  0  0  0
   -0.4708    3.5301    5.2534 H   0  0  0  0  0  0  0  0  0  0  0  0
   -0.3821    0.6614    2.7268 H   0  0  0  0  0  0  0  0  0  0  0  0
   -0.5178    2.1059    1.7266 H   0  0  0  0  0  0  0  0  0  0  0  0
    1.0948    0.5809    0.8731 H   0  0  0  0  0  0  0  0  0  0  0  0
    1.8392    2.1100    1.2833 H   0  0  0  0  0  0  0  0  0  0  0  0
    3.3010    0.7634    4.5521 H   0  0  0  0  0  0  0  0  0  0  0  0
    3.2408    2.2091    3.5877 H   0  0  0  0  0  0  0  0  0  0  0  0
    1.6128    2.3713    5.4122 H   0  0  0  0  0  0  0  0  0  0  0  0
    0.8787    0.8483    4.9653 H   0  0  0  0  0  0  0  0  0  0  0  0
    3.8914    0.9147    1.0876 H   0  0  0  0  0  0  0  0  0  0  0  0
    4.5142    0.0331    2.4883 H   0  0  0  0  0  0  0  0  0  0  0  0
    2.6010   -0.9659    0.3819 H   0  0  0  0  0  0  0  0  0  0  0  0
    4.4168   -0.6143   -1.0467 H   0  0  0  0  0  0  0  0  0  0  0  0
    5.8539   -0.4467   -0.0264 H   0  0  0  0  0  0  0  0  0  0  0  0
    5.9510   -1.9636   -2.3225 H   0  0  0  0  0  0  0  0  0  0  0  0
    7.3066   -3.8464   -1.3390 H   0  0  0  0  0  0  0  0  0  0  0  0
    6.9252   -3.2449    0.3575 H   0  0  0  0  0  0  0  0  0  0  0  0
    4.8399   -4.1734   -1.7722 H   0  0  0  0  0  0  0  0  0  0  0  0
    4.0393   -4.0154    0.8498 H   0  0  0  0  0  0  0  0  0  0  0  0
    3.1020   -3.1928   -0.4127 H   0  0  0  0  0  0  0  0  0  0  0  0
    1.8510   -2.6358    2.0165 H   0  0  0  0  0  0  0  0  0  0  0  0
    3.2341   -2.2877    3.0569 H   0  0  0  0  0  0  0  0  0  0  0  0
   -1.8455    3.5344    2.5089 H   0  0  0  0  0  0  0  0  0  0  0  0
   -1.7741    4.8041    3.7759 H   0  0  0  0  0  0  0  0  0  0  0  0
    0.9220    3.2488    3.2844 H   0  0  0  0  0  0  0  0  0  0  0  0
    5.0923   -2.0661    1.3805 H   0  0  0  0  0  0  0  0  0  0  0  0
  1 20  1  0
  1  2  1  0
  1 21  1  0
  1 22  1  0
  2  3  1  0
  2 23  1  0
  2 24  1  0
  3  4  1  0
  3 20  1  0
  3 25  1  0
  4  9  1  0
  4  5  1  0
  4 49  1  6
  5  6  1  0
  5 26  1  0
  5 27  1  0
  6  7  1  0
  6 28  1  0
  6 29  1  0
  7 19  1  1
  7  8  1  0
  7 10  1  0
  8  9  1  0
  8 30  1  0
  8 31  1  0
  9 32  1  0
  9 33  1  0
 10 11  1  0
 10 34  1  0
 10 35  1  0
 11 12  1  0
 11 18  1  0
 11 36  1  6
 12 17  1  0
 12 13  1  0
 12 50  1  1
 13 14  1  0
 13 37  1  0
 13 38  1  0
 14 16  1  0
 14 15  1  0
 14 39  1  6
 15 16  1  0
 15 40  1  0
 15 41  1  0
 16 17  1  0
 16 42  1  6
 17 43  1  0
 17 44  1  0
 18 19  1  0
 18 45  1  0
 18 46  1  0
 20 47  1  0
 20 48  1  0
M  CHG  2   4   1  12   1
M  END
>  <i_m_ct_stereo_status>  (15) 
1

>  <s_m_source_file>  (15) 
/var/tmp/pbs.5076255.sched01/tmp9s019jnz/08u7fdliu.sdf

>  <i_m_source_file_index>  (15) 
6

>  <i_lp_mmshare_version>  (15) 
48012

>  <i_f3d_flags>  (15) 
0

>  <s_epik_input>  (15) 
W0NIMl0xW0NIMl1bQ0gyXVtDSF0xTihbQ0gyXVtDSDJdMilbQ0gyXVtDSDJdQzIzW0NIMl1bQ0BIXShbQ0gyXU8zKU4oW0NIMl00KVtDSDJdW0NAQEhdKFtDQEBIXTQ1KVtDSDJdNQ==

>  <s_epik_cmdline>  (15) 
J2VwaWtfcHl0aG9uJywgJy1waHQnLCAnMi4wJywgJy1waCcsICc3LjAnLCAnLXRuJywgJzgnLCAnLW1hJywgJzIwMCcsICctaW1hZScsICc8aW5maWxlLm1hZT4nLCAnLW9tYWUnLCAnPG91dGZpbGUubWFlPic=

>  <r_epik_Ionization_Penalty>  (15) 
0.0149146

>  <r_epik_Ionization_Penalty_Charging>  (15) 
0.0149146

>  <r_epik_Ionization_Penalty_Neutral>  (15) 
2.23649e-15

>  <r_epik_State_Penalty>  (15) 
0.00690108

>  <r_epik_Charging_Adjusted_Penalty>  (15) 
0.0218156

>  <i_epik_Tot_Q>  (15) 
2

>  <i_epik_Tot_abs_Q>  (15) 
2

>  <s_lp_Force_Field>  (15) 
OPLS3e

>  <r_lp_Energy>  (15) 
45.306

>  <b_lp_Chiralities_Consistent>  (15) 
1

>  <s_lp_Variant>  (15) 
5:0-1

>  <s_i_glide_gridfile>  (15) 
pfpi4k_grid

>  <i_i_glide_lignum>  (15) 
6

>  <i_i_glide_rotatable_bonds>  (15) 
2

>  <r_i_docking_score>  (15) 
-3.30339

>  <r_i_glide_ligand_efficiency>  (15) 
-0.16517

>  <r_i_glide_ligand_efficiency_sa>  (15) 
-0.448339

>  <r_i_glide_ligand_efficiency_ln>  (15) 
-0.82673

>  <r_i_glide_gscore>  (15) 
-3.30339

>  <r_i_glide_lipo>  (15) 
-0.233146

>  <r_i_glide_hbond>  (15) 
0

>  <r_i_glide_metal>  (15) 
-0

>  <r_i_glide_rewards>  (15) 
-1.51068

>  <r_i_glide_evdw>  (15) 
-23.7177

>  <r_i_glide_ecoul>  (15) 
-5.25336

>  <r_i_glide_erotb>  (15) 
0.465036

>  <r_i_glide_esite>  (15) 
-0.0507113

>  <r_i_glide_emodel>  (15) 
-31.8127

>  <r_i_glide_energy>  (15) 
-28.971

>  <r_i_glide_einternal>  (15) 
9.12365

>  <r_i_glide_intrahb_reward>  (15) 
-0

>  <i_i_glide_confnum>  (15) 
3

>  <i_i_glide_posenum>  (15) 
16

>  <r_i_glide_eff_state_penalty>  (15) 
0

>  <ligand_id>  (15) 
5

>  <original_smiles>  (15) 
C1CC(N2CCC3(CC2)CC(N2CC4CC4C2)CO3)C1

>  <smiles>  (15) 
[H]C1([H])OC2(C([H])([H])C([H])([H])[N+]([H])(C3([H])C([H])([H])C([H])([H])C3([H])[H])C([H])([H])C2([H])[H])C([H])([H])C1([H])[N+]1([H])C([H])([H])C2([H])C([H])([H])C2([H])C1([H])[H]

$$$$
5:1:0
     RDKit          3D

 50 54  0  0  1  0  0  0  0  0999 V2000
    1.4331   -9.9594    2.7761 C   0  0  0  0  0  0  0  0  0  0  0  0
    1.1683   -8.5182    3.2155 C   0  0  0  0  0  0  0  0  0  0  0  0
    1.9480   -8.0904    1.9700 C   0  0  0  0  0  0  0  0  0  0  0  0
    2.8505   -6.9181    2.1747 N   0  0  2  0  0  0  0  0  0  0  0  0
    2.0812   -5.6745    2.4510 C   0  0  0  0  0  0  0  0  0  0  0  0
    2.9924   -4.4588    2.6951 C   0  0  0  0  0  0  0  0  0  0  0  0
    3.9314   -4.2496    1.4993 C   0  0  1  0  0  0  0  0  0  0  0  0
    4.7467   -5.5426    1.2711 C   0  0  0  0  0  0  0  0  0  0  0  0
    3.8246   -6.7630    1.0604 C   0  0  0  0  0  0  0  0  0  0  0  0
    3.2137   -3.7647    0.2370 C   0  0  0  0  0  0  0  0  0  0  0  0
    4.3070   -2.9837   -0.4256 C   0  0  1  0  0  0  0  0  0  0  0  0
    3.7868   -2.1244   -1.5218 N   0  0  2  0  0  0  0  0  0  0  0  0
    2.9770   -2.8435   -2.5367 C   0  0  0  0  0  0  0  0  0  0  0  0
    3.1155   -2.0503   -3.8137 C   0  0  1  0  0  0  0  0  0  0  0  0
    2.9589   -0.5453   -3.8690 C   0  0  0  0  0  0  0  0  0  0  0  0
    4.2858   -1.1532   -3.6320 C   0  0  1  0  0  0  0  0  0  0  0  0
    4.8405   -1.3856   -2.2468 C   0  0  0  0  0  0  0  0  0  0  0  0
    4.9059   -2.2408    0.7575 C   0  0  0  0  0  0  0  0  0  0  0  0
    4.8607   -3.2074    1.7977 O   0  0  0  0  0  0  0  0  0  0  0  0
    2.6593   -9.4430    2.0155 C   0  0  0  0  0  0  0  0  0  0  0  0
    0.6604  -10.3358    2.1061 H   0  0  0  0  0  0  0  0  0  0  0  0
    1.6632  -10.6447    3.5900 H   0  0  0  0  0  0  0  0  0  0  0  0
    0.1210   -8.2212    3.2015 H   0  0  0  0  0  0  0  0  0  0  0  0
    1.6587   -8.2664    4.1576 H   0  0  0  0  0  0  0  0  0  0  0  0
    1.2916   -8.0261    1.0975 H   0  0  0  0  0  0  0  0  0  0  0  0
    1.4319   -5.4711    1.6002 H   0  0  0  0  0  0  0  0  0  0  0  0
    1.4244   -5.7980    3.3149 H   0  0  0  0  0  0  0  0  0  0  0  0
    2.3919   -3.5713    2.8660 H   0  0  0  0  0  0  0  0  0  0  0  0
    3.5641   -4.5989    3.6118 H   0  0  0  0  0  0  0  0  0  0  0  0
    5.4134   -5.4673    0.4123 H   0  0  0  0  0  0  0  0  0  0  0  0
    5.4127   -5.7319    2.1165 H   0  0  0  0  0  0  0  0  0  0  0  0
    4.4365   -7.6650    0.9362 H   0  0  0  0  0  0  0  0  0  0  0  0
    3.2649   -6.6609    0.1275 H   0  0  0  0  0  0  0  0  0  0  0  0
    2.8263   -4.5449   -0.4120 H   0  0  0  0  0  0  0  0  0  0  0  0
    2.3870   -3.0967    0.4796 H   0  0  0  0  0  0  0  0  0  0  0  0
    5.0460   -3.6763   -0.8295 H   0  0  0  0  0  0  0  0  0  0  0  0
    3.3961   -3.8339   -2.7155 H   0  0  0  0  0  0  0  0  0  0  0  0
    1.9246   -2.9543   -2.2532 H   0  0  0  0  0  0  0  0  0  0  0  0
    3.0082   -2.6173   -4.7403 H   0  0  0  0  0  0  0  0  0  0  0  0
    2.7490   -0.1143   -4.8436 H   0  0  0  0  0  0  0  0  0  0  0  0
    2.4731   -0.0630   -3.0275 H   0  0  0  0  0  0  0  0  0  0  0  0
    4.9959   -1.0588   -4.4520 H   0  0  0  0  0  0  0  0  0  0  0  0
    5.1135   -0.4430   -1.7665 H   0  0  0  0  0  0  0  0  0  0  0  0
    5.7338   -2.0054   -2.3401 H   0  0  0  0  0  0  0  0  0  0  0  0
    5.9189   -1.8822    0.5815 H   0  0  0  0  0  0  0  0  0  0  0  0
    4.2872   -1.3837    1.0357 H   0  0  0  0  0  0  0  0  0  0  0  0
    3.5723   -9.4540    2.6206 H   0  0  0  0  0  0  0  0  0  0  0  0
    2.8197   -9.8857    1.0287 H   0  0  0  0  0  0  0  0  0  0  0  0
    3.3878   -7.1307    3.0079 H   0  0  0  0  0  0  0  0  0  0  0  0
    3.1385   -1.4377   -1.1332 H   0  0  0  0  0  0  0  0  0  0  0  0
  1 20  1  0
  1  2  1  0
  1 21  1  0
  1 22  1  0
  2  3  1  0
  2 23  1  0
  2 24  1  0
  3  4  1  0
  3 20  1  0
  3 25  1  0
  4  9  1  0
  4  5  1  0
  4 49  1  1
  5  6  1  0
  5 26  1  0
  5 27  1  0
  6  7  1  0
  6 28  1  0
  6 29  1  0
  7 19  1  1
  7  8  1  0
  7 10  1  0
  8  9  1  0
  8 30  1  0
  8 31  1  0
  9 32  1  0
  9 33  1  0
 10 11  1  0
 10 34  1  0
 10 35  1  0
 11 12  1  0
 11 18  1  0
 11 36  1  6
 12 17  1  0
 12 13  1  0
 12 50  1  1
 13 14  1  0
 13 37  1  0
 13 38  1  0
 14 16  1  0
 14 15  1  0
 14 39  1  6
 15 16  1  0
 15 40  1  0
 15 41  1  0
 16 17  1  0
 16 42  1  6
 17 43  1  0
 17 44  1  0
 18 19  1  0
 18 45  1  0
 18 46  1  0
 20 47  1  0
 20 48  1  0
M  CHG  2   4   1  12   1
M  END
>  <i_m_ct_stereo_status>  (16) 
1

>  <s_m_source_file>  (16) 
/var/tmp/pbs.5076255.sched01/tmp9s019jnz/08u7fdliu.sdf

>  <i_m_source_file_index>  (16) 
7

>  <i_lp_mmshare_version>  (16) 
48012

>  <i_f3d_flags>  (16) 
0

>  <s_epik_input>  (16) 
W0NIMl0xW0NIMl1bQ0gyXVtDSF0xTihbQ0gyXVtDSDJdMilbQ0gyXVtDSDJdQzIzW0NIMl1bQ0BIXShbQ0gyXU8zKU4oW0NIMl00KVtDSDJdW0NAQEhdKFtDQEBIXTQ1KVtDSDJdNQ==

>  <s_epik_cmdline>  (16) 
J2VwaWtfcHl0aG9uJywgJy1waHQnLCAnMi4wJywgJy1waCcsICc3LjAnLCAnLXRuJywgJzgnLCAnLW1hJywgJzIwMCcsICctaW1hZScsICc8aW5maWxlLm1hZT4nLCAnLW9tYWUnLCAnPG91dGZpbGUubWFlPic=

>  <r_epik_Ionization_Penalty>  (16) 
0.0149146

>  <r_epik_Ionization_Penalty_Charging>  (16) 
0.0149146

>  <r_epik_Ionization_Penalty_Neutral>  (16) 
2.23649e-15

>  <r_epik_State_Penalty>  (16) 
0.00690108

>  <r_epik_Charging_Adjusted_Penalty>  (16) 
0.0218156

>  <i_epik_Tot_Q>  (16) 
2

>  <i_epik_Tot_abs_Q>  (16) 
2

>  <s_lp_Force_Field>  (16) 
OPLS3e

>  <r_lp_Energy>  (16) 
47.5878

>  <b_lp_Chiralities_Consistent>  (16) 
1

>  <s_lp_Variant>  (16) 
5:0-2

>  <s_i_glide_gridfile>  (16) 
pfpi4k_grid

>  <i_i_glide_lignum>  (16) 
7

>  <i_i_glide_rotatable_bonds>  (16) 
2

>  <r_i_docking_score>  (16) 
-3.91741

>  <r_i_glide_ligand_efficiency>  (16) 
-0.19587

>  <r_i_glide_ligand_efficiency_sa>  (16) 
-0.531674

>  <r_i_glide_ligand_efficiency_ln>  (16) 
-0.980398

>  <r_i_glide_gscore>  (16) 
-3.91741

>  <r_i_glide_lipo>  (16) 
-0.845624

>  <r_i_glide_hbond>  (16) 
0

>  <r_i_glide_metal>  (16) 
-0

>  <r_i_glide_rewards>  (16) 
-1.51068

>  <r_i_glide_evdw>  (16) 
-25.3898

>  <r_i_glide_ecoul>  (16) 
-4.72442

>  <r_i_glide_erotb>  (16) 
0.465036

>  <r_i_glide_esite>  (16) 
-0.0479855

>  <r_i_glide_emodel>  (16) 
-38.6937

>  <r_i_glide_energy>  (16) 
-30.1142

>  <r_i_glide_einternal>  (16) 
0.281701

>  <r_i_glide_intrahb_reward>  (16) 
-0

>  <i_i_glide_confnum>  (16) 
2

>  <i_i_glide_posenum>  (16) 
33

>  <r_i_glide_eff_state_penalty>  (16) 
0

>  <ligand_id>  (16) 
5

>  <original_smiles>  (16) 
C1CC(N2CCC3(CC2)CC(N2CC4CC4C2)CO3)C1

>  <smiles>  (16) 
[H]C1([H])OC2(C([H])([H])C([H])([H])[N+]([H])(C3([H])C([H])([H])C([H])([H])C3([H])[H])C([H])([H])C2([H])[H])C([H])([H])C1([H])[N+]1([H])C([H])([H])C2([H])C([H])([H])C2([H])C1([H])[H]

$$$$
5:1:1
     RDKit          3D

 50 54  0  0  1  0  0  0  0  0999 V2000
   -0.9121   -8.3293    4.3037 C   0  0  0  0  0  0  0  0  0  0  0  0
   -0.1376   -7.0396    4.5762 C   0  0  0  0  0  0  0  0  0  0  0  0
    0.2946   -7.0941    3.1116 C   0  0  0  0  0  0  0  0  0  0  0  0
    1.7163   -6.6995    2.8764 N   0  0  2  0  0  0  0  0  0  0  0  0
    1.9571   -5.2751    3.2382 C   0  0  0  0  0  0  0  0  0  0  0  0
    3.4203   -4.8589    3.0114 C   0  0  0  0  0  0  0  0  0  0  0  0
    3.8337   -5.1137    1.5580 C   0  0  1  0  0  0  0  0  0  0  0  0
    3.5983   -6.6042    1.2239 C   0  0  0  0  0  0  0  0  0  0  0  0
    2.1361   -7.0266    1.4870 C   0  0  0  0  0  0  0  0  0  0  0  0
    3.1587   -4.1638    0.5566 C   0  0  0  0  0  0  0  0  0  0  0  0
    4.2010   -4.1053   -0.5254 C   0  0  1  0  0  0  0  0  0  0  0  0
    3.9446   -2.9917   -1.4855 N   0  0  2  0  0  0  0  0  0  0  0  0
    2.6116   -3.0512   -2.1310 C   0  0  0  0  0  0  0  0  0  0  0  0
    2.7634   -2.3097   -3.4332 C   0  0  1  0  0  0  0  0  0  0  0  0
    3.4177   -0.9555   -3.5378 C   0  0  0  0  0  0  0  0  0  0  0  0
    4.2328   -2.2100   -3.7013 C   0  0  1  0  0  0  0  0  0  0  0  0
    4.9559   -2.8770   -2.5546 C   0  0  0  0  0  0  0  0  0  0  0  0
    5.4731   -3.9768    0.2999 C   0  0  0  0  0  0  0  0  0  0  0  0
    5.2290   -4.8471    1.4089 O   0  0  0  0  0  0  0  0  0  0  0  0
    0.0650   -8.6087    3.1612 C   0  0  0  0  0  0  0  0  0  0  0  0
   -1.9272   -8.1453    3.9559 H   0  0  0  0  0  0  0  0  0  0  0  0
   -0.8680   -9.0575    5.1129 H   0  0  0  0  0  0  0  0  0  0  0  0
   -0.7570   -6.1704    4.8211 H   0  0  0  0  0  0  0  0  0  0  0  0
    0.6740   -7.1779    5.2930 H   0  0  0  0  0  0  0  0  0  0  0  0
   -0.4390   -6.6208    2.4633 H   0  0  0  0  0  0  0  0  0  0  0  0
    1.3093   -4.6363    2.6364 H   0  0  0  0  0  0  0  0  0  0  0  0
    1.6974   -5.0765    4.2789 H   0  0  0  0  0  0  0  0  0  0  0  0
    3.5533   -3.8060    3.2744 H   0  0  0  0  0  0  0  0  0  0  0  0
    4.0713   -5.4059    3.6970 H   0  0  0  0  0  0  0  0  0  0  0  0
    3.8485   -6.8307    0.1875 H   0  0  0  0  0  0  0  0  0  0  0  0
    4.2715   -7.2323    1.8088 H   0  0  0  0  0  0  0  0  0  0  0  0
    2.0240   -8.0942    1.2834 H   0  0  0  0  0  0  0  0  0  0  0  0
    1.4622   -6.5204    0.7922 H   0  0  0  0  0  0  0  0  0  0  0  0
    2.2012   -4.5025    0.1622 H   0  0  0  0  0  0  0  0  0  0  0  0
    3.0036   -3.1732    0.9849 H   0  0  0  0  0  0  0  0  0  0  0  0
    4.2227   -5.0508   -1.0571 H   0  0  0  0  0  0  0  0  0  0  0  0
    2.3043   -4.0699   -2.3627 H   0  0  0  0  0  0  0  0  0  0  0  0
    1.8191   -2.6501   -1.5156 H   0  0  0  0  0  0  0  0  0  0  0  0
    2.1023   -2.6219   -4.2478 H   0  0  0  0  0  0  0  0  0  0  0  0
    3.2098   -0.3613   -4.4382 H   0  0  0  0  0  0  0  0  0  0  0  0
    3.5402   -0.3736   -2.6237 H   0  0  0  0  0  0  0  0  0  0  0  0
    4.5844   -2.4663   -4.7012 H   0  0  0  0  0  0  0  0  0  0  0  0
    5.8374   -2.3194   -2.2565 H   0  0  0  0  0  0  0  0  0  0  0  0
    5.2609   -3.8734   -2.8795 H   0  0  0  0  0  0  0  0  0  0  0  0
    6.3719   -4.2700   -0.2433 H   0  0  0  0  0  0  0  0  0  0  0  0
    5.6096   -2.9655    0.6700 H   0  0  0  0  0  0  0  0  0  0  0  0
    0.9358   -9.1890    3.4729 H   0  0  0  0  0  0  0  0  0  0  0  0
   -0.3883   -9.0180    2.2506 H   0  0  0  0  0  0  0  0  0  0  0  0
    2.2732   -7.2657    3.4916 H   0  0  0  0  0  0  0  0  0  0  0  0
    3.9528   -2.1214   -0.9812 H   0  0  0  0  0  0  0  0  0  0  0  0
  1 20  1  0
  1  2  1  0
  1 21  1  0
  1 22  1  0
  2  3  1  0
  2 23  1  0
  2 24  1  0
  3  4  1  0
  3 20  1  0
  3 25  1  0
  4  9  1  0
  4  5  1  0
  4 49  1  1
  5  6  1  0
  5 26  1  0
  5 27  1  0
  6  7  1  0
  6 28  1  0
  6 29  1  0
  7 19  1  1
  7  8  1  0
  7 10  1  0
  8  9  1  0
  8 30  1  0
  8 31  1  0
  9 32  1  0
  9 33  1  0
 10 11  1  0
 10 34  1  0
 10 35  1  0
 11 12  1  0
 11 18  1  0
 11 36  1  6
 12 17  1  0
 12 13  1  0
 12 50  1  1
 13 14  1  0
 13 37  1  0
 13 38  1  0
 14 16  1  0
 14 15  1  0
 14 39  1  6
 15 16  1  0
 15 40  1  0
 15 41  1  0
 16 17  1  0
 16 42  1  6
 17 43  1  0
 17 44  1  0
 18 19  1  0
 18 45  1  0
 18 46  1  0
 20 47  1  0
 20 48  1  0
M  CHG  2   4   1  12   1
M  END
>  <i_m_ct_stereo_status>  (17) 
1

>  <s_m_source_file>  (17) 
/var/tmp/pbs.5076255.sched01/tmp9s019jnz/08u7fdliu.sdf

>  <i_m_source_file_index>  (17) 
7

>  <i_lp_mmshare_version>  (17) 
48012

>  <i_f3d_flags>  (17) 
0

>  <s_epik_input>  (17) 
W0NIMl0xW0NIMl1bQ0gyXVtDSF0xTihbQ0gyXVtDSDJdMilbQ0gyXVtDSDJdQzIzW0NIMl1bQ0BIXShbQ0gyXU8zKU4oW0NIMl00KVtDSDJdW0NAQEhdKFtDQEBIXTQ1KVtDSDJdNQ==

>  <s_epik_cmdline>  (17) 
J2VwaWtfcHl0aG9uJywgJy1waHQnLCAnMi4wJywgJy1waCcsICc3LjAnLCAnLXRuJywgJzgnLCAnLW1hJywgJzIwMCcsICctaW1hZScsICc8aW5maWxlLm1hZT4nLCAnLW9tYWUnLCAnPG91dGZpbGUubWFlPic=

>  <r_epik_Ionization_Penalty>  (17) 
0.0149146

>  <r_epik_Ionization_Penalty_Charging>  (17) 
0.0149146

>  <r_epik_Ionization_Penalty_Neutral>  (17) 
2.23649e-15

>  <r_epik_State_Penalty>  (17) 
0.00690108

>  <r_epik_Charging_Adjusted_Penalty>  (17) 
0.0218156

>  <i_epik_Tot_Q>  (17) 
2

>  <i_epik_Tot_abs_Q>  (17) 
2

>  <s_lp_Force_Field>  (17) 
OPLS3e

>  <r_lp_Energy>  (17) 
47.5878

>  <b_lp_Chiralities_Consistent>  (17) 
1

>  <s_lp_Variant>  (17) 
5:0-2

>  <s_i_glide_gridfile>  (17) 
pfpi4k_grid

>  <i_i_glide_lignum>  (17) 
7

>  <i_i_glide_rotatable_bonds>  (17) 
2

>  <r_i_docking_score>  (17) 
-3.79743

>  <r_i_glide_ligand_efficiency>  (17) 
-0.189872

>  <r_i_glide_ligand_efficiency_sa>  (17) 
-0.515391

>  <r_i_glide_ligand_efficiency_ln>  (17) 
-0.950372

>  <r_i_glide_gscore>  (17) 
-3.79743

>  <r_i_glide_lipo>  (17) 
-0.840298

>  <r_i_glide_hbond>  (17) 
0

>  <r_i_glide_metal>  (17) 
-0

>  <r_i_glide_rewards>  (17) 
-1.51068

>  <r_i_glide_evdw>  (17) 
-25.6695

>  <r_i_glide_ecoul>  (17) 
-3.96856

>  <r_i_glide_erotb>  (17) 
0.465036

>  <r_i_glide_esite>  (17) 
-0.0327287

>  <r_i_glide_emodel>  (17) 
-37.9842

>  <r_i_glide_energy>  (17) 
-29.638

>  <r_i_glide_einternal>  (17) 
0.173405

>  <r_i_glide_intrahb_reward>  (17) 
-0

>  <i_i_glide_confnum>  (17) 
1

>  <i_i_glide_posenum>  (17) 
18

>  <r_i_glide_eff_state_penalty>  (17) 
0

>  <ligand_id>  (17) 
5

>  <original_smiles>  (17) 
C1CC(N2CCC3(CC2)CC(N2CC4CC4C2)CO3)C1

>  <smiles>  (17) 
[H]C1([H])OC2(C([H])([H])C([H])([H])[N+]([H])(C3([H])C([H])([H])C([H])([H])C3([H])[H])C([H])([H])C2([H])[H])C([H])([H])C1([H])[N+]1([H])C([H])([H])C2([H])C([H])([H])C2([H])C1([H])[H]

$$$$
5:1:2
     RDKit          3D

 50 54  0  0  1  0  0  0  0  0999 V2000
    0.6091   -9.9056    4.1519 C   0  0  0  0  0  0  0  0  0  0  0  0
    1.3529   -8.6483    4.6133 C   0  0  0  0  0  0  0  0  0  0  0  0
    1.6187   -8.3704    3.1323 C   0  0  0  0  0  0  0  0  0  0  0  0
    2.9854   -7.8403    2.8400 N   0  0  2  0  0  0  0  0  0  0  0  0
    3.1781   -6.4769    3.4022 C   0  0  0  0  0  0  0  0  0  0  0  0
    4.5928   -5.9298    3.1349 C   0  0  0  0  0  0  0  0  0  0  0  0
    4.8835   -5.9267    1.6278 C   0  0  1  0  0  0  0  0  0  0  0  0
    4.6980   -7.3561    1.0784 C   0  0  0  0  0  0  0  0  0  0  0  0
    3.2970   -7.9122    1.3923 C   0  0  0  0  0  0  0  0  0  0  0  0
    4.0598   -4.8890    0.8609 C   0  0  0  0  0  0  0  0  0  0  0  0
    4.9745   -4.5824   -0.2886 C   0  0  1  0  0  0  0  0  0  0  0  0
    4.5725   -3.3581   -1.0448 N   0  0  2  0  0  0  0  0  0  0  0  0
    3.1140   -3.2204   -1.2810 C   0  0  0  0  0  0  0  0  0  0  0  0
    2.9843   -2.3677   -2.5189 C   0  0  1  0  0  0  0  0  0  0  0  0
    3.7187   -1.0615   -2.6832 C   0  0  0  0  0  0  0  0  0  0  0  0
    4.3208   -2.3497   -3.1925 C   0  0  1  0  0  0  0  0  0  0  0  0
    5.2474   -3.2037   -2.3479 C   0  0  0  0  0  0  0  0  0  0  0  0
    6.3157   -4.4962    0.4256 C   0  0  0  0  0  0  0  0  0  0  0  0
    6.2394   -5.5337    1.3981 O   0  0  0  0  0  0  0  0  0  0  0  0
    1.4559   -9.8695    2.8777 C   0  0  0  0  0  0  0  0  0  0  0  0
   -0.4477   -9.7139    3.9556 H   0  0  0  0  0  0  0  0  0  0  0  0
    0.7683  -10.7806    4.7802 H   0  0  0  0  0  0  0  0  0  0  0  0
    0.7331   -7.8947    5.0987 H   0  0  0  0  0  0  0  0  0  0  0  0
    2.2520   -8.8781    5.1895 H   0  0  0  0  0  0  0  0  0  0  0  0
    0.8090   -7.7996    2.6793 H   0  0  0  0  0  0  0  0  0  0  0  0
    2.4400   -5.8012    2.9686 H   0  0  0  0  0  0  0  0  0  0  0  0
    3.0004   -6.4694    4.4800 H   0  0  0  0  0  0  0  0  0  0  0  0
    4.6886   -4.9287    3.5410 H   0  0  0  0  0  0  0  0  0  0  0  0
    5.3330   -6.5279    3.6624 H   0  0  0  0  0  0  0  0  0  0  0  0
    4.8459   -7.4027    0.0015 H   0  0  0  0  0  0  0  0  0  0  0  0
    5.4555   -8.0238    1.4896 H   0  0  0  0  0  0  0  0  0  0  0  0
    3.2225   -8.9379    1.0184 H   0  0  0  0  0  0  0  0  0  0  0  0
    2.5261   -7.3413    0.8737 H   0  0  0  0  0  0  0  0  0  0  0  0
    3.0888   -5.2460    0.5325 H   0  0  0  0  0  0  0  0  0  0  0  0
    3.9024   -3.9895    1.4594 H   0  0  0  0  0  0  0  0  0  0  0  0
    4.9796   -5.4286   -0.9694 H   0  0  0  0  0  0  0  0  0  0  0  0
    2.6664   -4.1941   -1.4920 H   0  0  0  0  0  0  0  0  0  0  0  0
    2.5899   -2.7621   -0.4443 H   0  0  0  0  0  0  0  0  0  0  0  0
    2.0841   -2.5239   -3.1134 H   0  0  0  0  0  0  0  0  0  0  0  0
    3.3110   -0.3572   -3.4153 H   0  0  0  0  0  0  0  0  0  0  0  0
    4.1466   -0.6043   -1.7918 H   0  0  0  0  0  0  0  0  0  0  0  0
    4.3401   -2.5220   -4.2661 H   0  0  0  0  0  0  0  0  0  0  0  0
    6.2381   -2.7476   -2.2739 H   0  0  0  0  0  0  0  0  0  0  0  0
    5.3466   -4.1680   -2.8451 H   0  0  0  0  0  0  0  0  0  0  0  0
    7.1757   -4.6198   -0.2310 H   0  0  0  0  0  0  0  0  0  0  0  0
    6.4271   -3.5379    0.9439 H   0  0  0  0  0  0  0  0  0  0  0  0
    2.3845  -10.4428    2.9639 H   0  0  0  0  0  0  0  0  0  0  0  0
    0.9180  -10.1074    1.9573 H   0  0  0  0  0  0  0  0  0  0  0  0
    3.6305   -8.4596    3.3101 H   0  0  0  0  0  0  0  0  0  0  0  0
    4.8161   -2.5468   -0.4851 H   0  0  0  0  0  0  0  0  0  0  0  0
  1 20  1  0
  1  2  1  0
  1 21  1  0
  1 22  1  0
  2  3  1  0
  2 23  1  0
  2 24  1  0
  3  4  1  0
  3 20  1  0
  3 25  1  0
  4  9  1  0
  4  5  1  0
  4 49  1  1
  5  6  1  0
  5 26  1  0
  5 27  1  0
  6  7  1  0
  6 28  1  0
  6 29  1  0
  7 19  1  1
  7  8  1  0
  7 10  1  0
  8  9  1  0
  8 30  1  0
  8 31  1  0
  9 32  1  0
  9 33  1  0
 10 11  1  0
 10 34  1  0
 10 35  1  0
 11 12  1  0
 11 18  1  0
 11 36  1  6
 12 17  1  0
 12 13  1  0
 12 50  1  1
 13 14  1  0
 13 37  1  0
 13 38  1  0
 14 16  1  0
 14 15  1  0
 14 39  1  6
 15 16  1  0
 15 40  1  0
 15 41  1  0
 16 17  1  0
 16 42  1  6
 17 43  1  0
 17 44  1  0
 18 19  1  0
 18 45  1  0
 18 46  1  0
 20 47  1  0
 20 48  1  0
M  CHG  2   4   1  12   1
M  END
>  <i_m_ct_stereo_status>  (18) 
1

>  <s_m_source_file>  (18) 
/var/tmp/pbs.5076255.sched01/tmp9s019jnz/08u7fdliu.sdf

>  <i_m_source_file_index>  (18) 
7

>  <i_lp_mmshare_version>  (18) 
48012

>  <i_f3d_flags>  (18) 
0

>  <s_epik_input>  (18) 
W0NIMl0xW0NIMl1bQ0gyXVtDSF0xTihbQ0gyXVtDSDJdMilbQ0gyXVtDSDJdQzIzW0NIMl1bQ0BIXShbQ0gyXU8zKU4oW0NIMl00KVtDSDJdW0NAQEhdKFtDQEBIXTQ1KVtDSDJdNQ==

>  <s_epik_cmdline>  (18) 
J2VwaWtfcHl0aG9uJywgJy1waHQnLCAnMi4wJywgJy1waCcsICc3LjAnLCAnLXRuJywgJzgnLCAnLW1hJywgJzIwMCcsICctaW1hZScsICc8aW5maWxlLm1hZT4nLCAnLW9tYWUnLCAnPG91dGZpbGUubWFlPic=

>  <r_epik_Ionization_Penalty>  (18) 
0.0149146

>  <r_epik_Ionization_Penalty_Charging>  (18) 
0.0149146

>  <r_epik_Ionization_Penalty_Neutral>  (18) 
2.23649e-15

>  <r_epik_State_Penalty>  (18) 
0.00690108

>  <r_epik_Charging_Adjusted_Penalty>  (18) 
0.0218156

>  <i_epik_Tot_Q>  (18) 
2

>  <i_epik_Tot_abs_Q>  (18) 
2

>  <s_lp_Force_Field>  (18) 
OPLS3e

>  <r_lp_Energy>  (18) 
47.5878

>  <b_lp_Chiralities_Consistent>  (18) 
1

>  <s_lp_Variant>  (18) 
5:0-2

>  <s_i_glide_gridfile>  (18) 
pfpi4k_grid

>  <i_i_glide_lignum>  (18) 
7

>  <i_i_glide_rotatable_bonds>  (18) 
2

>  <r_i_docking_score>  (18) 
-3.62849

>  <r_i_glide_ligand_efficiency>  (18) 
-0.181425

>  <r_i_glide_ligand_efficiency_sa>  (18) 
-0.492462

>  <r_i_glide_ligand_efficiency_ln>  (18) 
-0.908092

>  <r_i_glide_gscore>  (18) 
-3.62849

>  <r_i_glide_lipo>  (18) 
-0.767815

>  <r_i_glide_hbond>  (18) 
0

>  <r_i_glide_metal>  (18) 
-0

>  <r_i_glide_rewards>  (18) 
-1.51068

>  <r_i_glide_evdw>  (18) 
-24.9099

>  <r_i_glide_ecoul>  (18) 
-3.77617

>  <r_i_glide_erotb>  (18) 
0.465036

>  <r_i_glide_esite>  (18) 
-0.00310766

>  <r_i_glide_emodel>  (18) 
-35.9924

>  <r_i_glide_energy>  (18) 
-28.6861

>  <r_i_glide_einternal>  (18) 
1.39392

>  <r_i_glide_intrahb_reward>  (18) 
-0

>  <i_i_glide_confnum>  (18) 
2

>  <i_i_glide_posenum>  (18) 
32

>  <r_i_glide_eff_state_penalty>  (18) 
0

>  <ligand_id>  (18) 
5

>  <original_smiles>  (18) 
C1CC(N2CCC3(CC2)CC(N2CC4CC4C2)CO3)C1

>  <smiles>  (18) 
[H]C1([H])OC2(C([H])([H])C([H])([H])[N+]([H])(C3([H])C([H])([H])C([H])([H])C3([H])[H])C([H])([H])C2([H])[H])C([H])([H])C1([H])[N+]1([H])C([H])([H])C2([H])C([H])([H])C2([H])C1([H])[H]

$$$$
5:3:0
     RDKit          3D

 50 54  0  0  1  0  0  0  0  0999 V2000
    3.6034   -3.0505   -3.9112 C   0  0  0  0  0  0  0  0  0  0  0  0
    4.9390   -2.9486   -3.1374 C   0  0  0  0  0  0  0  0  0  0  0  0
    4.1189   -3.2000   -1.8879 C   0  0  0  0  0  0  0  0  0  0  0  0
    4.5604   -2.4669   -0.6538 N   0  0  2  0  0  0  0  0  0  0  0  0
    4.1082   -3.1442    0.5823 C   0  0  0  0  0  0  0  0  0  0  0  0
    4.6092   -2.4254    1.8544 C   0  0  0  0  0  0  0  0  0  0  0  0
    4.1544   -0.9566    1.8492 C   0  0  1  0  0  0  0  0  0  0  0  0
    4.6690   -0.2785    0.5733 C   0  0  0  0  0  0  0  0  0  0  0  0
    4.1636   -1.0214   -0.6844 C   0  0  0  0  0  0  0  0  0  0  0  0
    2.6304   -0.7953    2.0436 C   0  0  0  0  0  0  0  0  0  0  0  0
    2.5638    0.5504    2.7137 C   0  0  1  0  0  0  0  0  0  0  0  0
    1.2254    0.8227    3.3054 N   0  0  1  0  0  0  0  0  0  0  0  0
    1.2280    1.8829    4.3237 C   0  0  0  0  0  0  0  0  0  0  0  0
   -0.2178    2.3104    4.4046 C   0  0  1  0  0  0  0  0  0  0  0  0
   -0.8104    3.3262    3.4683 C   0  0  0  0  0  0  0  0  0  0  0  0
   -0.8772    1.8619    3.1260 C   0  0  1  0  0  0  0  0  0  0  0  0
    0.1931    1.1673    2.3129 C   0  0  0  0  0  0  0  0  0  0  0  0
    3.7267    0.4405    3.6885 C   0  0  0  0  0  0  0  0  0  0  0  0
    4.7337   -0.2806    2.9771 O   0  0  0  0  0  0  0  0  0  0  0  0
    2.8714   -2.7123   -2.6152 C   0  0  0  0  0  0  0  0  0  0  0  0
    3.3851   -4.0618   -4.2827 H   0  0  0  0  0  0  0  0  0  0  0  0
    3.4798   -2.2908   -4.6867 H   0  0  0  0  0  0  0  0  0  0  0  0
    5.6610   -3.7250   -3.3778 H   0  0  0  0  0  0  0  0  0  0  0  0
    5.3887   -1.9595   -3.1645 H   0  0  0  0  0  0  0  0  0  0  0  0
    4.0979   -4.2700   -1.6934 H   0  0  0  0  0  0  0  0  0  0  0  0
    3.0181   -3.1967    0.6023 H   0  0  0  0  0  0  0  0  0  0  0  0
    4.4708   -4.1769    0.6025 H   0  0  0  0  0  0  0  0  0  0  0  0
    4.2551   -2.9306    2.7456 H   0  0  0  0  0  0  0  0  0  0  0  0
    5.6946   -2.4684    1.9096 H   0  0  0  0  0  0  0  0  0  0  0  0
    4.3247    0.7467    0.5167 H   0  0  0  0  0  0  0  0  0  0  0  0
    5.7501   -0.1927    0.5899 H   0  0  0  0  0  0  0  0  0  0  0  0
    4.5443   -0.5126   -1.5606 H   0  0  0  0  0  0  0  0  0  0  0  0
    3.0781   -0.9456   -0.7383 H   0  0  0  0  0  0  0  0  0  0  0  0
    2.0266   -0.8240    1.1390 H   0  0  0  0  0  0  0  0  0  0  0  0
    2.2402   -1.5637    2.7165 H   0  0  0  0  0  0  0  0  0  0  0  0
    2.8022    1.3336    1.9972 H   0  0  0  0  0  0  0  0  0  0  0  0
    1.5858    1.5311    5.2902 H   0  0  0  0  0  0  0  0  0  0  0  0
    1.8373    2.7210    3.9928 H   0  0  0  0  0  0  0  0  0  0  0  0
   -0.7480    2.0843    5.3302 H   0  0  0  0  0  0  0  0  0  0  0  0
   -1.7328    3.8234    3.7712 H   0  0  0  0  0  0  0  0  0  0  0  0
   -0.1211    3.9530    2.8955 H   0  0  0  0  0  0  0  0  0  0  0  0
   -1.8335    1.3497    3.2240 H   0  0  0  0  0  0  0  0  0  0  0  0
    0.5759    1.8586    1.5615 H   0  0  0  0  0  0  0  0  0  0  0  0
   -0.2106    0.2925    1.7965 H   0  0  0  0  0  0  0  0  0  0  0  0
    4.1008    1.4069    4.0261 H   0  0  0  0  0  0  0  0  0  0  0  0
    3.4515   -0.1511    4.5639 H   0  0  0  0  0  0  0  0  0  0  0  0
    2.6690   -1.6421   -2.5612 H   0  0  0  0  0  0  0  0  0  0  0  0
    1.9841   -3.3150   -2.4329 H   0  0  0  0  0  0  0  0  0  0  0  0
    5.5656   -2.5157   -0.6356 H   0  0  0  0  0  0  0  0  0  0  0  0
    0.9311   -0.0281    3.7676 H   0  0  0  0  0  0  0  0  0  0  0  0
  1 20  1  0
  1  2  1  0
  1 21  1  0
  1 22  1  0
  2  3  1  0
  2 23  1  0
  2 24  1  0
  3  4  1  0
  3 20  1  0
  3 25  1  0
  4  9  1  0
  4  5  1  0
  4 49  1  1
  5  6  1  0
  5 26  1  0
  5 27  1  0
  6  7  1  0
  6 28  1  0
  6 29  1  0
  7 19  1  1
  7  8  1  0
  7 10  1  0
  8  9  1  0
  8 30  1  0
  8 31  1  0
  9 32  1  0
  9 33  1  0
 10 11  1  0
 10 34  1  0
 10 35  1  0
 11 12  1  0
 11 18  1  0
 11 36  1  6
 12 17  1  0
 12 13  1  0
 12 50  1  1
 13 14  1  0
 13 37  1  0
 13 38  1  0
 14 16  1  0
 14 15  1  0
 14 39  1  1
 15 16  1  0
 15 40  1  0
 15 41  1  0
 16 17  1  0
 16 42  1  1
 17 43  1  0
 17 44  1  0
 18 19  1  0
 18 45  1  0
 18 46  1  0
 20 47  1  0
 20 48  1  0
M  CHG  2   4   1  12   1
M  END
>  <i_m_ct_stereo_status>  (19) 
1

>  <s_m_source_file>  (19) 
/var/tmp/pbs.5076255.sched01/tmp9s019jnz/08u7fdliu.sdf

>  <i_m_source_file_index>  (19) 
9

>  <i_lp_mmshare_version>  (19) 
48012

>  <i_f3d_flags>  (19) 
0

>  <s_epik_input>  (19) 
W0NIMl0xW0NIMl1bQ0gyXVtDSF0xTihbQ0gyXVtDSDJdMilbQ0gyXVtDSDJdQzIzW0NIMl1bQ0BIXShbQ0gyXU8zKU4oW0NIMl00KVtDSDJdW0NAQEhdKFtDQEBIXTQ1KVtDSDJdNQ==

>  <s_epik_cmdline>  (19) 
J2VwaWtfcHl0aG9uJywgJy1waHQnLCAnMi4wJywgJy1waCcsICc3LjAnLCAnLXRuJywgJzgnLCAnLW1hJywgJzIwMCcsICctaW1hZScsICc8aW5maWxlLm1hZT4nLCAnLW9tYWUnLCAnPG91dGZpbGUubWFlPic=

>  <r_epik_Ionization_Penalty>  (19) 
0.0149146

>  <r_epik_Ionization_Penalty_Charging>  (19) 
0.0149146

>  <r_epik_Ionization_Penalty_Neutral>  (19) 
2.23649e-15

>  <r_epik_State_Penalty>  (19) 
0.00690108

>  <r_epik_Charging_Adjusted_Penalty>  (19) 
0.0218156

>  <i_epik_Tot_Q>  (19) 
2

>  <i_epik_Tot_abs_Q>  (19) 
2

>  <s_lp_Force_Field>  (19) 
OPLS3e

>  <r_lp_Energy>  (19) 
46.341

>  <b_lp_Chiralities_Consistent>  (19) 
1

>  <s_lp_Variant>  (19) 
5:0-4

>  <s_i_glide_gridfile>  (19) 
pfpi4k_grid

>  <i_i_glide_lignum>  (19) 
9

>  <i_i_glide_rotatable_bonds>  (19) 
2

>  <r_i_docking_score>  (19) 
-3.73965

>  <r_i_glide_ligand_efficiency>  (19) 
-0.186982

>  <r_i_glide_ligand_efficiency_sa>  (19) 
-0.507548

>  <r_i_glide_ligand_efficiency_ln>  (19) 
-0.935911

>  <r_i_glide_gscore>  (19) 
-3.73965

>  <r_i_glide_lipo>  (19) 
-0.459453

>  <r_i_glide_hbond>  (19) 
0

>  <r_i_glide_metal>  (19) 
-0

>  <r_i_glide_rewards>  (19) 
-1.51068

>  <r_i_glide_evdw>  (19) 
-26.3685

>  <r_i_glide_ecoul>  (19) 
-5.9144

>  <r_i_glide_erotb>  (19) 
0.465036

>  <r_i_glide_esite>  (19) 
-0.0289616

>  <r_i_glide_emodel>  (19) 
-35.5137

>  <r_i_glide_energy>  (19) 
-32.2829

>  <r_i_glide_einternal>  (19) 
10.79

>  <r_i_glide_intrahb_reward>  (19) 
-0

>  <i_i_glide_confnum>  (19) 
5

>  <i_i_glide_posenum>  (19) 
3

>  <r_i_glide_eff_state_penalty>  (19) 
0

>  <ligand_id>  (19) 
5

>  <original_smiles>  (19) 
C1CC(N2CCC3(CC2)CC(N2CC4CC4C2)CO3)C1

>  <smiles>  (19) 
[H]C1([H])OC2(C([H])([H])C([H])([H])[N+]([H])(C3([H])C([H])([H])C([H])([H])C3([H])[H])C([H])([H])C2([H])[H])C([H])([H])C1([H])[N+]1([H])C([H])([H])C2([H])C([H])([H])C2([H])C1([H])[H]

$$$$
5:3:1
     RDKit          3D

 50 54  0  0  1  0  0  0  0  0999 V2000
    1.5660  -10.9939    3.7679 C   0  0  0  0  0  0  0  0  0  0  0  0
    1.3860   -9.4838    3.9476 C   0  0  0  0  0  0  0  0  0  0  0  0
    2.2327   -9.3165    2.6815 C   0  0  0  0  0  0  0  0  0  0  0  0
    3.2044   -8.1989    2.7284 N   0  0  2  0  0  0  0  0  0  0  0  0
    2.5244   -6.8767    2.8877 C   0  0  0  0  0  0  0  0  0  0  0  0
    3.5241   -5.7176    2.9682 C   0  0  0  0  0  0  0  0  0  0  0  0
    4.4219   -5.7097    1.7259 C   0  0  1  0  0  0  0  0  0  0  0  0
    5.1350   -7.0660    1.5935 C   0  0  0  0  0  0  0  0  0  0  0  0
    4.1310   -8.2305    1.5579 C   0  0  0  0  0  0  0  0  0  0  0  0
    3.6742   -5.2906    0.4536 C   0  0  0  0  0  0  0  0  0  0  0  0
    4.7647   -4.5977   -0.3093 C   0  0  1  0  0  0  0  0  0  0  0  0
    4.2515   -3.7850   -1.4429 N   0  0  1  0  0  0  0  0  0  0  0  0
    3.1808   -2.7832   -1.1855 C   0  0  0  0  0  0  0  0  0  0  0  0
    3.2309   -1.8608   -2.3709 C   0  0  1  0  0  0  0  0  0  0  0  0
    4.2105   -0.7299   -2.4571 C   0  0  0  0  0  0  0  0  0  0  0  0
    4.5674   -2.0694   -3.0454 C   0  0  1  0  0  0  0  0  0  0  0  0
    5.3039   -3.1198   -2.2556 C   0  0  0  0  0  0  0  0  0  0  0  0
    5.5255   -3.8597    0.7865 C   0  0  0  0  0  0  0  0  0  0  0  0
    5.4554   -4.7410    1.9006 O   0  0  0  0  0  0  0  0  0  0  0  0
    2.8496  -10.6845    2.9897 C   0  0  0  0  0  0  0  0  0  0  0  0
    0.7875  -11.4299    3.1421 H   0  0  0  0  0  0  0  0  0  0  0  0
    1.7165  -11.5368    4.6982 H   0  0  0  0  0  0  0  0  0  0  0  0
    0.3618   -9.1233    3.8391 H   0  0  0  0  0  0  0  0  0  0  0  0
    1.8625   -9.1080    4.8571 H   0  0  0  0  0  0  0  0  0  0  0  0
    1.6090   -9.3527    1.7865 H   0  0  0  0  0  0  0  0  0  0  0  0
    1.8474   -6.7265    2.0454 H   0  0  0  0  0  0  0  0  0  0  0  0
    1.9045   -6.8586    3.7871 H   0  0  0  0  0  0  0  0  0  0  0  0
    2.9927   -4.7724    3.0635 H   0  0  0  0  0  0  0  0  0  0  0  0
    4.1265   -5.7993    3.8712 H   0  0  0  0  0  0  0  0  0  0  0  0
    5.7539   -7.0985    0.6983 H   0  0  0  0  0  0  0  0  0  0  0  0
    5.8320   -7.2039    2.4206 H   0  0  0  0  0  0  0  0  0  0  0  0
    4.6662   -9.1848    1.5061 H   0  0  0  0  0  0  0  0  0  0  0  0
    3.5227   -8.1893    0.6520 H   0  0  0  0  0  0  0  0  0  0  0  0
    3.2311   -6.0949   -0.1281 H   0  0  0  0  0  0  0  0  0  0  0  0
    2.8691   -4.6034    0.7040 H   0  0  0  0  0  0  0  0  0  0  0  0
    5.4121   -5.3681   -0.7214 H   0  0  0  0  0  0  0  0  0  0  0  0
    2.2022   -3.2534   -1.1031 H   0  0  0  0  0  0  0  0  0  0  0  0
    3.3387   -2.1885   -0.2895 H   0  0  0  0  0  0  0  0  0  0  0  0
    2.3437   -1.8492   -3.0057 H   0  0  0  0  0  0  0  0  0  0  0  0
    3.9597    0.0861   -3.1293 H   0  0  0  0  0  0  0  0  0  0  0  0
    4.7007   -0.4249   -1.5351 H   0  0  0  0  0  0  0  0  0  0  0  0
    4.5331   -2.1965   -4.1268 H   0  0  0  0  0  0  0  0  0  0  0  0
    6.0324   -2.6175   -1.6231 H   0  0  0  0  0  0  0  0  0  0  0  0
    5.8314   -3.8141   -2.9042 H   0  0  0  0  0  0  0  0  0  0  0  0
    6.5631   -3.6414    0.5238 H   0  0  0  0  0  0  0  0  0  0  0  0
    5.0503   -2.9235    1.0861 H   0  0  0  0  0  0  0  0  0  0  0  0
    3.7377  -10.6431    3.6281 H   0  0  0  0  0  0  0  0  0  0  0  0
    3.0174  -11.2977    2.1021 H   0  0  0  0  0  0  0  0  0  0  0  0
    3.7694   -8.3392    3.5529 H   0  0  0  0  0  0  0  0  0  0  0  0
    3.8183   -4.4465   -2.0817 H   0  0  0  0  0  0  0  0  0  0  0  0
  1 20  1  0
  1  2  1  0
  1 21  1  0
  1 22  1  0
  2  3  1  0
  2 23  1  0
  2 24  1  0
  3  4  1  0
  3 20  1  0
  3 25  1  0
  4  9  1  0
  4  5  1  0
  4 49  1  1
  5  6  1  0
  5 26  1  0
  5 27  1  0
  6  7  1  0
  6 28  1  0
  6 29  1  0
  7 19  1  1
  7  8  1  0
  7 10  1  0
  8  9  1  0
  8 30  1  0
  8 31  1  0
  9 32  1  0
  9 33  1  0
 10 11  1  0
 10 34  1  0
 10 35  1  0
 11 12  1  0
 11 18  1  0
 11 36  1  6
 12 17  1  0
 12 13  1  0
 12 50  1  6
 13 14  1  0
 13 37  1  0
 13 38  1  0
 14 16  1  0
 14 15  1  0
 14 39  1  6
 15 16  1  0
 15 40  1  0
 15 41  1  0
 16 17  1  0
 16 42  1  6
 17 43  1  0
 17 44  1  0
 18 19  1  0
 18 45  1  0
 18 46  1  0
 20 47  1  0
 20 48  1  0
M  CHG  2   4   1  12   1
M  END
>  <i_m_ct_stereo_status>  (20) 
1

>  <s_m_source_file>  (20) 
/var/tmp/pbs.5076255.sched01/tmp9s019jnz/08u7fdliu.sdf

>  <i_m_source_file_index>  (20) 
9

>  <i_lp_mmshare_version>  (20) 
48012

>  <i_f3d_flags>  (20) 
0

>  <s_epik_input>  (20) 
W0NIMl0xW0NIMl1bQ0gyXVtDSF0xTihbQ0gyXVtDSDJdMilbQ0gyXVtDSDJdQzIzW0NIMl1bQ0BIXShbQ0gyXU8zKU4oW0NIMl00KVtDSDJdW0NAQEhdKFtDQEBIXTQ1KVtDSDJdNQ==

>  <s_epik_cmdline>  (20) 
J2VwaWtfcHl0aG9uJywgJy1waHQnLCAnMi4wJywgJy1waCcsICc3LjAnLCAnLXRuJywgJzgnLCAnLW1hJywgJzIwMCcsICctaW1hZScsICc8aW5maWxlLm1hZT4nLCAnLW9tYWUnLCAnPG91dGZpbGUubWFlPic=

>  <r_epik_Ionization_Penalty>  (20) 
0.0149146

>  <r_epik_Ionization_Penalty_Charging>  (20) 
0.0149146

>  <r_epik_Ionization_Penalty_Neutral>  (20) 
2.23649e-15

>  <r_epik_State_Penalty>  (20) 
0.00690108

>  <r_epik_Charging_Adjusted_Penalty>  (20) 
0.0218156

>  <i_epik_Tot_Q>  (20) 
2

>  <i_epik_Tot_abs_Q>  (20) 
2

>  <s_lp_Force_Field>  (20) 
OPLS3e

>  <r_lp_Energy>  (20) 
46.341

>  <b_lp_Chiralities_Consistent>  (20) 
1

>  <s_lp_Variant>  (20) 
5:0-4

>  <s_i_glide_gridfile>  (20) 
pfpi4k_grid

>  <i_i_glide_lignum>  (20) 
9

>  <i_i_glide_rotatable_bonds>  (20) 
2

>  <r_i_docking_score>  (20) 
-3.72923

>  <r_i_glide_ligand_efficiency>  (20) 
-0.186461

>  <r_i_glide_ligand_efficiency_sa>  (20) 
-0.506134

>  <r_i_glide_ligand_efficiency_ln>  (20) 
-0.933303

>  <r_i_glide_gscore>  (20) 
-3.72923

>  <r_i_glide_lipo>  (20) 
-0.5526

>  <r_i_glide_hbond>  (20) 
0

>  <r_i_glide_metal>  (20) 
-0

>  <r_i_glide_rewards>  (20) 
-1.51068

>  <r_i_glide_evdw>  (20) 
-24.8868

>  <r_i_glide_ecoul>  (20) 
-5.6826

>  <r_i_glide_erotb>  (20) 
0.465036

>  <r_i_glide_esite>  (20) 
-0.0342483

>  <r_i_glide_emodel>  (20) 
-37.8508

>  <r_i_glide_energy>  (20) 
-30.5694

>  <r_i_glide_einternal>  (20) 
3.23874

>  <r_i_glide_intrahb_reward>  (20) 
-0

>  <i_i_glide_confnum>  (20) 
6

>  <i_i_glide_posenum>  (20) 
22

>  <r_i_glide_eff_state_penalty>  (20) 
0

>  <ligand_id>  (20) 
5

>  <original_smiles>  (20) 
C1CC(N2CCC3(CC2)CC(N2CC4CC4C2)CO3)C1

>  <smiles>  (20) 
[H]C1([H])OC2(C([H])([H])C([H])([H])[N+]([H])(C3([H])C([H])([H])C([H])([H])C3([H])[H])C([H])([H])C2([H])[H])C([H])([H])C1([H])[N+]1([H])C([H])([H])C2([H])C([H])([H])C2([H])C1([H])[H]

$$$$
5:3:2
     RDKit          3D

 50 54  0  0  1  0  0  0  0  0999 V2000
    3.7174   -1.5291   -3.3286 C   0  0  0  0  0  0  0  0  0  0  0  0
    3.0256   -2.6249   -2.5170 C   0  0  0  0  0  0  0  0  0  0  0  0
    3.6524   -1.9705   -1.2742 C   0  0  0  0  0  0  0  0  0  0  0  0
    4.1568   -2.8795   -0.1955 N   0  0  2  0  0  0  0  0  0  0  0  0
    4.5148   -4.2510   -0.7003 C   0  0  0  0  0  0  0  0  0  0  0  0
    5.0814   -5.1431    0.4094 C   0  0  0  0  0  0  0  0  0  0  0  0
    4.0844   -5.2557    1.5636 C   0  0  1  0  0  0  0  0  0  0  0  0
    3.7458   -3.8368    2.0776 C   0  0  0  0  0  0  0  0  0  0  0  0
    3.2100   -2.9410    0.9414 C   0  0  0  0  0  0  0  0  0  0  0  0
    2.8097   -6.0379    1.2006 C   0  0  0  0  0  0  0  0  0  0  0  0
    2.4434   -6.6375    2.5274 C   0  0  1  0  0  0  0  0  0  0  0  0
    1.4382   -7.7254    2.4153 N   0  0  1  0  0  0  0  0  0  0  0  0
    1.1306   -8.3847    3.7047 C   0  0  0  0  0  0  0  0  0  0  0  0
   -0.2238   -9.0152    3.4953 C   0  0  1  0  0  0  0  0  0  0  0  0
   -1.5148   -8.2597    3.6780 C   0  0  0  0  0  0  0  0  0  0  0  0
   -0.8599   -8.3062    2.3248 C   0  0  1  0  0  0  0  0  0  0  0  0
    0.1398   -7.2790    1.8580 C   0  0  0  0  0  0  0  0  0  0  0  0
    3.8116   -7.0660    3.0444 C   0  0  0  0  0  0  0  0  0  0  0  0
    4.6817   -6.0145    2.6191 O   0  0  0  0  0  0  0  0  0  0  0  0
    4.7179   -1.3610   -2.1706 C   0  0  0  0  0  0  0  0  0  0  0  0
    3.0862   -0.6497   -3.4907 H   0  0  0  0  0  0  0  0  0  0  0  0
    4.1785   -1.8837   -4.2517 H   0  0  0  0  0  0  0  0  0  0  0  0
    1.9355   -2.5797   -2.5415 H   0  0  0  0  0  0  0  0  0  0  0  0
    3.4031   -3.6123   -2.7834 H   0  0  0  0  0  0  0  0  0  0  0  0
    3.0404   -1.1700   -0.8581 H   0  0  0  0  0  0  0  0  0  0  0  0
    3.6067   -4.6960   -1.1138 H   0  0  0  0  0  0  0  0  0  0  0  0
    5.2144   -4.2026   -1.5287 H   0  0  0  0  0  0  0  0  0  0  0  0
    5.3025   -6.1264    0.0038 H   0  0  0  0  0  0  0  0  0  0  0  0
    6.0427   -4.7763    0.7598 H   0  0  0  0  0  0  0  0  0  0  0  0
    3.0242   -3.8789    2.8866 H   0  0  0  0  0  0  0  0  0  0  0  0
    4.6359   -3.3987    2.5193 H   0  0  0  0  0  0  0  0  0  0  0  0
    3.0353   -1.9346    1.3400 H   0  0  0  0  0  0  0  0  0  0  0  0
    2.2358   -3.3086    0.5961 H   0  0  0  0  0  0  0  0  0  0  0  0
    2.0145   -5.4325    0.7740 H   0  0  0  0  0  0  0  0  0  0  0  0
    3.0433   -6.8389    0.4985 H   0  0  0  0  0  0  0  0  0  0  0  0
    2.0589   -5.8687    3.1800 H   0  0  0  0  0  0  0  0  0  0  0  0
    1.8814   -9.1256    3.9752 H   0  0  0  0  0  0  0  0  0  0  0  0
    1.0615   -7.6382    4.5015 H   0  0  0  0  0  0  0  0  0  0  0  0
   -0.2535  -10.1033    3.4677 H   0  0  0  0  0  0  0  0  0  0  0  0
   -2.4157   -8.8525    3.8172 H   0  0  0  0  0  0  0  0  0  0  0  0
   -1.4892   -7.3212    4.2340 H   0  0  0  0  0  0  0  0  0  0  0  0
   -1.3020   -8.9376    1.5569 H   0  0  0  0  0  0  0  0  0  0  0  0
   -0.1266   -6.3046    2.2741 H   0  0  0  0  0  0  0  0  0  0  0  0
    0.1553   -7.2054    0.7703 H   0  0  0  0  0  0  0  0  0  0  0  0
    3.8495   -7.1869    4.1253 H   0  0  0  0  0  0  0  0  0  0  0  0
    4.1339   -7.9971    2.5805 H   0  0  0  0  0  0  0  0  0  0  0  0
    5.6152   -1.9673   -2.2618 H   0  0  0  0  0  0  0  0  0  0  0  0
    4.9534   -0.3261   -1.9175 H   0  0  0  0  0  0  0  0  0  0  0  0
    4.9976   -2.4637    0.1691 H   0  0  0  0  0  0  0  0  0  0  0  0
    1.7951   -8.4444    1.7955 H   0  0  0  0  0  0  0  0  0  0  0  0
  1 20  1  0
  1  2  1  0
  1 21  1  0
  1 22  1  0
  2  3  1  0
  2 23  1  0
  2 24  1  0
  3  4  1  0
  3 20  1  0
  3 25  1  0
  4  9  1  0
  4  5  1  0
  4 49  1  1
  5  6  1  0
  5 26  1  0
  5 27  1  0
  6  7  1  0
  6 28  1  0
  6 29  1  0
  7 19  1  1
  7  8  1  0
  7 10  1  0
  8  9  1  0
  8 30  1  0
  8 31  1  0
  9 32  1  0
  9 33  1  0
 10 11  1  0
 10 34  1  0
 10 35  1  0
 11 12  1  0
 11 18  1  0
 11 36  1  1
 12 17  1  0
 12 13  1  0
 12 50  1  6
 13 14  1  0
 13 37  1  0
 13 38  1  0
 14 16  1  0
 14 15  1  0
 14 39  1  6
 15 16  1  0
 15 40  1  0
 15 41  1  0
 16 17  1  0
 16 42  1  6
 17 43  1  0
 17 44  1  0
 18 19  1  0
 18 45  1  0
 18 46  1  0
 20 47  1  0
 20 48  1  0
M  CHG  2   4   1  12   1
M  END
>  <i_m_ct_stereo_status>  (21) 
1

>  <s_m_source_file>  (21) 
/var/tmp/pbs.5076255.sched01/tmp9s019jnz/08u7fdliu.sdf

>  <i_m_source_file_index>  (21) 
9

>  <i_lp_mmshare_version>  (21) 
48012

>  <i_f3d_flags>  (21) 
0

>  <s_epik_input>  (21) 
W0NIMl0xW0NIMl1bQ0gyXVtDSF0xTihbQ0gyXVtDSDJdMilbQ0gyXVtDSDJdQzIzW0NIMl1bQ0BIXShbQ0gyXU8zKU4oW0NIMl00KVtDSDJdW0NAQEhdKFtDQEBIXTQ1KVtDSDJdNQ==

>  <s_epik_cmdline>  (21) 
J2VwaWtfcHl0aG9uJywgJy1waHQnLCAnMi4wJywgJy1waCcsICc3LjAnLCAnLXRuJywgJzgnLCAnLW1hJywgJzIwMCcsICctaW1hZScsICc8aW5maWxlLm1hZT4nLCAnLW9tYWUnLCAnPG91dGZpbGUubWFlPic=

>  <r_epik_Ionization_Penalty>  (21) 
0.0149146

>  <r_epik_Ionization_Penalty_Charging>  (21) 
0.0149146

>  <r_epik_Ionization_Penalty_Neutral>  (21) 
2.23649e-15

>  <r_epik_State_Penalty>  (21) 
0.00690108

>  <r_epik_Charging_Adjusted_Penalty>  (21) 
0.0218156

>  <i_epik_Tot_Q>  (21) 
2

>  <i_epik_Tot_abs_Q>  (21) 
2

>  <s_lp_Force_Field>  (21) 
OPLS3e

>  <r_lp_Energy>  (21) 
46.341

>  <b_lp_Chiralities_Consistent>  (21) 
1

>  <s_lp_Variant>  (21) 
5:0-4

>  <s_i_glide_gridfile>  (21) 
pfpi4k_grid

>  <i_i_glide_lignum>  (21) 
9

>  <i_i_glide_rotatable_bonds>  (21) 
2

>  <r_i_docking_score>  (21) 
-3.31032

>  <r_i_glide_ligand_efficiency>  (21) 
-0.165516

>  <r_i_glide_ligand_efficiency_sa>  (21) 
-0.44928

>  <r_i_glide_ligand_efficiency_ln>  (21) 
-0.828464

>  <r_i_glide_gscore>  (21) 
-3.31032

>  <r_i_glide_lipo>  (21) 
-0.233967

>  <r_i_glide_hbond>  (21) 
0

>  <r_i_glide_metal>  (21) 
-0

>  <r_i_glide_rewards>  (21) 
-1.51068

>  <r_i_glide_evdw>  (21) 
-26.524

>  <r_i_glide_ecoul>  (21) 
-4.53163

>  <r_i_glide_erotb>  (21) 
0.465036

>  <r_i_glide_esite>  (21) 
-0.0247614

>  <r_i_glide_emodel>  (21) 
-33.8302

>  <r_i_glide_energy>  (21) 
-31.0556

>  <r_i_glide_einternal>  (21) 
9.70392

>  <r_i_glide_intrahb_reward>  (21) 
-0

>  <i_i_glide_confnum>  (21) 
3

>  <i_i_glide_posenum>  (21) 
5

>  <r_i_glide_eff_state_penalty>  (21) 
0

>  <ligand_id>  (21) 
5

>  <original_smiles>  (21) 
C1CC(N2CCC3(CC2)CC(N2CC4CC4C2)CO3)C1

>  <smiles>  (21) 
[H]C1([H])OC2(C([H])([H])C([H])([H])[N+]([H])(C3([H])C([H])([H])C([H])([H])C3([H])[H])C([H])([H])C2([H])[H])C([H])([H])C1([H])[N+]1([H])C([H])([H])C2([H])C([H])([H])C2([H])C1([H])[H]

$$$$
5:4:0
     RDKit          3D

 49 53  0  0  1  0  0  0  0  0999 V2000
   -2.1707    4.1376    3.6781 C   0  0  0  0  0  0  0  0  0  0  0  0
   -1.9930    2.7105    3.1798 C   0  0  0  0  0  0  0  0  0  0  0  0
   -0.6400    2.7302    3.8871 C   0  0  0  0  0  0  0  0  0  0  0  0
    0.4536    2.0717    3.1255 N   0  0  2  0  0  0  0  0  0  0  0  0
    0.1690    0.6266    2.8987 C   0  0  0  0  0  0  0  0  0  0  0  0
    1.2748   -0.0492    2.0846 C   0  0  0  0  0  0  0  0  0  0  0  0
    2.6618    0.1441    2.7157 C   0  0  2  0  0  0  0  0  0  0  0  0
    2.9044    1.6295    3.0104 C   0  0  0  0  0  0  0  0  0  0  0  0
    1.7604    2.2676    3.7963 C   0  0  0  0  0  0  0  0  0  0  0  0
    3.7528   -0.4665    1.8314 C   0  0  0  0  0  0  0  0  0  0  0  0
    3.8018   -1.8940    2.3255 C   0  0  1  0  0  0  0  0  0  0  0  0
    5.0156   -2.5993    1.9400 N   0  0  0  0  0  0  0  0  0  0  0  0
    5.1597   -3.9083    2.5455 C   0  0  0  0  0  0  0  0  0  0  0  0
    6.1730   -4.6367    1.6937 C   0  0  1  0  0  0  0  0  0  0  0  0
    5.7842   -5.3993    0.4656 C   0  0  0  0  0  0  0  0  0  0  0  0
    6.1427   -3.9417    0.3563 C   0  0  1  0  0  0  0  0  0  0  0  0
    5.1210   -2.8366    0.5100 C   0  0  0  0  0  0  0  0  0  0  0  0
    3.6092   -1.6884    3.8245 C   0  0  0  0  0  0  0  0  0  0  0  0
    2.6968   -0.5993    3.9306 O   0  0  0  0  0  0  0  0  0  0  0  0
   -0.6491    4.2584    3.7817 C   0  0  0  0  0  0  0  0  0  0  0  0
   -2.6226    4.1515    4.6650 H   0  0  0  0  0  0  0  0  0  0  0  0
   -2.6433    4.8062    2.9555 H   0  0  0  0  0  0  0  0  0  0  0  0
   -2.7000    1.9966    3.6093 H   0  0  0  0  0  0  0  0  0  0  0  0
   -1.9471    2.6475    2.0912 H   0  0  0  0  0  0  0  0  0  0  0  0
   -0.7464    2.4051    4.9254 H   0  0  0  0  0  0  0  0  0  0  0  0
    0.0695    0.1367    3.8686 H   0  0  0  0  0  0  0  0  0  0  0  0
   -0.7739    0.4926    2.3686 H   0  0  0  0  0  0  0  0  0  0  0  0
    1.0343   -1.1080    1.9829 H   0  0  0  0  0  0  0  0  0  0  0  0
    1.2633    0.3689    1.0798 H   0  0  0  0  0  0  0  0  0  0  0  0
    3.8248    1.7503    3.5740 H   0  0  0  0  0  0  0  0  0  0  0  0
    3.0237    2.1738    2.0826 H   0  0  0  0  0  0  0  0  0  0  0  0
    1.9735    3.3307    3.9326 H   0  0  0  0  0  0  0  0  0  0  0  0
    1.7191    1.8194    4.7902 H   0  0  0  0  0  0  0  0  0  0  0  0
    3.5299   -0.3886    0.7683 H   0  0  0  0  0  0  0  0  0  0  0  0
    4.7096    0.0190    2.0042 H   0  0  0  0  0  0  0  0  0  0  0  0
    2.9320   -2.4282    1.9498 H   0  0  0  0  0  0  0  0  0  0  0  0
    5.5039   -3.8286    3.5759 H   0  0  0  0  0  0  0  0  0  0  0  0
    4.2148   -4.4520    2.5242 H   0  0  0  0  0  0  0  0  0  0  0  0
    7.1569   -4.7918    2.1300 H   0  0  0  0  0  0  0  0  0  0  0  0
    6.4932   -6.1251    0.0832 H   0  0  0  0  0  0  0  0  0  0  0  0
    4.7353   -5.6736    0.3465 H   0  0  0  0  0  0  0  0  0  0  0  0
    7.1052   -3.6573   -0.0630 H   0  0  0  0  0  0  0  0  0  0  0  0
    4.1677   -3.1812    0.1045 H   0  0  0  0  0  0  0  0  0  0  0  0
    5.4251   -1.9373   -0.0249 H   0  0  0  0  0  0  0  0  0  0  0  0
    3.2064   -2.5803    4.3075 H   0  0  0  0  0  0  0  0  0  0  0  0
    4.5474   -1.4301    4.3132 H   0  0  0  0  0  0  0  0  0  0  0  0
   -0.1881    4.6679    2.8877 H   0  0  0  0  0  0  0  0  0  0  0  0
   -0.2968    4.7565    4.6817 H   0  0  0  0  0  0  0  0  0  0  0  0
    0.4891    2.5328    2.2171 H   0  0  0  0  0  0  0  0  0  0  0  0
  1 20  1  0
  1  2  1  0
  1 21  1  0
  1 22  1  0
  2  3  1  0
  2 23  1  0
  2 24  1  0
  3  4  1  0
  3 20  1  0
  3 25  1  0
  4  9  1  0
  4  5  1  0
  4 49  1  6
  5  6  1  0
  5 26  1  0
  5 27  1  0
  6  7  1  0
  6 28  1  0
  6 29  1  0
  7 19  1  1
  7  8  1  0
  7 10  1  0
  8  9  1  0
  8 30  1  0
  8 31  1  0
  9 32  1  0
  9 33  1  0
 10 11  1  0
 10 34  1  0
 10 35  1  0
 11 12  1  0
 11 18  1  0
 11 36  1  6
 12 17  1  0
 12 13  1  0
 13 14  1  0
 13 37  1  0
 13 38  1  0
 14 16  1  0
 14 15  1  0
 14 39  1  1
 15 16  1  0
 15 40  1  0
 15 41  1  0
 16 17  1  0
 16 42  1  6
 17 43  1  0
 17 44  1  0
 18 19  1  0
 18 45  1  0
 18 46  1  0
 20 47  1  0
 20 48  1  0
M  CHG  1   4   1
M  END
>  <i_m_ct_stereo_status>  (22) 
1

>  <s_m_source_file>  (22) 
/var/tmp/pbs.5076255.sched01/tmp9s019jnz/08u7fdliu.sdf

>  <i_m_source_file_index>  (22) 
10

>  <i_lp_mmshare_version>  (22) 
48012

>  <i_f3d_flags>  (22) 
0

>  <s_epik_input>  (22) 
W0NIMl0xW0NIMl1bQ0gyXVtDSF0xTihbQ0gyXVtDSDJdMilbQ0gyXVtDSDJdQzIzW0NIMl1bQ0BIXShbQ0gyXU8zKU4oW0NIMl00KVtDSDJdW0NAQEhdKFtDQEBIXTQ1KVtDSDJdNQ==

>  <s_epik_cmdline>  (22) 
J2VwaWtfcHl0aG9uJywgJy1waHQnLCAnMi4wJywgJy1waCcsICc3LjAnLCAnLXRuJywgJzgnLCAnLW1hJywgJzIwMCcsICctaW1hZScsICc8aW5maWxlLm1hZT4nLCAnLW9tYWUnLCAnPG91dGZpbGUubWFlPic=

>  <r_epik_Ionization_Penalty>  (22) 
2.48038

>  <r_epik_Ionization_Penalty_Charging>  (22) 
0.00221643

>  <r_epik_Ionization_Penalty_Neutral>  (22) 
2.47816

>  <r_epik_State_Penalty>  (22) 
2.64158

>  <r_epik_Charging_Adjusted_Penalty>  (22) 
2.6438

>  <i_epik_Tot_Q>  (22) 
1

>  <i_epik_Tot_abs_Q>  (22) 
1

>  <s_lp_Force_Field>  (22) 
OPLS3e

>  <r_lp_Energy>  (22) 
38.2203

>  <b_lp_Chiralities_Consistent>  (22) 
1

>  <s_lp_Variant>  (22) 
5:0-5

>  <s_i_glide_gridfile>  (22) 
pfpi4k_grid

>  <i_i_glide_lignum>  (22) 
10

>  <i_i_glide_rotatable_bonds>  (22) 
2

>  <r_i_docking_score>  (22) 
-3.10988

>  <r_i_glide_ligand_efficiency>  (22) 
-0.155494

>  <r_i_glide_ligand_efficiency_sa>  (22) 
-0.422076

>  <r_i_glide_ligand_efficiency_ln>  (22) 
-0.778301

>  <r_i_glide_gscore>  (22) 
-3.10988

>  <r_i_glide_lipo>  (22) 
-0.355753

>  <r_i_glide_hbond>  (22) 
-0.0417029

>  <r_i_glide_metal>  (22) 
-0

>  <r_i_glide_rewards>  (22) 
-1.51756

>  <r_i_glide_evdw>  (22) 
-19.4674

>  <r_i_glide_ecoul>  (22) 
-4.21158

>  <r_i_glide_erotb>  (22) 
0.467972

>  <r_i_glide_esite>  (22) 
-0.057735

>  <r_i_glide_emodel>  (22) 
-30.183

>  <r_i_glide_energy>  (22) 
-23.679

>  <r_i_glide_einternal>  (22) 
0.429624

>  <r_i_glide_intrahb_reward>  (22) 
-0

>  <i_i_glide_confnum>  (22) 
1

>  <i_i_glide_posenum>  (22) 
35

>  <r_i_glide_eff_state_penalty>  (22) 
0

>  <ligand_id>  (22) 
5

>  <original_smiles>  (22) 
C1CC(N2CCC3(CC2)CC(N2CC4CC4C2)CO3)C1

>  <smiles>  (22) 
[H]C1([H])OC2(C([H])([H])C1([H])N1C([H])([H])C3([H])C([H])([H])C3([H])C1([H])[H])C([H])([H])C([H])([H])[N+]([H])(C1([H])C([H])([H])C([H])([H])C1([H])[H])C([H])([H])C2([H])[H]

$$$$
5:4:1
     RDKit          3D

 49 53  0  0  1  0  0  0  0  0999 V2000
   -2.7167    2.9784    4.3928 C   0  0  0  0  0  0  0  0  0  0  0  0
   -1.6936    1.8986    4.7341 C   0  0  0  0  0  0  0  0  0  0  0  0
   -0.6072    2.9268    4.3888 C   0  0  0  0  0  0  0  0  0  0  0  0
    0.5663    2.4037    3.6435 N   0  0  2  0  0  0  0  0  0  0  0  0
    0.2422    1.5873    2.4321 C   0  0  0  0  0  0  0  0  0  0  0  0
    1.5039    1.2061    1.6880 C   0  0  0  0  0  0  0  0  0  0  0  0
    2.4933    0.4482    2.5786 C   0  0  2  0  0  0  0  0  0  0  0  0
    2.7887    1.2585    3.8473 C   0  0  0  0  0  0  0  0  0  0  0  0
    1.4957    1.6759    4.5545 C   0  0  0  0  0  0  0  0  0  0  0  0
    3.7511    0.1190    1.7945 C   0  0  0  0  0  0  0  0  0  0  0  0
    3.4015   -1.2030    1.1509 C   0  0  1  0  0  0  0  0  0  0  0  0
    4.5537   -1.9412    0.6736 N   0  0  0  0  0  0  0  0  0  0  0  0
    4.2162   -3.2058    0.0379 C   0  0  0  0  0  0  0  0  0  0  0  0
    5.4293   -3.5664   -0.7824 C   0  0  1  0  0  0  0  0  0  0  0  0
    5.6438   -3.0598   -2.1903 C   0  0  0  0  0  0  0  0  0  0  0  0
    6.1576   -2.2653   -1.0166 C   0  0  1  0  0  0  0  0  0  0  0  0
    5.3275   -1.2167   -0.3254 C   0  0  0  0  0  0  0  0  0  0  0  0
    2.6108   -1.8714    2.2765 C   0  0  0  0  0  0  0  0  0  0  0  0
    1.9176   -0.8134    2.9269 O   0  0  0  0  0  0  0  0  0  0  0  0
   -1.6441    3.7383    3.6055 C   0  0  0  0  0  0  0  0  0  0  0  0
   -3.0743    3.5087    5.2783 H   0  0  0  0  0  0  0  0  0  0  0  0
   -3.5271    2.6105    3.7660 H   0  0  0  0  0  0  0  0  0  0  0  0
   -1.6917    1.5829    5.7794 H   0  0  0  0  0  0  0  0  0  0  0  0
   -1.7903    1.0500    4.0552 H   0  0  0  0  0  0  0  0  0  0  0  0
   -0.3126    3.4895    5.2765 H   0  0  0  0  0  0  0  0  0  0  0  0
   -0.2710    0.6652    2.7033 H   0  0  0  0  0  0  0  0  0  0  0  0
   -0.3873    2.1298    1.7280 H   0  0  0  0  0  0  0  0  0  0  0  0
    1.2128    0.5878    0.8474 H   0  0  0  0  0  0  0  0  0  0  0  0
    1.9702    2.1060    1.2837 H   0  0  0  0  0  0  0  0  0  0  0  0
    3.4116    0.6750    4.5235 H   0  0  0  0  0  0  0  0  0  0  0  0
    3.3741    2.1425    3.5887 H   0  0  0  0  0  0  0  0  0  0  0  0
    1.7496    2.2928    5.4183 H   0  0  0  0  0  0  0  0  0  0  0  0
    0.9921    0.7903    4.9409 H   0  0  0  0  0  0  0  0  0  0  0  0
    3.9967    0.8853    1.0573 H   0  0  0  0  0  0  0  0  0  0  0  0
    4.6083    0.0007    2.4575 H   0  0  0  0  0  0  0  0  0  0  0  0
    2.7116   -1.0197    0.3234 H   0  0  0  0  0  0  0  0  0  0  0  0
    3.9973   -3.9749    0.7828 H   0  0  0  0  0  0  0  0  0  0  0  0
    3.3529   -3.0912   -0.6224 H   0  0  0  0  0  0  0  0  0  0  0  0
    6.0319   -4.3948   -0.4184 H   0  0  0  0  0  0  0  0  0  0  0  0
    6.3717   -3.5769   -2.8087 H   0  0  0  0  0  0  0  0  0  0  0  0
    4.7729   -2.6778   -2.7208 H   0  0  0  0  0  0  0  0  0  0  0  0
    7.2209   -2.2704   -0.7952 H   0  0  0  0  0  0  0  0  0  0  0  0
    4.6689   -0.7333   -1.0500 H   0  0  0  0  0  0  0  0  0  0  0  0
    5.9577   -0.4563    0.1407 H   0  0  0  0  0  0  0  0  0  0  0  0
    1.9193   -2.6325    1.9108 H   0  0  0  0  0  0  0  0  0  0  0  0
    3.2835   -2.3395    2.9964 H   0  0  0  0  0  0  0  0  0  0  0  0
   -1.6996    3.5437    2.5366 H   0  0  0  0  0  0  0  0  0  0  0  0
   -1.6057    4.8039    3.8149 H   0  0  0  0  0  0  0  0  0  0  0  0
    1.0734    3.2184    3.3070 H   0  0  0  0  0  0  0  0  0  0  0  0
  1 20  1  0
  1  2  1  0
  1 21  1  0
  1 22  1  0
  2  3  1  0
  2 23  1  0
  2 24  1  0
  3  4  1  0
  3 20  1  0
  3 25  1  0
  4  9  1  0
  4  5  1  0
  4 49  1  6
  5  6  1  0
  5 26  1  0
  5 27  1  0
  6  7  1  0
  6 28  1  0
  6 29  1  0
  7 19  1  1
  7  8  1  0
  7 10  1  0
  8  9  1  0
  8 30  1  0
  8 31  1  0
  9 32  1  0
  9 33  1  0
 10 11  1  0
 10 34  1  0
 10 35  1  0
 11 12  1  0
 11 18  1  0
 11 36  1  6
 12 17  1  0
 12 13  1  0
 13 14  1  0
 13 37  1  0
 13 38  1  0
 14 16  1  0
 14 15  1  0
 14 39  1  6
 15 16  1  0
 15 40  1  0
 15 41  1  0
 16 17  1  0
 16 42  1  6
 17 43  1  0
 17 44  1  0
 18 19  1  0
 18 45  1  0
 18 46  1  0
 20 47  1  0
 20 48  1  0
M  CHG  1   4   1
M  END
>  <i_m_ct_stereo_status>  (23) 
1

>  <s_m_source_file>  (23) 
/var/tmp/pbs.5076255.sched01/tmp9s019jnz/08u7fdliu.sdf

>  <i_m_source_file_index>  (23) 
10

>  <i_lp_mmshare_version>  (23) 
48012

>  <i_f3d_flags>  (23) 
0

>  <s_epik_input>  (23) 
W0NIMl0xW0NIMl1bQ0gyXVtDSF0xTihbQ0gyXVtDSDJdMilbQ0gyXVtDSDJdQzIzW0NIMl1bQ0BIXShbQ0gyXU8zKU4oW0NIMl00KVtDSDJdW0NAQEhdKFtDQEBIXTQ1KVtDSDJdNQ==

>  <s_epik_cmdline>  (23) 
J2VwaWtfcHl0aG9uJywgJy1waHQnLCAnMi4wJywgJy1waCcsICc3LjAnLCAnLXRuJywgJzgnLCAnLW1hJywgJzIwMCcsICctaW1hZScsICc8aW5maWxlLm1hZT4nLCAnLW9tYWUnLCAnPG91dGZpbGUubWFlPic=

>  <r_epik_Ionization_Penalty>  (23) 
2.48038

>  <r_epik_Ionization_Penalty_Charging>  (23) 
0.00221643

>  <r_epik_Ionization_Penalty_Neutral>  (23) 
2.47816

>  <r_epik_State_Penalty>  (23) 
2.64158

>  <r_epik_Charging_Adjusted_Penalty>  (23) 
2.6438

>  <i_epik_Tot_Q>  (23) 
1

>  <i_epik_Tot_abs_Q>  (23) 
1

>  <s_lp_Force_Field>  (23) 
OPLS3e

>  <r_lp_Energy>  (23) 
38.2203

>  <b_lp_Chiralities_Consistent>  (23) 
1

>  <s_lp_Variant>  (23) 
5:0-5

>  <s_i_glide_gridfile>  (23) 
pfpi4k_grid

>  <i_i_glide_lignum>  (23) 
10

>  <i_i_glide_rotatable_bonds>  (23) 
2

>  <r_i_docking_score>  (23) 
-3.06565

>  <r_i_glide_ligand_efficiency>  (23) 
-0.153283

>  <r_i_glide_ligand_efficiency_sa>  (23) 
-0.416073

>  <r_i_glide_ligand_efficiency_ln>  (23) 
-0.767231

>  <r_i_glide_gscore>  (23) 
-3.06565

>  <r_i_glide_lipo>  (23) 
-0.260553

>  <r_i_glide_hbond>  (23) 
0

>  <r_i_glide_metal>  (23) 
-0

>  <r_i_glide_rewards>  (23) 
-1.51756

>  <r_i_glide_evdw>  (23) 
-25.4163

>  <r_i_glide_ecoul>  (23) 
-2.9434

>  <r_i_glide_erotb>  (23) 
0.467972

>  <r_i_glide_esite>  (23) 
-0.0431876

>  <r_i_glide_emodel>  (23) 
-30.2988

>  <r_i_glide_energy>  (23) 
-28.3597

>  <r_i_glide_einternal>  (23) 
9.20012

>  <r_i_glide_intrahb_reward>  (23) 
-0

>  <i_i_glide_confnum>  (23) 
3

>  <i_i_glide_posenum>  (23) 
25

>  <r_i_glide_eff_state_penalty>  (23) 
0

>  <ligand_id>  (23) 
5

>  <original_smiles>  (23) 
C1CC(N2CCC3(CC2)CC(N2CC4CC4C2)CO3)C1

>  <smiles>  (23) 
[H]C1([H])OC2(C([H])([H])C1([H])N1C([H])([H])C3([H])C([H])([H])C3([H])C1([H])[H])C([H])([H])C([H])([H])[N+]([H])(C1([H])C([H])([H])C([H])([H])C1([H])[H])C([H])([H])C2([H])[H]

$$$$
5:4:2
     RDKit          3D

 49 53  0  0  1  0  0  0  0  0999 V2000
    5.4228   -4.0678   -0.4214 C   0  0  0  0  0  0  0  0  0  0  0  0
    4.2423   -4.1274    0.5507 C   0  0  0  0  0  0  0  0  0  0  0  0
    3.9478   -2.6716    0.1660 C   0  0  0  0  0  0  0  0  0  0  0  0
    3.5379   -1.8000    1.2878 N   0  0  2  0  0  0  0  0  0  0  0  0
    2.2132   -2.1888    1.8322 C   0  0  0  0  0  0  0  0  0  0  0  0
    1.8061   -1.3248    3.0334 C   0  0  0  0  0  0  0  0  0  0  0  0
    1.8388    0.1770    2.6979 C   0  0  2  0  0  0  0  0  0  0  0  0
    3.1933    0.5425    2.0794 C   0  0  0  0  0  0  0  0  0  0  0  0
    3.5563   -0.3709    0.9015 C   0  0  0  0  0  0  0  0  0  0  0  0
    1.5252    1.0222    3.9273 C   0  0  0  0  0  0  0  0  0  0  0  0
    0.0170    1.1192    3.8755 C   0  0  1  0  0  0  0  0  0  0  0  0
   -0.5301    2.1834    4.7027 N   0  0  0  0  0  0  0  0  0  0  0  0
   -1.9707    2.3295    4.5901 C   0  0  0  0  0  0  0  0  0  0  0  0
   -2.3769    3.1091    5.8175 C   0  0  1  0  0  0  0  0  0  0  0  0
   -2.6712    2.4556    7.1452 C   0  0  0  0  0  0  0  0  0  0  0  0
   -1.2693    2.8998    6.8172 C   0  0  1  0  0  0  0  0  0  0  0  0
   -0.2715    2.0062    6.1261 C   0  0  0  0  0  0  0  0  0  0  0  0
   -0.2119    1.2678    2.3730 C   0  0  0  0  0  0  0  0  0  0  0  0
    0.7939    0.4655    1.7720 O   0  0  0  0  0  0  0  0  0  0  0  0
    5.4184   -2.5441   -0.2487 C   0  0  0  0  0  0  0  0  0  0  0  0
    5.1522   -4.3759   -1.4319 H   0  0  0  0  0  0  0  0  0  0  0  0
    6.3264   -4.5592   -0.0610 H   0  0  0  0  0  0  0  0  0  0  0  0
    3.4551   -4.8288    0.2654 H   0  0  0  0  0  0  0  0  0  0  0  0
    4.5517   -4.2631    1.5908 H   0  0  0  0  0  0  0  0  0  0  0  0
    3.2813   -2.6112   -0.7000 H   0  0  0  0  0  0  0  0  0  0  0  0
    1.4687   -2.0953    1.0420 H   0  0  0  0  0  0  0  0  0  0  0  0
    2.2179   -3.2350    2.1447 H   0  0  0  0  0  0  0  0  0  0  0  0
    0.8057   -1.6186    3.3515 H   0  0  0  0  0  0  0  0  0  0  0  0
    2.4694   -1.5373    3.8727 H   0  0  0  0  0  0  0  0  0  0  0  0
    3.1670    1.5773    1.7390 H   0  0  0  0  0  0  0  0  0  0  0  0
    3.9757    0.5058    2.8391 H   0  0  0  0  0  0  0  0  0  0  0  0
    4.5350   -0.0750    0.5205 H   0  0  0  0  0  0  0  0  0  0  0  0
    2.8418   -0.2599    0.0888 H   0  0  0  0  0  0  0  0  0  0  0  0
    1.8913    0.5820    4.8544 H   0  0  0  0  0  0  0  0  0  0  0  0
    1.9581    2.0191    3.8398 H   0  0  0  0  0  0  0  0  0  0  0  0
   -0.4091    0.1639    4.1856 H   0  0  0  0  0  0  0  0  0  0  0  0
   -2.2429    2.8593    3.6757 H   0  0  0  0  0  0  0  0  0  0  0  0
   -2.4586    1.3544    4.5941 H   0  0  0  0  0  0  0  0  0  0  0  0
   -2.6826    4.1396    5.6558 H   0  0  0  0  0  0  0  0  0  0  0  0
   -3.2293    3.0287    7.8807 H   0  0  0  0  0  0  0  0  0  0  0  0
   -2.8788    1.3868    7.1397 H   0  0  0  0  0  0  0  0  0  0  0  0
   -0.8716    3.7929    7.2958 H   0  0  0  0  0  0  0  0  0  0  0  0
   -0.4445    0.9730    6.4249 H   0  0  0  0  0  0  0  0  0  0  0  0
    0.7516    2.2854    6.3800 H   0  0  0  0  0  0  0  0  0  0  0  0
   -1.2083    0.9425    2.0697 H   0  0  0  0  0  0  0  0  0  0  0  0
   -0.0848    2.3042    2.0653 H   0  0  0  0  0  0  0  0  0  0  0  0
    6.0819   -2.2017    0.5499 H   0  0  0  0  0  0  0  0  0  0  0  0
    5.5651   -1.9831   -1.1700 H   0  0  0  0  0  0  0  0  0  0  0  0
    4.2188   -1.9199    2.0288 H   0  0  0  0  0  0  0  0  0  0  0  0
  1 20  1  0
  1  2  1  0
  1 21  1  0
  1 22  1  0
  2  3  1  0
  2 23  1  0
  2 24  1  0
  3  4  1  0
  3 20  1  0
  3 25  1  0
  4  9  1  0
  4  5  1  0
  4 49  1  1
  5  6  1  0
  5 26  1  0
  5 27  1  0
  6  7  1  0
  6 28  1  0
  6 29  1  0
  7 19  1  6
  7  8  1  0
  7 10  1  0
  8  9  1  0
  8 30  1  0
  8 31  1  0
  9 32  1  0
  9 33  1  0
 10 11  1  0
 10 34  1  0
 10 35  1  0
 11 12  1  0
 11 18  1  0
 11 36  1  1
 12 17  1  0
 12 13  1  0
 13 14  1  0
 13 37  1  0
 13 38  1  0
 14 16  1  0
 14 15  1  0
 14 39  1  6
 15 16  1  0
 15 40  1  0
 15 41  1  0
 16 17  1  0
 16 42  1  1
 17 43  1  0
 17 44  1  0
 18 19  1  0
 18 45  1  0
 18 46  1  0
 20 47  1  0
 20 48  1  0
M  CHG  1   4   1
M  END
>  <i_m_ct_stereo_status>  (24) 
1

>  <s_m_source_file>  (24) 
/var/tmp/pbs.5076255.sched01/tmp9s019jnz/08u7fdliu.sdf

>  <i_m_source_file_index>  (24) 
10

>  <i_lp_mmshare_version>  (24) 
48012

>  <i_f3d_flags>  (24) 
0

>  <s_epik_input>  (24) 
W0NIMl0xW0NIMl1bQ0gyXVtDSF0xTihbQ0gyXVtDSDJdMilbQ0gyXVtDSDJdQzIzW0NIMl1bQ0BIXShbQ0gyXU8zKU4oW0NIMl00KVtDSDJdW0NAQEhdKFtDQEBIXTQ1KVtDSDJdNQ==

>  <s_epik_cmdline>  (24) 
J2VwaWtfcHl0aG9uJywgJy1waHQnLCAnMi4wJywgJy1waCcsICc3LjAnLCAnLXRuJywgJzgnLCAnLW1hJywgJzIwMCcsICctaW1hZScsICc8aW5maWxlLm1hZT4nLCAnLW9tYWUnLCAnPG91dGZpbGUubWFlPic=

>  <r_epik_Ionization_Penalty>  (24) 
2.48038

>  <r_epik_Ionization_Penalty_Charging>  (24) 
0.00221643

>  <r_epik_Ionization_Penalty_Neutral>  (24) 
2.47816

>  <r_epik_State_Penalty>  (24) 
2.64158

>  <r_epik_Charging_Adjusted_Penalty>  (24) 
2.6438

>  <i_epik_Tot_Q>  (24) 
1

>  <i_epik_Tot_abs_Q>  (24) 
1

>  <s_lp_Force_Field>  (24) 
OPLS3e

>  <r_lp_Energy>  (24) 
38.2203

>  <b_lp_Chiralities_Consistent>  (24) 
1

>  <s_lp_Variant>  (24) 
5:0-5

>  <s_i_glide_gridfile>  (24) 
pfpi4k_grid

>  <i_i_glide_lignum>  (24) 
10

>  <i_i_glide_rotatable_bonds>  (24) 
2

>  <r_i_docking_score>  (24) 
-2.91019

>  <r_i_glide_ligand_efficiency>  (24) 
-0.14551

>  <r_i_glide_ligand_efficiency_sa>  (24) 
-0.394974

>  <r_i_glide_ligand_efficiency_ln>  (24) 
-0.728325

>  <r_i_glide_gscore>  (24) 
-2.91019

>  <r_i_glide_lipo>  (24) 
-0.362453

>  <r_i_glide_hbond>  (24) 
0

>  <r_i_glide_metal>  (24) 
-0

>  <r_i_glide_rewards>  (24) 
-1.51756

>  <r_i_glide_evdw>  (24) 
-22.0159

>  <r_i_glide_ecoul>  (24) 
-2.51487

>  <r_i_glide_erotb>  (24) 
0.467972

>  <r_i_glide_esite>  (24) 
-0.0201267

>  <r_i_glide_emodel>  (24) 
-30.9015

>  <r_i_glide_energy>  (24) 
-24.5308

>  <r_i_glide_einternal>  (24) 
0.0171153

>  <r_i_glide_intrahb_reward>  (24) 
-0

>  <i_i_glide_confnum>  (24) 
1

>  <i_i_glide_posenum>  (24) 
34

>  <r_i_glide_eff_state_penalty>  (24) 
0

>  <ligand_id>  (24) 
5

>  <original_smiles>  (24) 
C1CC(N2CCC3(CC2)CC(N2CC4CC4C2)CO3)C1

>  <smiles>  (24) 
[H]C1([H])OC2(C([H])([H])C1([H])N1C([H])([H])C3([H])C([H])([H])C3([H])C1([H])[H])C([H])([H])C([H])([H])[N+]([H])(C1([H])C([H])([H])C([H])([H])C1([H])[H])C([H])([H])C2([H])[H]

$$$$
5:5:0
     RDKit          3D

 49 53  0  0  1  0  0  0  0  0999 V2000
    2.0754   -9.7546    2.6076 C   0  0  0  0  0  0  0  0  0  0  0  0
    1.9446   -8.2741    2.9957 C   0  0  0  0  0  0  0  0  0  0  0  0
    2.8033   -7.9751    1.7692 C   0  0  0  0  0  0  0  0  0  0  0  0
    3.8159   -6.8940    1.9823 N   0  0  2  0  0  0  0  0  0  0  0  0
    3.1713   -5.5587    2.0726 C   0  0  0  0  0  0  0  0  0  0  0  0
    4.2012   -4.4385    2.3423 C   0  0  0  0  0  0  0  0  0  0  0  0
    5.2987   -4.4606    1.2606 C   0  0  1  0  0  0  0  0  0  0  0  0
    5.9553   -5.8469    1.2054 C   0  0  0  0  0  0  0  0  0  0  0  0
    4.9095   -6.9566    0.9771 C   0  0  0  0  0  0  0  0  0  0  0  0
    4.7298   -4.0297   -0.0963 C   0  0  0  0  0  0  0  0  0  0  0  0
    5.8930   -3.2775   -0.7147 C   0  0  1  0  0  0  0  0  0  0  0  0
    5.5346   -2.4227   -1.8611 N   0  0  0  0  0  0  0  0  0  0  0  0
    4.9055   -3.1498   -2.9703 C   0  0  0  0  0  0  0  0  0  0  0  0
    4.2291   -2.0849   -3.7885 C   0  0  1  0  0  0  0  0  0  0  0  0
    2.8592   -1.5824   -3.4352 C   0  0  0  0  0  0  0  0  0  0  0  0
    4.0776   -0.8972   -2.8866 C   0  0  1  0  0  0  0  0  0  0  0  0
    4.6600   -1.2940   -1.5536 C   0  0  0  0  0  0  0  0  0  0  0  0
    6.5526   -2.6103    0.4941 C   0  0  0  0  0  0  0  0  0  0  0  0
    6.3341   -3.5141    1.5758 O   0  0  0  0  0  0  0  0  0  0  0  0
    3.3732   -9.3852    1.8922 C   0  0  0  0  0  0  0  0  0  0  0  0
    1.2940  -10.0669    1.9126 H   0  0  0  0  0  0  0  0  0  0  0  0
    2.1979  -10.4320    3.4485 H   0  0  0  0  0  0  0  0  0  0  0  0
    0.9323   -7.8705    2.9243 H   0  0  0  0  0  0  0  0  0  0  0  0
    2.4161   -8.0422    3.9571 H   0  0  0  0  0  0  0  0  0  0  0  0
    2.1754   -7.8760    0.8887 H   0  0  0  0  0  0  0  0  0  0  0  0
    2.6468   -5.3484    1.1409 H   0  0  0  0  0  0  0  0  0  0  0  0
    2.4113   -5.5314    2.8558 H   0  0  0  0  0  0  0  0  0  0  0  0
    3.6924   -3.4704    2.3616 H   0  0  0  0  0  0  0  0  0  0  0  0
    4.6320   -4.5450    3.3391 H   0  0  0  0  0  0  0  0  0  0  0  0
    6.7092   -5.8669    0.4216 H   0  0  0  0  0  0  0  0  0  0  0  0
    6.5089   -6.0167    2.1295 H   0  0  0  0  0  0  0  0  0  0  0  0
    5.4372   -7.9096    0.9928 H   0  0  0  0  0  0  0  0  0  0  0  0
    4.4688   -6.8787   -0.0194 H   0  0  0  0  0  0  0  0  0  0  0  0
    4.4267   -4.8637   -0.7362 H   0  0  0  0  0  0  0  0  0  0  0  0
    3.8674   -3.3703    0.0383 H   0  0  0  0  0  0  0  0  0  0  0  0
    6.6089   -4.0200   -1.0740 H   0  0  0  0  0  0  0  0  0  0  0  0
    5.6389   -3.7186   -3.5468 H   0  0  0  0  0  0  0  0  0  0  0  0
    4.1237   -3.8448   -2.6363 H   0  0  0  0  0  0  0  0  0  0  0  0
    4.6114   -1.8856   -4.7685 H   0  0  0  0  0  0  0  0  0  0  0  0
    2.2892   -1.0644   -4.2088 H   0  0  0  0  0  0  0  0  0  0  0  0
    2.2526   -2.1738   -2.7341 H   0  0  0  0  0  0  0  0  0  0  0  0
    4.3534    0.0711   -3.2834 H   0  0  0  0  0  0  0  0  0  0  0  0
    3.8304   -1.5650   -0.8824 H   0  0  0  0  0  0  0  0  0  0  0  0
    5.2342   -0.4610   -1.1374 H   0  0  0  0  0  0  0  0  0  0  0  0
    7.6154   -2.4311    0.3455 H   0  0  0  0  0  0  0  0  0  0  0  0
    6.0825   -1.6699    0.7568 H   0  0  0  0  0  0  0  0  0  0  0  0
    4.2523   -9.4778    2.5368 H   0  0  0  0  0  0  0  0  0  0  0  0
    3.5279   -9.8618    0.9253 H   0  0  0  0  0  0  0  0  0  0  0  0
    4.2410   -7.0779    2.8769 H   0  0  0  0  0  0  0  0  0  0  0  0
  1 20  1  0
  1  2  1  0
  1 21  1  0
  1 22  1  0
  2  3  1  0
  2 23  1  0
  2 24  1  0
  3  4  1  0
  3 20  1  0
  3 25  1  0
  4  9  1  0
  4  5  1  0
  4 49  1  1
  5  6  1  0
  5 26  1  0
  5 27  1  0
  6  7  1  0
  6 28  1  0
  6 29  1  0
  7 19  1  1
  7  8  1  0
  7 10  1  0
  8  9  1  0
  8 30  1  0
  8 31  1  0
  9 32  1  0
  9 33  1  0
 10 11  1  0
 10 34  1  0
 10 35  1  0
 11 12  1  0
 11 18  1  0
 11 36  1  6
 12 17  1  0
 12 13  1  0
 13 14  1  0
 13 37  1  0
 13 38  1  0
 14 16  1  0
 14 15  1  0
 14 39  1  6
 15 16  1  0
 15 40  1  0
 15 41  1  0
 16 17  1  0
 16 42  1  6
 17 43  1  0
 17 44  1  0
 18 19  1  0
 18 45  1  0
 18 46  1  0
 20 47  1  0
 20 48  1  0
M  CHG  1   4   1
M  END
>  <i_m_ct_stereo_status>  (25) 
1

>  <s_m_source_file>  (25) 
/var/tmp/pbs.5076255.sched01/tmp9s019jnz/08u7fdliu.sdf

>  <i_m_source_file_index>  (25) 
11

>  <i_lp_mmshare_version>  (25) 
48012

>  <i_f3d_flags>  (25) 
0

>  <s_epik_input>  (25) 
W0NIMl0xW0NIMl1bQ0gyXVtDSF0xTihbQ0gyXVtDSDJdMilbQ0gyXVtDSDJdQzIzW0NIMl1bQ0BIXShbQ0gyXU8zKU4oW0NIMl00KVtDSDJdW0NAQEhdKFtDQEBIXTQ1KVtDSDJdNQ==

>  <s_epik_cmdline>  (25) 
J2VwaWtfcHl0aG9uJywgJy1waHQnLCAnMi4wJywgJy1waCcsICc3LjAnLCAnLXRuJywgJzgnLCAnLW1hJywgJzIwMCcsICctaW1hZScsICc8aW5maWxlLm1hZT4nLCAnLW9tYWUnLCAnPG91dGZpbGUubWFlPic=

>  <r_epik_Ionization_Penalty>  (25) 
2.48038

>  <r_epik_Ionization_Penalty_Charging>  (25) 
0.00221643

>  <r_epik_Ionization_Penalty_Neutral>  (25) 
2.47816

>  <r_epik_State_Penalty>  (25) 
2.64158

>  <r_epik_Charging_Adjusted_Penalty>  (25) 
2.6438

>  <i_epik_Tot_Q>  (25) 
1

>  <i_epik_Tot_abs_Q>  (25) 
1

>  <s_lp_Force_Field>  (25) 
OPLS3e

>  <r_lp_Energy>  (25) 
40.5852

>  <b_lp_Chiralities_Consistent>  (25) 
1

>  <s_lp_Variant>  (25) 
5:0-6

>  <s_i_glide_gridfile>  (25) 
pfpi4k_grid

>  <i_i_glide_lignum>  (25) 
11

>  <i_i_glide_rotatable_bonds>  (25) 
2

>  <r_i_docking_score>  (25) 
-3.70966

>  <r_i_glide_ligand_efficiency>  (25) 
-0.185483

>  <r_i_glide_ligand_efficiency_sa>  (25) 
-0.503478

>  <r_i_glide_ligand_efficiency_ln>  (25) 
-0.928405

>  <r_i_glide_gscore>  (25) 
-3.70966

>  <r_i_glide_lipo>  (25) 
-0.955939

>  <r_i_glide_hbond>  (25) 
0

>  <r_i_glide_metal>  (25) 
-0

>  <r_i_glide_rewards>  (25) 
-1.51756

>  <r_i_glide_evdw>  (25) 
-27.0219

>  <r_i_glide_ecoul>  (25) 
-2.35362

>  <r_i_glide_erotb>  (25) 
0.467972

>  <r_i_glide_esite>  (25) 
0

>  <r_i_glide_emodel>  (25) 
-32.5866

>  <r_i_glide_energy>  (25) 
-29.3755

>  <r_i_glide_einternal>  (25) 
8.15097

>  <r_i_glide_intrahb_reward>  (25) 
-0

>  <i_i_glide_confnum>  (25) 
6

>  <i_i_glide_posenum>  (25) 
11

>  <r_i_glide_eff_state_penalty>  (25) 
0

>  <ligand_id>  (25) 
5

>  <original_smiles>  (25) 
C1CC(N2CCC3(CC2)CC(N2CC4CC4C2)CO3)C1

>  <smiles>  (25) 
[H]C1([H])OC2(C([H])([H])C1([H])N1C([H])([H])C3([H])C([H])([H])C3([H])C1([H])[H])C([H])([H])C([H])([H])[N+]([H])(C1([H])C([H])([H])C([H])([H])C1([H])[H])C([H])([H])C2([H])[H]

$$$$
5:5:1
     RDKit          3D

 49 53  0  0  1  0  0  0  0  0999 V2000
    1.0162  -11.4338    4.4890 C   0  0  0  0  0  0  0  0  0  0  0  0
    2.0660  -10.4821    5.0631 C   0  0  0  0  0  0  0  0  0  0  0  0
    2.0519   -9.7841    3.7005 C   0  0  0  0  0  0  0  0  0  0  0  0
    3.3922   -9.3633    3.2097 N   0  0  2  0  0  0  0  0  0  0  0  0
    3.9246   -8.2354    4.0168 C   0  0  0  0  0  0  0  0  0  0  0  0
    5.3217   -7.7940    3.5473 C   0  0  0  0  0  0  0  0  0  0  0  0
    5.2937   -7.4196    2.0569 C   0  0  1  0  0  0  0  0  0  0  0  0
    4.7598   -8.6207    1.2459 C   0  0  0  0  0  0  0  0  0  0  0  0
    3.3755   -9.0768    1.7479 C   0  0  0  0  0  0  0  0  0  0  0  0
    4.5261   -6.1241    1.7809 C   0  0  0  0  0  0  0  0  0  0  0  0
    5.2570   -5.5613    0.5875 C   0  0  1  0  0  0  0  0  0  0  0  0
    4.9651   -4.1557    0.3450 N   0  0  0  0  0  0  0  0  0  0  0  0
    5.7086   -3.5853   -0.7621 C   0  0  0  0  0  0  0  0  0  0  0  0
    4.9503   -2.3349   -1.1365 C   0  0  1  0  0  0  0  0  0  0  0  0
    3.7931   -2.3460   -2.0892 C   0  0  0  0  0  0  0  0  0  0  0  0
    3.5579   -2.5386   -0.6246 C   0  0  1  0  0  0  0  0  0  0  0  0
    3.5634   -3.8953    0.0323 C   0  0  0  0  0  0  0  0  0  0  0  0
    6.6987   -5.8976    0.9598 C   0  0  0  0  0  0  0  0  0  0  0  0
    6.6247   -7.1567    1.6085 O   0  0  0  0  0  0  0  0  0  0  0  0
    1.5540  -11.0974    3.1077 C   0  0  0  0  0  0  0  0  0  0  0  0
    0.0041  -11.0661    4.6338 H   0  0  0  0  0  0  0  0  0  0  0  0
    1.1409  -12.4735    4.7912 H   0  0  0  0  0  0  0  0  0  0  0  0
    1.7111   -9.8560    5.8885 H   0  0  0  0  0  0  0  0  0  0  0  0
    3.0041  -10.9871    5.3077 H   0  0  0  0  0  0  0  0  0  0  0  0
    1.2788   -9.0178    3.6520 H   0  0  0  0  0  0  0  0  0  0  0  0
    3.2417   -7.3874    3.9408 H   0  0  0  0  0  0  0  0  0  0  0  0
    3.9719   -8.4937    5.0752 H   0  0  0  0  0  0  0  0  0  0  0  0
    5.6687   -6.9489    4.1473 H   0  0  0  0  0  0  0  0  0  0  0  0
    6.0481   -8.5899    3.7344 H   0  0  0  0  0  0  0  0  0  0  0  0
    4.6988   -8.3800    0.1861 H   0  0  0  0  0  0  0  0  0  0  0  0
    5.4618   -9.4546    1.3033 H   0  0  0  0  0  0  0  0  0  0  0  0
    3.0657   -9.9500    1.1718 H   0  0  0  0  0  0  0  0  0  0  0  0
    2.6265   -8.3059    1.5570 H   0  0  0  0  0  0  0  0  0  0  0  0
    3.4631   -6.2429    1.5709 H   0  0  0  0  0  0  0  0  0  0  0  0
    4.6199   -5.4233    2.6121 H   0  0  0  0  0  0  0  0  0  0  0  0
    4.9865   -6.1506   -0.2965 H   0  0  0  0  0  0  0  0  0  0  0  0
    6.7323   -3.3665   -0.4697 H   0  0  0  0  0  0  0  0  0  0  0  0
    5.7092   -4.2684   -1.6167 H   0  0  0  0  0  0  0  0  0  0  0  0
    5.4220   -1.3866   -0.8757 H   0  0  0  0  0  0  0  0  0  0  0  0
    3.4779   -1.3986   -2.5375 H   0  0  0  0  0  0  0  0  0  0  0  0
    3.6684   -3.2196   -2.7402 H   0  0  0  0  0  0  0  0  0  0  0  0
    3.1187   -1.7246   -0.0449 H   0  0  0  0  0  0  0  0  0  0  0  0
    3.1777   -4.6382   -0.6737 H   0  0  0  0  0  0  0  0  0  0  0  0
    2.9494   -3.9045    0.9299 H   0  0  0  0  0  0  0  0  0  0  0  0
    7.3458   -5.9491    0.0818 H   0  0  0  0  0  0  0  0  0  0  0  0
    7.1029   -5.1625    1.6430 H   0  0  0  0  0  0  0  0  0  0  0  0
    2.3467  -11.7792    2.7859 H   0  0  0  0  0  0  0  0  0  0  0  0
    0.7789  -10.9669    2.3462 H   0  0  0  0  0  0  0  0  0  0  0  0
    4.0034  -10.1550    3.3441 H   0  0  0  0  0  0  0  0  0  0  0  0
  1 20  1  0
  1  2  1  0
  1 21  1  0
  1 22  1  0
  2  3  1  0
  2 23  1  0
  2 24  1  0
  3  4  1  0
  3 20  1  0
  3 25  1  0
  4  9  1  0
  4  5  1  0
  4 49  1  6
  5  6  1  0
  5 26  1  0
  5 27  1  0
  6  7  1  0
  6 28  1  0
  6 29  1  0
  7 19  1  6
  7  8  1  0
  7 10  1  0
  8  9  1  0
  8 30  1  0
  8 31  1  0
  9 32  1  0
  9 33  1  0
 10 11  1  0
 10 34  1  0
 10 35  1  0
 11 12  1  0
 11 18  1  0
 11 36  1  6
 12 17  1  0
 12 13  1  0
 13 14  1  0
 13 37  1  0
 13 38  1  0
 14 16  1  0
 14 15  1  0
 14 39  1  1
 15 16  1  0
 15 40  1  0
 15 41  1  0
 16 17  1  0
 16 42  1  1
 17 43  1  0
 17 44  1  0
 18 19  1  0
 18 45  1  0
 18 46  1  0
 20 47  1  0
 20 48  1  0
M  CHG  1   4   1
M  END
>  <i_m_ct_stereo_status>  (26) 
1

>  <s_m_source_file>  (26) 
/var/tmp/pbs.5076255.sched01/tmp9s019jnz/08u7fdliu.sdf

>  <i_m_source_file_index>  (26) 
11

>  <i_lp_mmshare_version>  (26) 
48012

>  <i_f3d_flags>  (26) 
0

>  <s_epik_input>  (26) 
W0NIMl0xW0NIMl1bQ0gyXVtDSF0xTihbQ0gyXVtDSDJdMilbQ0gyXVtDSDJdQzIzW0NIMl1bQ0BIXShbQ0gyXU8zKU4oW0NIMl00KVtDSDJdW0NAQEhdKFtDQEBIXTQ1KVtDSDJdNQ==

>  <s_epik_cmdline>  (26) 
J2VwaWtfcHl0aG9uJywgJy1waHQnLCAnMi4wJywgJy1waCcsICc3LjAnLCAnLXRuJywgJzgnLCAnLW1hJywgJzIwMCcsICctaW1hZScsICc8aW5maWxlLm1hZT4nLCAnLW9tYWUnLCAnPG91dGZpbGUubWFlPic=

>  <r_epik_Ionization_Penalty>  (26) 
2.48038

>  <r_epik_Ionization_Penalty_Charging>  (26) 
0.00221643

>  <r_epik_Ionization_Penalty_Neutral>  (26) 
2.47816

>  <r_epik_State_Penalty>  (26) 
2.64158

>  <r_epik_Charging_Adjusted_Penalty>  (26) 
2.6438

>  <i_epik_Tot_Q>  (26) 
1

>  <i_epik_Tot_abs_Q>  (26) 
1

>  <s_lp_Force_Field>  (26) 
OPLS3e

>  <r_lp_Energy>  (26) 
40.5852

>  <b_lp_Chiralities_Consistent>  (26) 
1

>  <s_lp_Variant>  (26) 
5:0-6

>  <s_i_glide_gridfile>  (26) 
pfpi4k_grid

>  <i_i_glide_lignum>  (26) 
11

>  <i_i_glide_rotatable_bonds>  (26) 
2

>  <r_i_docking_score>  (26) 
-3.13524

>  <r_i_glide_ligand_efficiency>  (26) 
-0.156762

>  <r_i_glide_ligand_efficiency_sa>  (26) 
-0.425518

>  <r_i_glide_ligand_efficiency_ln>  (26) 
-0.784648

>  <r_i_glide_gscore>  (26) 
-3.13524

>  <r_i_glide_lipo>  (26) 
-0.50945

>  <r_i_glide_hbond>  (26) 
0

>  <r_i_glide_metal>  (26) 
-0

>  <r_i_glide_rewards>  (26) 
-1.51756

>  <r_i_glide_evdw>  (26) 
-23.2333

>  <r_i_glide_ecoul>  (26) 
-2.68774

>  <r_i_glide_erotb>  (26) 
0.467972

>  <r_i_glide_esite>  (26) 
-0.0113823

>  <r_i_glide_emodel>  (26) 
-32.3443

>  <r_i_glide_energy>  (26) 
-25.9211

>  <r_i_glide_einternal>  (26) 
0.0206663

>  <r_i_glide_intrahb_reward>  (26) 
-0

>  <i_i_glide_confnum>  (26) 
3

>  <i_i_glide_posenum>  (26) 
8

>  <r_i_glide_eff_state_penalty>  (26) 
0

>  <ligand_id>  (26) 
5

>  <original_smiles>  (26) 
C1CC(N2CCC3(CC2)CC(N2CC4CC4C2)CO3)C1

>  <smiles>  (26) 
[H]C1([H])OC2(C([H])([H])C1([H])N1C([H])([H])C3([H])C([H])([H])C3([H])C1([H])[H])C([H])([H])C([H])([H])[N+]([H])(C1([H])C([H])([H])C([H])([H])C1([H])[H])C([H])([H])C2([H])[H]

$$$$
5:5:2
     RDKit          3D

 49 53  0  0  1  0  0  0  0  0999 V2000
    3.5482   -1.1304   -3.6717 C   0  0  0  0  0  0  0  0  0  0  0  0
    2.8937   -2.2256   -2.8148 C   0  0  0  0  0  0  0  0  0  0  0  0
    3.5952   -1.5914   -1.6033 C   0  0  0  0  0  0  0  0  0  0  0  0
    4.1430   -2.5091   -0.5785 N   0  0  2  0  0  0  0  0  0  0  0  0
    4.4243   -3.8678   -1.1135 C   0  0  0  0  0  0  0  0  0  0  0  0
    5.0359   -4.8015   -0.0509 C   0  0  0  0  0  0  0  0  0  0  0  0
    4.1098   -4.8896    1.1702 C   0  0  1  0  0  0  0  0  0  0  0  0
    3.8504   -3.4739    1.7102 C   0  0  0  0  0  0  0  0  0  0  0  0
    3.2712   -2.5507    0.6207 C   0  0  0  0  0  0  0  0  0  0  0  0
    2.8096   -5.6359    0.8665 C   0  0  0  0  0  0  0  0  0  0  0  0
    2.5071   -6.2925    2.1947 C   0  0  1  0  0  0  0  0  0  0  0  0
    1.5293   -7.3726    2.1007 N   0  0  0  0  0  0  0  0  0  0  0  0
    1.3009   -8.0533    3.3655 C   0  0  0  0  0  0  0  0  0  0  0  0
   -0.0164   -8.7648    3.1873 C   0  0  1  0  0  0  0  0  0  0  0  0
   -1.3472   -8.1021    3.4622 C   0  0  0  0  0  0  0  0  0  0  0  0
   -0.7311   -8.0278    2.0860 C   0  0  1  0  0  0  0  0  0  0  0  0
    0.2076   -6.9294    1.6697 C   0  0  0  0  0  0  0  0  0  0  0  0
    3.9103   -6.7006    2.6395 C   0  0  0  0  0  0  0  0  0  0  0  0
    4.7574   -5.6583    2.1831 O   0  0  0  0  0  0  0  0  0  0  0  0
    4.6121   -0.9924   -2.5757 C   0  0  0  0  0  0  0  0  0  0  0  0
    2.9174   -0.2498   -3.7826 H   0  0  0  0  0  0  0  0  0  0  0  0
    3.9379   -1.4877   -4.6207 H   0  0  0  0  0  0  0  0  0  0  0  0
    1.8104   -2.1853   -2.7695 H   0  0  0  0  0  0  0  0  0  0  0  0
    3.2312   -3.2186   -3.1092 H   0  0  0  0  0  0  0  0  0  0  0  0
    3.0184   -0.7752   -1.1651 H   0  0  0  0  0  0  0  0  0  0  0  0
    3.4832   -4.2795   -1.4592 H   0  0  0  0  0  0  0  0  0  0  0  0
    5.0801   -3.8450   -1.9829 H   0  0  0  0  0  0  0  0  0  0  0  0
    5.1937   -5.7919   -0.4799 H   0  0  0  0  0  0  0  0  0  0  0  0
    6.0335   -4.4608    0.2342 H   0  0  0  0  0  0  0  0  0  0  0  0
    3.1793   -3.5114    2.5668 H   0  0  0  0  0  0  0  0  0  0  0  0
    4.7804   -3.0546    2.1006 H   0  0  0  0  0  0  0  0  0  0  0  0
    3.1460   -1.5458    1.0345 H   0  0  0  0  0  0  0  0  0  0  0  0
    2.2721   -2.8838    0.3304 H   0  0  0  0  0  0  0  0  0  0  0  0
    1.9890   -5.0078    0.5364 H   0  0  0  0  0  0  0  0  0  0  0  0
    2.9624   -6.3994    0.1066 H   0  0  0  0  0  0  0  0  0  0  0  0
    2.1385   -5.5314    2.8880 H   0  0  0  0  0  0  0  0  0  0  0  0
    2.1059   -8.7587    3.5771 H   0  0  0  0  0  0  0  0  0  0  0  0
    1.2212   -7.3387    4.1864 H   0  0  0  0  0  0  0  0  0  0  0  0
    0.0224   -9.8469    3.0898 H   0  0  0  0  0  0  0  0  0  0  0  0
   -2.2068   -8.7509    3.6042 H   0  0  0  0  0  0  0  0  0  0  0  0
   -1.3416   -7.1987    4.0749 H   0  0  0  0  0  0  0  0  0  0  0  0
   -1.1546   -8.6361    1.2908 H   0  0  0  0  0  0  0  0  0  0  0  0
   -0.0654   -6.0072    2.1799 H   0  0  0  0  0  0  0  0  0  0  0  0
    0.1766   -6.7733    0.5917 H   0  0  0  0  0  0  0  0  0  0  0  0
    3.9819   -6.8112    3.7193 H   0  0  0  0  0  0  0  0  0  0  0  0
    4.2009   -7.6373    2.1717 H   0  0  0  0  0  0  0  0  0  0  0  0
    5.4808   -1.6300   -2.7197 H   0  0  0  0  0  0  0  0  0  0  0  0
    4.8845    0.0334   -2.3315 H   0  0  0  0  0  0  0  0  0  0  0  0
    5.0189   -2.1213   -0.2631 H   0  0  0  0  0  0  0  0  0  0  0  0
  1 20  1  0
  1  2  1  0
  1 21  1  0
  1 22  1  0
  2  3  1  0
  2 23  1  0
  2 24  1  0
  3  4  1  0
  3 20  1  0
  3 25  1  0
  4  9  1  0
  4  5  1  0
  4 49  1  1
  5  6  1  0
  5 26  1  0
  5 27  1  0
  6  7  1  0
  6 28  1  0
  6 29  1  0
  7 19  1  1
  7  8  1  0
  7 10  1  0
  8  9  1  0
  8 30  1  0
  8 31  1  0
  9 32  1  0
  9 33  1  0
 10 11  1  0
 10 34  1  0
 10 35  1  0
 11 12  1  0
 11 18  1  0
 11 36  1  1
 12 17  1  0
 12 13  1  0
 13 14  1  0
 13 37  1  0
 13 38  1  0
 14 16  1  0
 14 15  1  0
 14 39  1  6
 15 16  1  0
 15 40  1  0
 15 41  1  0
 16 17  1  0
 16 42  1  6
 17 43  1  0
 17 44  1  0
 18 19  1  0
 18 45  1  0
 18 46  1  0
 20 47  1  0
 20 48  1  0
M  CHG  1   4   1
M  END
>  <i_m_ct_stereo_status>  (27) 
1

>  <s_m_source_file>  (27) 
/var/tmp/pbs.5076255.sched01/tmp9s019jnz/08u7fdliu.sdf

>  <i_m_source_file_index>  (27) 
11

>  <i_lp_mmshare_version>  (27) 
48012

>  <i_f3d_flags>  (27) 
0

>  <s_epik_input>  (27) 
W0NIMl0xW0NIMl1bQ0gyXVtDSF0xTihbQ0gyXVtDSDJdMilbQ0gyXVtDSDJdQzIzW0NIMl1bQ0BIXShbQ0gyXU8zKU4oW0NIMl00KVtDSDJdW0NAQEhdKFtDQEBIXTQ1KVtDSDJdNQ==

>  <s_epik_cmdline>  (27) 
J2VwaWtfcHl0aG9uJywgJy1waHQnLCAnMi4wJywgJy1waCcsICc3LjAnLCAnLXRuJywgJzgnLCAnLW1hJywgJzIwMCcsICctaW1hZScsICc8aW5maWxlLm1hZT4nLCAnLW9tYWUnLCAnPG91dGZpbGUubWFlPic=

>  <r_epik_Ionization_Penalty>  (27) 
2.48038

>  <r_epik_Ionization_Penalty_Charging>  (27) 
0.00221643

>  <r_epik_Ionization_Penalty_Neutral>  (27) 
2.47816

>  <r_epik_State_Penalty>  (27) 
2.64158

>  <r_epik_Charging_Adjusted_Penalty>  (27) 
2.6438

>  <i_epik_Tot_Q>  (27) 
1

>  <i_epik_Tot_abs_Q>  (27) 
1

>  <s_lp_Force_Field>  (27) 
OPLS3e

>  <r_lp_Energy>  (27) 
40.5852

>  <b_lp_Chiralities_Consistent>  (27) 
1

>  <s_lp_Variant>  (27) 
5:0-6

>  <s_i_glide_gridfile>  (27) 
pfpi4k_grid

>  <i_i_glide_lignum>  (27) 
11

>  <i_i_glide_rotatable_bonds>  (27) 
2

>  <r_i_docking_score>  (27) 
-3.10718

>  <r_i_glide_ligand_efficiency>  (27) 
-0.155359

>  <r_i_glide_ligand_efficiency_sa>  (27) 
-0.421709

>  <r_i_glide_ligand_efficiency_ln>  (27) 
-0.777625

>  <r_i_glide_gscore>  (27) 
-3.10718

>  <r_i_glide_lipo>  (27) 
-0.289369

>  <r_i_glide_hbond>  (27) 
0

>  <r_i_glide_metal>  (27) 
-0

>  <r_i_glide_rewards>  (27) 
-1.51756

>  <r_i_glide_evdw>  (27) 
-27.3255

>  <r_i_glide_ecoul>  (27) 
-2.57782

>  <r_i_glide_erotb>  (27) 
0.467972

>  <r_i_glide_esite>  (27) 
-0.0152772

>  <r_i_glide_emodel>  (27) 
-31.0452

>  <r_i_glide_energy>  (27) 
-29.9034

>  <r_i_glide_einternal>  (27) 
9.95922

>  <r_i_glide_intrahb_reward>  (27) 
-0

>  <i_i_glide_confnum>  (27) 
3

>  <i_i_glide_posenum>  (27) 
19

>  <r_i_glide_eff_state_penalty>  (27) 
0

>  <ligand_id>  (27) 
5

>  <original_smiles>  (27) 
C1CC(N2CCC3(CC2)CC(N2CC4CC4C2)CO3)C1

>  <smiles>  (27) 
[H]C1([H])OC2(C([H])([H])C1([H])N1C([H])([H])C3([H])C([H])([H])C3([H])C1([H])[H])C([H])([H])C([H])([H])[N+]([H])(C1([H])C([H])([H])C([H])([H])C1([H])[H])C([H])([H])C2([H])[H]

$$$$
6:0:0
     RDKit          3D

 33 35  0  0  1  0  0  0  0  0999 V2000
    5.1153   -3.5365   -3.3222 C   0  0  0  0  0  0  0  0  0  0  0  0
    4.6748   -2.9804   -1.9920 C   0  0  0  0  0  0  0  0  0  0  0  0
    4.2362   -3.8520   -0.9702 C   0  0  0  0  0  0  0  0  0  0  0  0
    3.8045   -3.3297    0.2630 C   0  0  0  0  0  0  0  0  0  0  0  0
    3.8213   -1.9393    0.4709 C   0  0  0  0  0  0  0  0  0  0  0  0
    3.3068   -1.2967    2.0435 S   0  0  0  0  0  0  0  0  0  0  0  0
    2.9882   -2.4311    2.9236 O   0  0  0  0  0  0  0  0  0  0  0  0
    4.2528   -0.2531    2.4625 O   0  0  0  0  0  0  0  0  0  0  0  0
    1.8077   -0.4861    1.7003 N   0  0  0  0  0  0  0  0  0  0  0  0
    0.8769    0.0148    2.6190 C   0  0  0  0  0  0  0  0  0  0  0  0
   -0.0810    0.9630    2.1964 C   0  0  0  0  0  0  0  0  0  0  0  0
   -1.0300    1.4552    3.1151 C   0  0  0  0  0  0  0  0  0  0  0  0
   -1.0205    0.9876    4.4409 C   0  0  0  0  0  0  0  0  0  0  0  0
   -1.7811    1.2454    5.5652 N   0  0  0  0  0  0  0  0  0  0  0  0
   -1.3960    0.5469    6.6652 N   0  0  0  0  0  0  0  0  0  0  0  0
   -0.3774   -0.1859    6.2782 C   0  0  0  0  0  0  0  0  0  0  0  0
   -0.0770    0.0358    4.8951 C   0  0  0  0  0  0  0  0  0  0  0  0
    0.8693   -0.4337    3.9630 C   0  0  0  0  0  0  0  0  0  0  0  0
    4.2650   -1.0625   -0.5333 C   0  0  0  0  0  0  0  0  0  0  0  0
    4.6866   -1.5856   -1.7718 C   0  0  0  0  0  0  0  0  0  0  0  0
   -2.5502    1.8968    5.6197 H   0  0  0  0  0  0  0  0  0  0  0  0
    5.0416   -4.6232   -3.3447 H   0  0  0  0  0  0  0  0  0  0  0  0
    6.1461   -3.2556   -3.5208 H   0  0  0  0  0  0  0  0  0  0  0  0
    4.4820   -3.1466   -4.1187 H   0  0  0  0  0  0  0  0  0  0  0  0
    4.2222   -4.9211   -1.1227 H   0  0  0  0  0  0  0  0  0  0  0  0
    3.4772   -4.0035    1.0424 H   0  0  0  0  0  0  0  0  0  0  0  0
    1.5781   -0.3619    0.7146 H   0  0  0  0  0  0  0  0  0  0  0  0
   -0.0921    1.3185    1.1731 H   0  0  0  0  0  0  0  0  0  0  0  0
   -1.7589    2.1823    2.7955 H   0  0  0  0  0  0  0  0  0  0  0  0
    0.1205   -0.8401    6.9790 H   0  0  0  0  0  0  0  0  0  0  0  0
    1.5824   -1.1579    4.3184 H   0  0  0  0  0  0  0  0  0  0  0  0
    4.2827    0.0013   -0.3473 H   0  0  0  0  0  0  0  0  0  0  0  0
    5.0150   -0.9189   -2.5538 H   0  0  0  0  0  0  0  0  0  0  0  0
  1  2  1  0
  1 22  1  0
  1 23  1  0
  1 24  1  0
  2 20  2  0
  2  3  1  0
  3  4  2  0
  3 25  1  0
  4  5  1  0
  4 26  1  0
  5  6  1  0
  5 19  2  0
  6  7  2  0
  6  8  2  0
  6  9  1  0
  9 10  1  0
  9 27  1  0
 10 18  1  0
 10 11  2  0
 11 12  1  0
 11 28  1  0
 12 13  2  0
 12 29  1  0
 13 17  1  0
 13 14  1  0
 14 21  1  0
 14 15  1  0
 15 16  2  0
 16 17  1  0
 16 30  1  0
 17 18  2  0
 18 31  1  0
 19 20  1  0
 19 32  1  0
 20 33  1  0
M  END
>  <i_m_ct_stereo_status>  (28) 
1

>  <s_m_source_file>  (28) 
/var/tmp/pbs.5076255.sched01/tmp9s019jnz/08u7fdliu.sdf

>  <i_m_source_file_index>  (28) 
12

>  <i_lp_mmshare_version>  (28) 
48012

>  <i_f3d_flags>  (28) 
0

>  <s_epik_input>  (28) 
W0NIM11jMVtjSF1bY0hdYyhbY0hdW2NIXTEpUyg9TykoPU8pW05IXWMoW2NIXVtjSF0yKVtjSF1jKGMyMylbY0hdbltuSF0z

>  <s_epik_cmdline>  (28) 
J2VwaWtfcHl0aG9uJywgJy1waHQnLCAnMi4wJywgJy1waCcsICc3LjAnLCAnLXRuJywgJzgnLCAnLW1hJywgJzIwMCcsICctaW1hZScsICc8aW5maWxlLm1hZT4nLCAnLW9tYWUnLCAnPG91dGZpbGUubWFlPic=

>  <r_epik_Ionization_Penalty>  (28) 
0.0127109

>  <r_epik_Ionization_Penalty_Charging>  (28) 
0

>  <r_epik_Ionization_Penalty_Neutral>  (28) 
0.0127109

>  <r_epik_State_Penalty>  (28) 
0.00985171

>  <r_epik_Charging_Adjusted_Penalty>  (28) 
0.00985171

>  <i_epik_Tot_Q>  (28) 
0

>  <i_epik_Tot_abs_Q>  (28) 
0

>  <s_lp_Force_Field>  (28) 
OPLS3e

>  <r_lp_Energy>  (28) 
19.6538

>  <b_lp_Chiralities_Consistent>  (28) 
1

>  <s_lp_Variant>  (28) 
6:0-1

>  <s_i_glide_gridfile>  (28) 
pfpi4k_grid

>  <i_i_glide_lignum>  (28) 
12

>  <i_i_glide_rotatable_bonds>  (28) 
3

>  <r_i_docking_score>  (28) 
-3.45916

>  <r_i_glide_ligand_efficiency>  (28) 
-0.172958

>  <r_i_glide_ligand_efficiency_sa>  (28) 
-0.46948

>  <r_i_glide_ligand_efficiency_ln>  (28) 
-0.865714

>  <r_i_glide_gscore>  (28) 
-3.45916

>  <r_i_glide_lipo>  (28) 
-0.235518

>  <r_i_glide_hbond>  (28) 
-0.315926

>  <r_i_glide_metal>  (28) 
-0

>  <r_i_glide_rewards>  (28) 
-1.44997

>  <r_i_glide_evdw>  (28) 
-24.5775

>  <r_i_glide_ecoul>  (28) 
-5.00442

>  <r_i_glide_erotb>  (28) 
0.660396

>  <r_i_glide_esite>  (28) 
-0.138604

>  <r_i_glide_emodel>  (28) 
-35.6522

>  <r_i_glide_energy>  (28) 
-29.582

>  <r_i_glide_einternal>  (28) 
2.37212

>  <r_i_glide_intrahb_reward>  (28) 
-0

>  <i_i_glide_confnum>  (28) 
5

>  <i_i_glide_posenum>  (28) 
1

>  <r_i_glide_eff_state_penalty>  (28) 
0

>  <ligand_id>  (28) 
6

>  <original_smiles>  (28) 
Cc1ccc(S(=O)(=O)Nc2ccc3[nH]ncc3c2)cc1

>  <smiles>  (28) 
[H]c1c([H])c(S(=O)(=O)N([H])c2c([H])c([H])c3c(c([H])nn3[H])c2[H])c([H])c([H])c1C([H])([H])[H]

$$$$
6:0:1
     RDKit          3D

 33 35  0  0  1  0  0  0  0  0999 V2000
    5.5300   -3.5750   -3.0889 C   0  0  0  0  0  0  0  0  0  0  0  0
    4.9888   -3.0171   -1.7993 C   0  0  0  0  0  0  0  0  0  0  0  0
    5.8449   -2.3589   -0.8896 C   0  0  0  0  0  0  0  0  0  0  0  0
    5.3251   -1.8326    0.3097 C   0  0  0  0  0  0  0  0  0  0  0  0
    3.9534   -1.9763    0.5910 C   0  0  0  0  0  0  0  0  0  0  0  0
    3.3058   -1.3599    2.1290 S   0  0  0  0  0  0  0  0  0  0  0  0
    2.9418   -2.5168    2.9624 O   0  0  0  0  0  0  0  0  0  0  0  0
    4.1921   -0.3027    2.6390 O   0  0  0  0  0  0  0  0  0  0  0  0
    1.8171   -0.5704    1.7067 N   0  0  0  0  0  0  0  0  0  0  0  0
    0.8827    0.0008    2.5743 C   0  0  0  0  0  0  0  0  0  0  0  0
   -0.0302    0.9593    2.0830 C   0  0  0  0  0  0  0  0  0  0  0  0
   -0.9801    1.5310    2.9528 C   0  0  0  0  0  0  0  0  0  0  0  0
   -1.0128    1.1342    4.3000 C   0  0  0  0  0  0  0  0  0  0  0  0
   -1.7859    1.4778    5.3928 N   0  0  0  0  0  0  0  0  0  0  0  0
   -1.4688    0.8040    6.5314 N   0  0  0  0  0  0  0  0  0  0  0  0
   -0.4578    0.0307    6.2080 C   0  0  0  0  0  0  0  0  0  0  0  0
   -0.1146    0.1699    4.8240 C   0  0  0  0  0  0  0  0  0  0  0  0
    0.8325   -0.3824    3.9365 C   0  0  0  0  0  0  0  0  0  0  0  0
    3.1005   -2.6551   -0.2986 C   0  0  0  0  0  0  0  0  0  0  0  0
    3.6177   -3.1636   -1.5025 C   0  0  0  0  0  0  0  0  0  0  0  0
   -2.5322    2.1573    5.3931 H   0  0  0  0  0  0  0  0  0  0  0  0
    6.5999   -3.3942   -3.1864 H   0  0  0  0  0  0  0  0  0  0  0  0
    5.0161   -3.1232   -3.9352 H   0  0  0  0  0  0  0  0  0  0  0  0
    5.3580   -4.6507   -3.1212 H   0  0  0  0  0  0  0  0  0  0  0  0
    6.9006   -2.2658   -1.0996 H   0  0  0  0  0  0  0  0  0  0  0  0
    5.9760   -1.3400    1.0176 H   0  0  0  0  0  0  0  0  0  0  0  0
    1.5931   -0.5050    0.7092 H   0  0  0  0  0  0  0  0  0  0  0  0
    0.0008    1.2637    1.0452 H   0  0  0  0  0  0  0  0  0  0  0  0
   -1.6700    2.2723    2.5780 H   0  0  0  0  0  0  0  0  0  0  0  0
    0.0016   -0.6021    6.9533 H   0  0  0  0  0  0  0  0  0  0  0  0
    1.5126   -1.1201    4.3325 H   0  0  0  0  0  0  0  0  0  0  0  0
    2.0543   -2.7721   -0.0644 H   0  0  0  0  0  0  0  0  0  0  0  0
    2.9625   -3.6770   -2.1943 H   0  0  0  0  0  0  0  0  0  0  0  0
  1  2  1  0
  1 22  1  0
  1 23  1  0
  1 24  1  0
  2 20  2  0
  2  3  1  0
  3  4  2  0
  3 25  1  0
  4  5  1  0
  4 26  1  0
  5  6  1  0
  5 19  2  0
  6  7  2  0
  6  8  2  0
  6  9  1  0
  9 10  1  0
  9 27  1  0
 10 18  1  0
 10 11  2  0
 11 12  1  0
 11 28  1  0
 12 13  2  0
 12 29  1  0
 13 17  1  0
 13 14  1  0
 14 21  1  0
 14 15  1  0
 15 16  2  0
 16 17  1  0
 16 30  1  0
 17 18  2  0
 18 31  1  0
 19 20  1  0
 19 32  1  0
 20 33  1  0
M  END
>  <i_m_ct_stereo_status>  (29) 
1

>  <s_m_source_file>  (29) 
/var/tmp/pbs.5076255.sched01/tmp9s019jnz/08u7fdliu.sdf

>  <i_m_source_file_index>  (29) 
12

>  <i_lp_mmshare_version>  (29) 
48012

>  <i_f3d_flags>  (29) 
0

>  <s_epik_input>  (29) 
W0NIM11jMVtjSF1bY0hdYyhbY0hdW2NIXTEpUyg9TykoPU8pW05IXWMoW2NIXVtjSF0yKVtjSF1jKGMyMylbY0hdbltuSF0z

>  <s_epik_cmdline>  (29) 
J2VwaWtfcHl0aG9uJywgJy1waHQnLCAnMi4wJywgJy1waCcsICc3LjAnLCAnLXRuJywgJzgnLCAnLW1hJywgJzIwMCcsICctaW1hZScsICc8aW5maWxlLm1hZT4nLCAnLW9tYWUnLCAnPG91dGZpbGUubWFlPic=

>  <r_epik_Ionization_Penalty>  (29) 
0.0127109

>  <r_epik_Ionization_Penalty_Charging>  (29) 
0

>  <r_epik_Ionization_Penalty_Neutral>  (29) 
0.0127109

>  <r_epik_State_Penalty>  (29) 
0.00985171

>  <r_epik_Charging_Adjusted_Penalty>  (29) 
0.00985171

>  <i_epik_Tot_Q>  (29) 
0

>  <i_epik_Tot_abs_Q>  (29) 
0

>  <s_lp_Force_Field>  (29) 
OPLS3e

>  <r_lp_Energy>  (29) 
19.6538

>  <b_lp_Chiralities_Consistent>  (29) 
1

>  <s_lp_Variant>  (29) 
6:0-1

>  <s_i_glide_gridfile>  (29) 
pfpi4k_grid

>  <i_i_glide_lignum>  (29) 
12

>  <i_i_glide_rotatable_bonds>  (29) 
3

>  <r_i_docking_score>  (29) 
-3.29977

>  <r_i_glide_ligand_efficiency>  (29) 
-0.164988

>  <r_i_glide_ligand_efficiency_sa>  (29) 
-0.447847

>  <r_i_glide_ligand_efficiency_ln>  (29) 
-0.825823

>  <r_i_glide_gscore>  (29) 
-3.29977

>  <r_i_glide_lipo>  (29) 
-0.237778

>  <r_i_glide_hbond>  (29) 
-0.244606

>  <r_i_glide_metal>  (29) 
-0

>  <r_i_glide_rewards>  (29) 
-1.44997

>  <r_i_glide_evdw>  (29) 
-23.6895

>  <r_i_glide_ecoul>  (29) 
-4.77969

>  <r_i_glide_erotb>  (29) 
0.660396

>  <r_i_glide_esite>  (29) 
-0.12638

>  <r_i_glide_emodel>  (29) 
-33.8927

>  <r_i_glide_energy>  (29) 
-28.4692

>  <r_i_glide_einternal>  (29) 
3.08062

>  <r_i_glide_intrahb_reward>  (29) 
-0

>  <i_i_glide_confnum>  (29) 
6

>  <i_i_glide_posenum>  (29) 
22

>  <r_i_glide_eff_state_penalty>  (29) 
0

>  <ligand_id>  (29) 
6

>  <original_smiles>  (29) 
Cc1ccc(S(=O)(=O)Nc2ccc3[nH]ncc3c2)cc1

>  <smiles>  (29) 
[H]c1c([H])c(S(=O)(=O)N([H])c2c([H])c([H])c3c(c([H])nn3[H])c2[H])c([H])c([H])c1C([H])([H])[H]

$$$$
6:0:2
     RDKit          3D

 33 35  0  0  1  0  0  0  0  0999 V2000
    5.1511   -3.5401   -3.0439 C   0  0  0  0  0  0  0  0  0  0  0  0
    4.6246   -2.9694   -1.7520 C   0  0  0  0  0  0  0  0  0  0  0  0
    4.0328   -3.8169   -0.7873 C   0  0  0  0  0  0  0  0  0  0  0  0
    3.5181   -3.2770    0.4060 C   0  0  0  0  0  0  0  0  0  0  0  0
    3.6069   -1.8923    0.6260 C   0  0  0  0  0  0  0  0  0  0  0  0
    2.9966   -1.2088    2.1399 S   0  0  0  0  0  0  0  0  0  0  0  0
    2.5249   -2.3016    3.0090 O   0  0  0  0  0  0  0  0  0  0  0  0
    3.9580   -0.2112    2.6305 O   0  0  0  0  0  0  0  0  0  0  0  0
    1.5767   -0.3203    1.7015 N   0  0  0  0  0  0  0  0  0  0  0  0
    0.7879    0.4294    2.5840 C   0  0  0  0  0  0  0  0  0  0  0  0
    1.0644    0.3618    3.9702 C   0  0  0  0  0  0  0  0  0  0  0  0
    0.3096    1.1067    4.8820 C   0  0  0  0  0  0  0  0  0  0  0  0
   -0.7242    1.9204    4.4096 C   0  0  0  0  0  0  0  0  0  0  0  0
   -1.6259    2.7619    5.0279 N   0  0  0  0  0  0  0  0  0  0  0  0
   -2.4820    3.3698    4.1683 N   0  0  0  0  0  0  0  0  0  0  0  0
   -2.1459    2.9417    2.9734 C   0  0  0  0  0  0  0  0  0  0  0  0
   -1.0465    2.0201    3.0302 C   0  0  0  0  0  0  0  0  0  0  0  0
   -0.2659    1.2563    2.1231 C   0  0  0  0  0  0  0  0  0  0  0  0
    4.2117   -1.0412   -0.3135 C   0  0  0  0  0  0  0  0  0  0  0  0
    4.7123   -1.5801   -1.5137 C   0  0  0  0  0  0  0  0  0  0  0  0
   -1.6754    2.9425    6.0195 H   0  0  0  0  0  0  0  0  0  0  0  0
    5.0156   -4.6190   -3.0853 H   0  0  0  0  0  0  0  0  0  0  0  0
    6.2140   -3.3271   -3.1418 H   0  0  0  0  0  0  0  0  0  0  0  0
    4.6239   -3.1015   -3.8896 H   0  0  0  0  0  0  0  0  0  0  0  0
    3.9638   -4.8826   -0.9562 H   0  0  0  0  0  0  0  0  0  0  0  0
    3.0750   -3.9239    1.1494 H   0  0  0  0  0  0  0  0  0  0  0  0
    1.2751   -0.4085    0.7201 H   0  0  0  0  0  0  0  0  0  0  0  0
    1.8593   -0.2529    4.3635 H   0  0  0  0  0  0  0  0  0  0  0  0
    0.5478    1.0481    5.9334 H   0  0  0  0  0  0  0  0  0  0  0  0
   -2.6896    3.3041    2.1114 H   0  0  0  0  0  0  0  0  0  0  0  0
   -0.4808    1.3359    1.0671 H   0  0  0  0  0  0  0  0  0  0  0  0
    4.2837    0.0182   -0.1118 H   0  0  0  0  0  0  0  0  0  0  0  0
    5.1579   -0.9255   -2.2496 H   0  0  0  0  0  0  0  0  0  0  0  0
  1  2  1  0
  1 22  1  0
  1 23  1  0
  1 24  1  0
  2 20  2  0
  2  3  1  0
  3  4  2  0
  3 25  1  0
  4  5  1  0
  4 26  1  0
  5  6  1  0
  5 19  2  0
  6  7  2  0
  6  8  2  0
  6  9  1  0
  9 10  1  0
  9 27  1  0
 10 18  1  0
 10 11  2  0
 11 12  1  0
 11 28  1  0
 12 13  2  0
 12 29  1  0
 13 17  1  0
 13 14  1  0
 14 21  1  0
 14 15  1  0
 15 16  2  0
 16 17  1  0
 16 30  1  0
 17 18  2  0
 18 31  1  0
 19 20  1  0
 19 32  1  0
 20 33  1  0
M  END
>  <i_m_ct_stereo_status>  (30) 
1

>  <s_m_source_file>  (30) 
/var/tmp/pbs.5076255.sched01/tmp9s019jnz/08u7fdliu.sdf

>  <i_m_source_file_index>  (30) 
12

>  <i_lp_mmshare_version>  (30) 
48012

>  <i_f3d_flags>  (30) 
0

>  <s_epik_input>  (30) 
W0NIM11jMVtjSF1bY0hdYyhbY0hdW2NIXTEpUyg9TykoPU8pW05IXWMoW2NIXVtjSF0yKVtjSF1jKGMyMylbY0hdbltuSF0z

>  <s_epik_cmdline>  (30) 
J2VwaWtfcHl0aG9uJywgJy1waHQnLCAnMi4wJywgJy1waCcsICc3LjAnLCAnLXRuJywgJzgnLCAnLW1hJywgJzIwMCcsICctaW1hZScsICc8aW5maWxlLm1hZT4nLCAnLW9tYWUnLCAnPG91dGZpbGUubWFlPic=

>  <r_epik_Ionization_Penalty>  (30) 
0.0127109

>  <r_epik_Ionization_Penalty_Charging>  (30) 
0

>  <r_epik_Ionization_Penalty_Neutral>  (30) 
0.0127109

>  <r_epik_State_Penalty>  (30) 
0.00985171

>  <r_epik_Charging_Adjusted_Penalty>  (30) 
0.00985171

>  <i_epik_Tot_Q>  (30) 
0

>  <i_epik_Tot_abs_Q>  (30) 
0

>  <s_lp_Force_Field>  (30) 
OPLS3e

>  <r_lp_Energy>  (30) 
19.6538

>  <b_lp_Chiralities_Consistent>  (30) 
1

>  <s_lp_Variant>  (30) 
6:0-1

>  <s_i_glide_gridfile>  (30) 
pfpi4k_grid

>  <i_i_glide_lignum>  (30) 
12

>  <i_i_glide_rotatable_bonds>  (30) 
3

>  <r_i_docking_score>  (30) 
-3.19967

>  <r_i_glide_ligand_efficiency>  (30) 
-0.159983

>  <r_i_glide_ligand_efficiency_sa>  (30) 
-0.434262

>  <r_i_glide_ligand_efficiency_ln>  (30) 
-0.800771

>  <r_i_glide_gscore>  (30) 
-3.19967

>  <r_i_glide_lipo>  (30) 
-0.175381

>  <r_i_glide_hbond>  (30) 
-0.16

>  <r_i_glide_metal>  (30) 
-0

>  <r_i_glide_rewards>  (30) 
-1.44997

>  <r_i_glide_evdw>  (30) 
-25.6629

>  <r_i_glide_ecoul>  (30) 
-4.46514

>  <r_i_glide_erotb>  (30) 
0.660396

>  <r_i_glide_esite>  (30) 
-0.121799

>  <r_i_glide_emodel>  (30) 
-35.2547

>  <r_i_glide_energy>  (30) 
-30.128

>  <r_i_glide_einternal>  (30) 
2.87234

>  <r_i_glide_intrahb_reward>  (30) 
-0

>  <i_i_glide_confnum>  (30) 
6

>  <i_i_glide_posenum>  (30) 
39

>  <r_i_glide_eff_state_penalty>  (30) 
0

>  <ligand_id>  (30) 
6

>  <original_smiles>  (30) 
Cc1ccc(S(=O)(=O)Nc2ccc3[nH]ncc3c2)cc1

>  <smiles>  (30) 
[H]c1c([H])c(S(=O)(=O)N([H])c2c([H])c([H])c3c(c([H])nn3[H])c2[H])c([H])c([H])c1C([H])([H])[H]

$$$$
6:1:0
     RDKit          3D

 32 34  0  0  1  0  0  0  0  0999 V2000
    5.3607   -7.5657    3.0064 C   0  0  0  0  0  0  0  0  0  0  0  0
    6.1857   -6.5422    2.2738 C   0  0  0  0  0  0  0  0  0  0  0  0
    7.5780   -6.4092    2.4927 C   0  0  0  0  0  0  0  0  0  0  0  0
    8.3143   -5.4283    1.7872 C   0  0  0  0  0  0  0  0  0  0  0  0
    7.6525   -4.5799    0.8656 C   0  0  0  0  0  0  0  0  0  0  0  0
    8.6294   -3.3253   -0.0037 S   0  0  0  0  0  0  0  0  0  0  0  0
    9.7995   -3.0389    0.8502 O   0  0  0  0  0  0  0  0  0  0  0  0
    8.9095   -3.9151   -1.3147 O   0  0  0  0  0  0  0  0  0  0  0  0
    7.5813   -2.0910   -0.0525 N   0  0  0  0  0  0  0  0  0  0  0  0
    6.4085   -2.0305   -0.7133 C   0  0  0  0  0  0  0  0  0  0  0  0
    5.3423   -1.2996   -0.1288 C   0  0  0  0  0  0  0  0  0  0  0  0
    4.0691   -1.2827   -0.7273 C   0  0  0  0  0  0  0  0  0  0  0  0
    3.8633   -2.0014   -1.9126 C   0  0  0  0  0  0  0  0  0  0  0  0
    2.7744   -2.2262   -2.7330 N   0  0  0  0  0  0  0  0  0  0  0  0
    3.0356   -3.0347   -3.7963 N   0  0  0  0  0  0  0  0  0  0  0  0
    4.2947   -3.3796   -3.6717 C   0  0  0  0  0  0  0  0  0  0  0  0
    4.8953   -2.7504   -2.5301 C   0  0  0  0  0  0  0  0  0  0  0  0
    6.1591   -2.7325   -1.9164 C   0  0  0  0  0  0  0  0  0  0  0  0
    6.2614   -4.7562    0.6359 C   0  0  0  0  0  0  0  0  0  0  0  0
    5.5351   -5.7171    1.3483 C   0  0  0  0  0  0  0  0  0  0  0  0
    1.8562   -1.8176   -2.5997 H   0  0  0  0  0  0  0  0  0  0  0  0
    5.9878   -8.1855    3.6503 H   0  0  0  0  0  0  0  0  0  0  0  0
    4.8471   -8.2028    2.2790 H   0  0  0  0  0  0  0  0  0  0  0  0
    4.6045   -7.0576    3.6120 H   0  0  0  0  0  0  0  0  0  0  0  0
    8.0867   -7.0477    3.2124 H   0  0  0  0  0  0  0  0  0  0  0  0
    9.3713   -5.3234    1.9656 H   0  0  0  0  0  0  0  0  0  0  0  0
    5.4901   -0.7981    0.8194 H   0  0  0  0  0  0  0  0  0  0  0  0
    3.2384   -0.7688   -0.2564 H   0  0  0  0  0  0  0  0  0  0  0  0
    4.7448   -4.0695   -4.3748 H   0  0  0  0  0  0  0  0  0  0  0  0
    6.9144   -3.3454   -2.3824 H   0  0  0  0  0  0  0  0  0  0  0  0
    5.6718   -4.1826   -0.0710 H   0  0  0  0  0  0  0  0  0  0  0  0
    4.4772   -5.7971    1.1683 H   0  0  0  0  0  0  0  0  0  0  0  0
  1  2  1  0
  1 22  1  0
  1 23  1  0
  1 24  1  0
  2 20  2  0
  2  3  1  0
  3  4  2  0
  3 25  1  0
  4  5  1  0
  4 26  1  0
  5  6  1  0
  5 19  2  0
  6  7  2  0
  6  8  2  0
  6  9  1  0
  9 10  1  0
 10 18  1  0
 10 11  2  0
 11 12  1  0
 11 27  1  0
 12 13  2  0
 12 28  1  0
 13 17  1  0
 13 14  1  0
 14 21  1  0
 14 15  1  0
 15 16  2  0
 16 17  1  0
 16 29  1  0
 17 18  2  0
 18 30  1  0
 19 20  1  0
 19 31  1  0
 20 32  1  0
M  CHG  1   9  -1
M  END
>  <i_m_ct_stereo_status>  (31) 
1

>  <s_m_source_file>  (31) 
/var/tmp/pbs.5076255.sched01/tmp9s019jnz/08u7fdliu.sdf

>  <i_m_source_file_index>  (31) 
13

>  <i_lp_mmshare_version>  (31) 
48012

>  <i_f3d_flags>  (31) 
0

>  <s_epik_input>  (31) 
W0NIM11jMVtjSF1bY0hdYyhbY0hdW2NIXTEpUyg9TykoPU8pW05IXWMoW2NIXVtjSF0yKVtjSF1jKGMyMylbY0hdbltuSF0z

>  <s_epik_cmdline>  (31) 
J2VwaWtfcHl0aG9uJywgJy1waHQnLCAnMi4wJywgJy1waCcsICc3LjAnLCAnLXRuJywgJzgnLCAnLW1hJywgJzIwMCcsICctaW1hZScsICc8aW5maWxlLm1hZT4nLCAnLW9tYWUnLCAnPG91dGZpbGUubWFlPic=

>  <r_epik_Ionization_Penalty>  (31) 
2.28275

>  <r_epik_Ionization_Penalty_Charging>  (31) 
2.28273

>  <r_epik_Ionization_Penalty_Neutral>  (31) 
2.22928e-05

>  <r_epik_State_Penalty>  (31) 
2.43214

>  <r_epik_Charging_Adjusted_Penalty>  (31) 
4.71487

>  <i_epik_Tot_Q>  (31) 
-1

>  <i_epik_Tot_abs_Q>  (31) 
1

>  <s_lp_Force_Field>  (31) 
OPLS3e

>  <r_lp_Energy>  (31) 
23.5337

>  <b_lp_Chiralities_Consistent>  (31) 
1

>  <s_lp_Variant>  (31) 
6:0-2

>  <s_i_glide_gridfile>  (31) 
pfpi4k_grid

>  <i_i_glide_lignum>  (31) 
13

>  <i_i_glide_rotatable_bonds>  (31) 
3

>  <r_i_docking_score>  (31) 
-3.76324

>  <r_i_glide_ligand_efficiency>  (31) 
-0.188162

>  <r_i_glide_ligand_efficiency_sa>  (31) 
-0.51075

>  <r_i_glide_ligand_efficiency_ln>  (31) 
-0.941814

>  <r_i_glide_gscore>  (31) 
-3.76324

>  <r_i_glide_lipo>  (31) 
-0.710418

>  <r_i_glide_hbond>  (31) 
-0.162528

>  <r_i_glide_metal>  (31) 
-0

>  <r_i_glide_rewards>  (31) 
-1.61823

>  <r_i_glide_evdw>  (31) 
-28.917

>  <r_i_glide_ecoul>  (31) 
-1.89267

>  <r_i_glide_erotb>  (31) 
0.66445

>  <r_i_glide_esite>  (31) 
-0.206757

>  <r_i_glide_emodel>  (31) 
-38.3832

>  <r_i_glide_energy>  (31) 
-30.8097

>  <r_i_glide_einternal>  (31) 
2.00701

>  <r_i_glide_intrahb_reward>  (31) 
-0

>  <i_i_glide_confnum>  (31) 
2

>  <i_i_glide_posenum>  (31) 
1

>  <r_i_glide_eff_state_penalty>  (31) 
0

>  <ligand_id>  (31) 
6

>  <original_smiles>  (31) 
Cc1ccc(S(=O)(=O)Nc2ccc3[nH]ncc3c2)cc1

>  <smiles>  (31) 
[H]c1c([H])c(S(=O)(=O)[N-]c2c([H])c([H])c3c(c([H])nn3[H])c2[H])c([H])c([H])c1C([H])([H])[H]

$$$$
6:1:1
     RDKit          3D

 32 34  0  0  1  0  0  0  0  0999 V2000
    4.5246   -8.1246    1.9184 C   0  0  0  0  0  0  0  0  0  0  0  0
    5.5095   -7.0596    1.5422 C   0  0  0  0  0  0  0  0  0  0  0  0
    5.0536   -5.9809    0.7718 C   0  0  0  0  0  0  0  0  0  0  0  0
    5.9397   -4.9645    0.4022 C   0  0  0  0  0  0  0  0  0  0  0  0
    7.3227   -5.0098    0.7802 C   0  0  0  0  0  0  0  0  0  0  0  0
    8.5136   -3.7443    0.2541 S   0  0  0  0  0  0  0  0  0  0  0  0
    9.5910   -3.7364    1.2663 O   0  0  0  0  0  0  0  0  0  0  0  0
    8.9649   -4.1053   -1.0769 O   0  0  0  0  0  0  0  0  0  0  0  0
    7.6195   -2.3892    0.3352 N   0  0  0  0  0  0  0  0  0  0  0  0
    6.5418   -2.0686   -0.3808 C   0  0  0  0  0  0  0  0  0  0  0  0
    5.5330   -1.2454    0.1972 C   0  0  0  0  0  0  0  0  0  0  0  0
    4.3160   -1.0177   -0.4857 C   0  0  0  0  0  0  0  0  0  0  0  0
    4.1096   -1.5870   -1.7483 C   0  0  0  0  0  0  0  0  0  0  0  0
    3.0740   -1.6000   -2.6613 N   0  0  0  0  0  0  0  0  0  0  0  0
    3.3005   -2.3679   -3.7657 N   0  0  0  0  0  0  0  0  0  0  0  0
    4.4941   -2.8832   -3.5785 C   0  0  0  0  0  0  0  0  0  0  0  0
    5.0833   -2.4095   -2.3698 C   0  0  0  0  0  0  0  0  0  0  0  0
    6.2946   -2.6002   -1.6765 C   0  0  0  0  0  0  0  0  0  0  0  0
    7.7833   -6.1026    1.5620 C   0  0  0  0  0  0  0  0  0  0  0  0
    6.8706   -7.1231    1.9430 C   0  0  0  0  0  0  0  0  0  0  0  0
    2.2034   -1.0933   -2.5487 H   0  0  0  0  0  0  0  0  0  0  0  0
    3.5213   -7.8655    1.5573 H   0  0  0  0  0  0  0  0  0  0  0  0
    4.4929   -8.2071    3.0118 H   0  0  0  0  0  0  0  0  0  0  0  0
    4.8265   -9.0733    1.4574 H   0  0  0  0  0  0  0  0  0  0  0  0
    4.0342   -5.8961    0.4345 H   0  0  0  0  0  0  0  0  0  0  0  0
    5.4499   -4.2027   -0.1843 H   0  0  0  0  0  0  0  0  0  0  0  0
    5.6450   -0.8901    1.2119 H   0  0  0  0  0  0  0  0  0  0  0  0
    3.5216   -0.4526   -0.0092 H   0  0  0  0  0  0  0  0  0  0  0  0
    4.8994   -3.5842   -4.3064 H   0  0  0  0  0  0  0  0  0  0  0  0
    6.9838   -3.2782   -2.1418 H   0  0  0  0  0  0  0  0  0  0  0  0
    8.8171   -6.1592    1.8657 H   0  0  0  0  0  0  0  0  0  0  0  0
    7.2186   -7.9700    2.5432 H   0  0  0  0  0  0  0  0  0  0  0  0
  1  2  1  0
  1 22  1  0
  1 23  1  0
  1 24  1  0
  2 20  2  0
  2  3  1  0
  3  4  2  0
  3 25  1  0
  4  5  1  0
  4 26  1  0
  5  6  1  0
  5 19  2  0
  6  7  2  0
  6  8  2  0
  6  9  1  0
  9 10  1  0
 10 18  1  0
 10 11  2  0
 11 12  1  0
 11 27  1  0
 12 13  2  0
 12 28  1  0
 13 17  1  0
 13 14  1  0
 14 21  1  0
 14 15  1  0
 15 16  2  0
 16 17  1  0
 16 29  1  0
 17 18  2  0
 18 30  1  0
 19 20  1  0
 19 31  1  0
 20 32  1  0
M  CHG  1   9  -1
M  END
>  <i_m_ct_stereo_status>  (32) 
1

>  <s_m_source_file>  (32) 
/var/tmp/pbs.5076255.sched01/tmp9s019jnz/08u7fdliu.sdf

>  <i_m_source_file_index>  (32) 
13

>  <i_lp_mmshare_version>  (32) 
48012

>  <i_f3d_flags>  (32) 
0

>  <s_epik_input>  (32) 
W0NIM11jMVtjSF1bY0hdYyhbY0hdW2NIXTEpUyg9TykoPU8pW05IXWMoW2NIXVtjSF0yKVtjSF1jKGMyMylbY0hdbltuSF0z

>  <s_epik_cmdline>  (32) 
J2VwaWtfcHl0aG9uJywgJy1waHQnLCAnMi4wJywgJy1waCcsICc3LjAnLCAnLXRuJywgJzgnLCAnLW1hJywgJzIwMCcsICctaW1hZScsICc8aW5maWxlLm1hZT4nLCAnLW9tYWUnLCAnPG91dGZpbGUubWFlPic=

>  <r_epik_Ionization_Penalty>  (32) 
2.28275

>  <r_epik_Ionization_Penalty_Charging>  (32) 
2.28273

>  <r_epik_Ionization_Penalty_Neutral>  (32) 
2.22928e-05

>  <r_epik_State_Penalty>  (32) 
2.43214

>  <r_epik_Charging_Adjusted_Penalty>  (32) 
4.71487

>  <i_epik_Tot_Q>  (32) 
-1

>  <i_epik_Tot_abs_Q>  (32) 
1

>  <s_lp_Force_Field>  (32) 
OPLS3e

>  <r_lp_Energy>  (32) 
23.5337

>  <b_lp_Chiralities_Consistent>  (32) 
1

>  <s_lp_Variant>  (32) 
6:0-2

>  <s_i_glide_gridfile>  (32) 
pfpi4k_grid

>  <i_i_glide_lignum>  (32) 
13

>  <i_i_glide_rotatable_bonds>  (32) 
3

>  <r_i_docking_score>  (32) 
-3.63876

>  <r_i_glide_ligand_efficiency>  (32) 
-0.181938

>  <r_i_glide_ligand_efficiency_sa>  (32) 
-0.493855

>  <r_i_glide_ligand_efficiency_ln>  (32) 
-0.910661

>  <r_i_glide_gscore>  (32) 
-3.63876

>  <r_i_glide_lipo>  (32) 
-0.825011

>  <r_i_glide_hbond>  (32) 
-0.0484091

>  <r_i_glide_metal>  (32) 
-0

>  <r_i_glide_rewards>  (32) 
-1.6357

>  <r_i_glide_evdw>  (32) 
-27.3383

>  <r_i_glide_ecoul>  (32) 
-1.591

>  <r_i_glide_erotb>  (32) 
0.66445

>  <r_i_glide_esite>  (32) 
-0.188523

>  <r_i_glide_emodel>  (32) 
-35.8896

>  <r_i_glide_energy>  (32) 
-28.9293

>  <r_i_glide_einternal>  (32) 
1.95553

>  <r_i_glide_intrahb_reward>  (32) 
-0

>  <i_i_glide_confnum>  (32) 
3

>  <i_i_glide_posenum>  (32) 
23

>  <r_i_glide_eff_state_penalty>  (32) 
0

>  <ligand_id>  (32) 
6

>  <original_smiles>  (32) 
Cc1ccc(S(=O)(=O)Nc2ccc3[nH]ncc3c2)cc1

>  <smiles>  (32) 
[H]c1c([H])c(S(=O)(=O)[N-]c2c([H])c([H])c3c(c([H])nn3[H])c2[H])c([H])c([H])c1C([H])([H])[H]

$$$$
6:1:2
     RDKit          3D

 32 34  0  0  1  0  0  0  0  0999 V2000
    3.0004   -2.2994   -4.3125 C   0  0  0  0  0  0  0  0  0  0  0  0
    3.9372   -2.2687   -3.1329 C   0  0  0  0  0  0  0  0  0  0  0  0
    5.0992   -3.0632   -3.1144 C   0  0  0  0  0  0  0  0  0  0  0  0
    5.9682   -3.0015   -2.0125 C   0  0  0  0  0  0  0  0  0  0  0  0
    5.6711   -2.1537   -0.9230 C   0  0  0  0  0  0  0  0  0  0  0  0
    6.7335   -2.1209    0.5221 S   0  0  0  0  0  0  0  0  0  0  0  0
    7.9807   -1.4851    0.0796 O   0  0  0  0  0  0  0  0  0  0  0  0
    5.9870   -1.4567    1.6046 O   0  0  0  0  0  0  0  0  0  0  0  0
    6.8820   -3.7212    0.7309 N   0  0  0  0  0  0  0  0  0  0  0  0
    5.9012   -4.5925    1.0319 C   0  0  0  0  0  0  0  0  0  0  0  0
    6.1868   -5.9780    0.9965 C   0  0  0  0  0  0  0  0  0  0  0  0
    5.1934   -6.9353    1.2853 C   0  0  0  0  0  0  0  0  0  0  0  0
    3.9003   -6.4966    1.6144 C   0  0  0  0  0  0  0  0  0  0  0  0
    2.7099   -7.1245    1.9464 N   0  0  0  0  0  0  0  0  0  0  0  0
    1.6812   -6.2681    2.1907 N   0  0  0  0  0  0  0  0  0  0  0  0
    2.1850   -5.0654    2.0388 C   0  0  0  0  0  0  0  0  0  0  0  0
    3.5650   -5.1219    1.6684 C   0  0  0  0  0  0  0  0  0  0  0  0
    4.5807   -4.1980    1.3669 C   0  0  0  0  0  0  0  0  0  0  0  0
    4.4977   -1.3793   -0.9341 C   0  0  0  0  0  0  0  0  0  0  0  0
    3.6359   -1.4346   -2.0420 C   0  0  0  0  0  0  0  0  0  0  0  0
    2.5718   -8.1234    2.0280 H   0  0  0  0  0  0  0  0  0  0  0  0
    3.3817   -2.9562   -5.0924 H   0  0  0  0  0  0  0  0  0  0  0  0
    2.8849   -1.2922   -4.7205 H   0  0  0  0  0  0  0  0  0  0  0  0
    2.0189   -2.6658   -4.0168 H   0  0  0  0  0  0  0  0  0  0  0  0
    5.3237   -3.7263   -3.9387 H   0  0  0  0  0  0  0  0  0  0  0  0
    6.8479   -3.6260   -1.9975 H   0  0  0  0  0  0  0  0  0  0  0  0
    7.1782   -6.3086    0.7296 H   0  0  0  0  0  0  0  0  0  0  0  0
    5.4198   -7.9926    1.2514 H   0  0  0  0  0  0  0  0  0  0  0  0
    1.5639   -4.1906    2.1919 H   0  0  0  0  0  0  0  0  0  0  0  0
    4.2945   -3.1604    1.3922 H   0  0  0  0  0  0  0  0  0  0  0  0
    4.2464   -0.7602   -0.0875 H   0  0  0  0  0  0  0  0  0  0  0  0
    2.7297   -0.8409   -2.0450 H   0  0  0  0  0  0  0  0  0  0  0  0
  1  2  1  0
  1 22  1  0
  1 23  1  0
  1 24  1  0
  2 20  2  0
  2  3  1  0
  3  4  2  0
  3 25  1  0
  4  5  1  0
  4 26  1  0
  5  6  1  0
  5 19  2  0
  6  7  2  0
  6  8  2  0
  6  9  1  0
  9 10  1  0
 10 18  1  0
 10 11  2  0
 11 12  1  0
 11 27  1  0
 12 13  2  0
 12 28  1  0
 13 17  1  0
 13 14  1  0
 14 21  1  0
 14 15  1  0
 15 16  2  0
 16 17  1  0
 16 29  1  0
 17 18  2  0
 18 30  1  0
 19 20  1  0
 19 31  1  0
 20 32  1  0
M  CHG  1   9  -1
M  END
>  <i_m_ct_stereo_status>  (33) 
1

>  <s_m_source_file>  (33) 
/var/tmp/pbs.5076255.sched01/tmp9s019jnz/08u7fdliu.sdf

>  <i_m_source_file_index>  (33) 
13

>  <i_lp_mmshare_version>  (33) 
48012

>  <i_f3d_flags>  (33) 
0

>  <s_epik_input>  (33) 
W0NIM11jMVtjSF1bY0hdYyhbY0hdW2NIXTEpUyg9TykoPU8pW05IXWMoW2NIXVtjSF0yKVtjSF1jKGMyMylbY0hdbltuSF0z

>  <s_epik_cmdline>  (33) 
J2VwaWtfcHl0aG9uJywgJy1waHQnLCAnMi4wJywgJy1waCcsICc3LjAnLCAnLXRuJywgJzgnLCAnLW1hJywgJzIwMCcsICctaW1hZScsICc8aW5maWxlLm1hZT4nLCAnLW9tYWUnLCAnPG91dGZpbGUubWFlPic=

>  <r_epik_Ionization_Penalty>  (33) 
2.28275

>  <r_epik_Ionization_Penalty_Charging>  (33) 
2.28273

>  <r_epik_Ionization_Penalty_Neutral>  (33) 
2.22928e-05

>  <r_epik_State_Penalty>  (33) 
2.43214

>  <r_epik_Charging_Adjusted_Penalty>  (33) 
4.71487

>  <i_epik_Tot_Q>  (33) 
-1

>  <i_epik_Tot_abs_Q>  (33) 
1

>  <s_lp_Force_Field>  (33) 
OPLS3e

>  <r_lp_Energy>  (33) 
23.5337

>  <b_lp_Chiralities_Consistent>  (33) 
1

>  <s_lp_Variant>  (33) 
6:0-2

>  <s_i_glide_gridfile>  (33) 
pfpi4k_grid

>  <i_i_glide_lignum>  (33) 
13

>  <i_i_glide_rotatable_bonds>  (33) 
3

>  <r_i_docking_score>  (33) 
-3.22204

>  <r_i_glide_ligand_efficiency>  (33) 
-0.161102

>  <r_i_glide_ligand_efficiency_sa>  (33) 
-0.437298

>  <r_i_glide_ligand_efficiency_ln>  (33) 
-0.806371

>  <r_i_glide_gscore>  (33) 
-3.22204

>  <r_i_glide_lipo>  (33) 
-0.775101

>  <r_i_glide_hbond>  (33) 
0

>  <r_i_glide_metal>  (33) 
-0

>  <r_i_glide_rewards>  (33) 
-1.54216

>  <r_i_glide_evdw>  (33) 
-25.6199

>  <r_i_glide_ecoul>  (33) 
-1.51195

>  <r_i_glide_erotb>  (33) 
0.66445

>  <r_i_glide_esite>  (33) 
-0.0614421

>  <r_i_glide_emodel>  (33) 
-34.2857

>  <r_i_glide_energy>  (33) 
-27.1319

>  <r_i_glide_einternal>  (33) 
1.08248

>  <r_i_glide_intrahb_reward>  (33) 
-0

>  <i_i_glide_confnum>  (33) 
5

>  <i_i_glide_posenum>  (33) 
2

>  <r_i_glide_eff_state_penalty>  (33) 
0

>  <ligand_id>  (33) 
6

>  <original_smiles>  (33) 
Cc1ccc(S(=O)(=O)Nc2ccc3[nH]ncc3c2)cc1

>  <smiles>  (33) 
[H]c1c([H])c(S(=O)(=O)[N-]c2c([H])c([H])c3c(c([H])nn3[H])c2[H])c([H])c([H])c1C([H])([H])[H]

$$$$
7:0:0
     RDKit          3D

 52 55  0  0  1  0  0  0  0  0999 V2000
    1.9723   -5.0682    6.4563 C   0  0  0  0  0  0  0  0  0  0  0  0
    1.0833   -4.1616    5.6049 C   0  0  0  0  0  0  0  0  0  0  0  0
   -0.1051   -4.4167    5.4712 O   0  0  0  0  0  0  0  0  0  0  0  0
    1.7239   -2.8834    4.9824 C   0  0  2  0  0  0  0  0  0  0  0  0
    0.7268   -2.0145    4.1853 C   0  0  0  0  0  0  0  0  0  0  0  0
    1.5598   -1.2579    3.1381 C   0  0  0  0  0  0  0  0  0  0  0  0
    3.0179   -1.7006    3.3513 C   0  0  2  0  0  0  0  0  0  0  0  0
    3.9438   -1.6518    2.1012 C   0  0  2  0  0  0  0  0  0  0  0  0
    3.9295   -0.2630    1.4413 C   0  0  0  0  0  0  0  0  0  0  0  0
    4.6788   -0.2573    0.1944 N   0  0  0  0  0  0  0  0  0  0  0  0
    4.5535   -1.2471   -0.7606 C   0  0  0  0  0  0  0  0  0  0  0  0
    4.4400   -0.9449   -2.0590 C   0  0  0  0  0  0  0  0  0  0  0  0
    4.3689   -1.9729   -3.1168 C   0  0  0  0  0  0  0  0  0  0  0  0
    4.2104   -1.7154   -4.3052 O   0  0  0  0  0  0  0  0  0  0  0  0
    4.5845   -3.4178   -2.6901 C   0  0  0  0  0  0  0  0  0  0  0  0
    4.0178   -3.6684   -1.2884 C   0  0  0  0  0  0  0  0  0  0  0  0
    4.5521   -2.6942   -0.1993 C   0  0  1  0  0  0  0  0  0  0  0  0
    6.0196   -3.0652    0.1201 C   0  0  0  0  0  0  0  0  0  0  0  0
    3.6418   -2.7726    1.0762 C   0  0  1  0  0  0  0  0  0  0  0  0
    3.6658   -4.1411    1.7972 C   0  0  0  0  0  0  0  0  0  0  0  0
    2.6752   -4.1774    2.9686 C   0  0  0  0  0  0  0  0  0  0  0  0
    2.9441   -3.0846    4.0424 C   0  0  2  0  0  0  0  0  0  0  0  0
    4.2621   -3.3611    4.8246 C   0  0  0  0  0  0  0  0  0  0  0  0
    2.4840   -4.4934    7.2227 H   0  0  0  0  0  0  0  0  0  0  0  0
    2.7061   -5.5659    5.8291 H   0  0  0  0  0  0  0  0  0  0  0  0
    1.3759   -5.8492    6.9358 H   0  0  0  0  0  0  0  0  0  0  0  0
    2.0540   -2.2685    5.8148 H   0  0  0  0  0  0  0  0  0  0  0  0
   -0.0229   -2.6174    3.6709 H   0  0  0  0  0  0  0  0  0  0  0  0
    0.1876   -1.3209    4.8360 H   0  0  0  0  0  0  0  0  0  0  0  0
    1.2023   -1.5132    2.1391 H   0  0  0  0  0  0  0  0  0  0  0  0
    1.4539   -0.1748    3.2479 H   0  0  0  0  0  0  0  0  0  0  0  0
    3.4292   -1.0041    4.0824 H   0  0  0  0  0  0  0  0  0  0  0  0
    4.9563   -1.8077    2.4624 H   0  0  0  0  0  0  0  0  0  0  0  0
    2.9104    0.0528    1.2309 H   0  0  0  0  0  0  0  0  0  0  0  0
    4.3649    0.4654    2.1218 H   0  0  0  0  0  0  0  0  0  0  0  0
    4.4253    0.0933   -2.3833 H   0  0  0  0  0  0  0  0  0  0  0  0
    4.8157    0.6818   -0.1759 H   0  0  0  0  0  0  0  0  0  0  0  0
    5.6516   -3.6435   -2.7364 H   0  0  0  0  0  0  0  0  0  0  0  0
    4.0946   -4.0693   -3.4135 H   0  0  0  0  0  0  0  0  0  0  0  0
    2.9321   -3.6039   -1.3450 H   0  0  0  0  0  0  0  0  0  0  0  0
    4.2338   -4.7019   -1.0126 H   0  0  0  0  0  0  0  0  0  0  0  0
    6.1185   -4.1061    0.4265 H   0  0  0  0  0  0  0  0  0  0  0  0
    6.4345   -2.4397    0.9094 H   0  0  0  0  0  0  0  0  0  0  0  0
    6.6561   -2.9305   -0.7543 H   0  0  0  0  0  0  0  0  0  0  0  0
    2.6200   -2.6189    0.7288 H   0  0  0  0  0  0  0  0  0  0  0  0
    3.4099   -4.9474    1.1046 H   0  0  0  0  0  0  0  0  0  0  0  0
    4.6634   -4.3681    2.1735 H   0  0  0  0  0  0  0  0  0  0  0  0
    1.6656   -4.0616    2.5622 H   0  0  0  0  0  0  0  0  0  0  0  0
    2.6996   -5.1655    3.4275 H   0  0  0  0  0  0  0  0  0  0  0  0
    5.1380   -3.2932    4.1761 H   0  0  0  0  0  0  0  0  0  0  0  0
    4.3014   -4.3570    5.2716 H   0  0  0  0  0  0  0  0  0  0  0  0
    4.3962   -2.6375    5.6248 H   0  0  0  0  0  0  0  0  0  0  0  0
  1  2  1  0
  1 24  1  0
  1 25  1  0
  1 26  1  0
  2  3  2  0
  2  4  1  0
  4 22  1  0
  4  5  1  0
  4 27  1  1
  5  6  1  0
  5 28  1  0
  5 29  1  0
  6  7  1  0
  6 30  1  0
  6 31  1  0
  7 22  1  0
  7  8  1  0
  7 32  1  1
  8 19  1  0
  8  9  1  0
  8 33  1  1
  9 34  1  0
  9 35  1  0
  9 10  1  0
 10 11  1  0
 10 37  1  0
 11 12  2  0
 11 17  1  0
 12 13  1  0
 12 36  1  0
 13 14  2  0
 13 15  1  0
 15 16  1  0
 15 38  1  0
 15 39  1  0
 16 17  1  0
 16 40  1  0
 16 41  1  0
 17 18  1  1
 17 19  1  0
 18 42  1  0
 18 43  1  0
 18 44  1  0
 19 20  1  0
 19 45  1  6
 20 21  1  0
 20 46  1  0
 20 47  1  0
 21 22  1  0
 21 48  1  0
 21 49  1  0
 22 23  1  1
 23 50  1  0
 23 51  1  0
 23 52  1  0
M  END
>  <i_m_ct_stereo_status>  (34) 
1

>  <s_m_source_file>  (34) 
/var/tmp/pbs.5076255.sched01/tmp9s019jnz/08u7fdliu.sdf

>  <i_m_source_file_index>  (34) 
14

>  <i_lp_mmshare_version>  (34) 
48012

>  <i_f3d_flags>  (34) 
0

>  <s_epik_input>  (34) 
W0NIM11DKD1PKVtDQEhdKFtDSDJdW0NIMl0xKVtDQEBdKFtDSDNdKShbQ0gyXVtDSDJdW0NAQEhdMjMpW0NASF0xW0NAQEhdMltDSDJdTj1DKFtDQEBdMzRbQ0gzXSlbQ0gyXUMoPU8pW0NIMl1bQ0gyXTQ=

>  <s_epik_cmdline>  (34) 
J2VwaWtfcHl0aG9uJywgJy1waHQnLCAnMi4wJywgJy1waCcsICc3LjAnLCAnLXRuJywgJzgnLCAnLW1hJywgJzIwMCcsICctaW1hZScsICc8aW5maWxlLm1hZT4nLCAnLW9tYWUnLCAnPG91dGZpbGUubWFlPic=

>  <r_lp_tautomer_probability>  (34) 
1

>  <r_epik_Ionization_Penalty>  (34) 
0.993731

>  <r_epik_Ionization_Penalty_Charging>  (34) 
0.993729

>  <r_epik_Ionization_Penalty_Neutral>  (34) 
2.33453e-06

>  <r_epik_State_Penalty>  (34) 
0.000152721

>  <r_epik_Charging_Adjusted_Penalty>  (34) 
0.993882

>  <i_epik_Tot_Q>  (34) 
0

>  <i_epik_Tot_abs_Q>  (34) 
0

>  <s_epik_Chemistry_Notes>  (34) 
This compound has an imine and may undergo hydrolysis.

>  <s_lp_Force_Field>  (34) 
OPLS3e

>  <r_lp_Energy>  (34) 
29.6235

>  <b_lp_Chiralities_Consistent>  (34) 
1

>  <s_lp_Variant>  (34) 
7:0-1

>  <s_i_glide_gridfile>  (34) 
pfpi4k_grid

>  <i_i_glide_lignum>  (34) 
14

>  <i_i_glide_rotatable_bonds>  (34) 
1

>  <r_i_docking_score>  (34) 
-4.31905

>  <r_i_glide_ligand_efficiency>  (34) 
-0.187785

>  <r_i_glide_ligand_efficiency_sa>  (34) 
-0.534035

>  <r_i_glide_ligand_efficiency_ln>  (34) 
-1.04439

>  <r_i_glide_gscore>  (34) 
-4.31905

>  <r_i_glide_lipo>  (34) 
-0.175221

>  <r_i_glide_hbond>  (34) 
-0.608

>  <r_i_glide_metal>  (34) 
-0

>  <r_i_glide_rewards>  (34) 
-1.37946

>  <r_i_glide_evdw>  (34) 
-25.1634

>  <r_i_glide_ecoul>  (34) 
-5.98667

>  <r_i_glide_erotb>  (34) 
0

>  <r_i_glide_esite>  (34) 
-0.000194565

>  <r_i_glide_emodel>  (34) 
-40.0534

>  <r_i_glide_energy>  (34) 
-31.1501

>  <r_i_glide_einternal>  (34) 
0.093152

>  <r_i_glide_intrahb_reward>  (34) 
-0

>  <i_i_glide_confnum>  (34) 
2

>  <i_i_glide_posenum>  (34) 
35

>  <r_i_glide_eff_state_penalty>  (34) 
0

>  <ligand_id>  (34) 
7

>  <original_smiles>  (34) 
CC(=O)C1CCC2C3CN=C4CC(=O)CCC4(C)C3CCC12C

>  <smiles>  (34) 
[H]C1=C2N([H])C([H])([H])C3([H])C([H])(C([H])([H])C([H])([H])C4(C([H])([H])[H])C([H])(C(=O)C([H])([H])[H])C([H])([H])C([H])([H])C34[H])C2(C([H])([H])[H])C([H])([H])C([H])([H])C1=O

$$$$
7:0:1
     RDKit          3D

 52 55  0  0  1  0  0  0  0  0999 V2000
   -0.7211   -3.0111    6.4433 C   0  0  0  0  0  0  0  0  0  0  0  0
    0.5032   -3.4353    5.6381 C   0  0  0  0  0  0  0  0  0  0  0  0
    0.7807   -4.6306    5.5500 O   0  0  0  0  0  0  0  0  0  0  0  0
    1.3668   -2.3177    5.0114 C   0  0  2  0  0  0  0  0  0  0  0  0
    0.5602   -1.2679    4.2310 C   0  0  0  0  0  0  0  0  0  0  0  0
    1.5205   -0.6750    3.1868 C   0  0  0  0  0  0  0  0  0  0  0  0
    2.8729   -1.3900    3.3880 C   0  0  2  0  0  0  0  0  0  0  0  0
    3.7811   -1.5077    2.1289 C   0  0  2  0  0  0  0  0  0  0  0  0
    4.0266   -0.1435    1.4796 C   0  0  0  0  0  0  0  0  0  0  0  0
    4.7494   -0.2588    0.2218 N   0  0  0  0  0  0  0  0  0  0  0  0
    4.4397   -1.2048   -0.7339 C   0  0  0  0  0  0  0  0  0  0  0  0
    4.3878   -0.8666   -2.0400 C   0  0  0  0  0  0  0  0  0  0  0  0
    4.1113   -1.8450   -3.0951 C   0  0  0  0  0  0  0  0  0  0  0  0
    4.0031   -1.5434   -4.2815 O   0  0  0  0  0  0  0  0  0  0  0  0
    4.0309   -3.3105   -2.6902 C   0  0  0  0  0  0  0  0  0  0  0  0
    3.4325   -3.4569   -1.2797 C   0  0  0  0  0  0  0  0  0  0  0  0
    4.1602   -2.6165   -0.1938 C   0  0  1  0  0  0  0  0  0  0  0  0
    5.5306   -3.2754    0.1172 C   0  0  0  0  0  0  0  0  0  0  0  0
    3.2611   -2.5340    1.0949 C   0  0  1  0  0  0  0  0  0  0  0  0
    3.0347   -3.8895    1.7932 C   0  0  0  0  0  0  0  0  0  0  0  0
    2.0575   -3.7484    2.9681 C   0  0  0  0  0  0  0  0  0  0  0  0
    2.5226   -2.7395    4.0591 C   0  0  2  0  0  0  0  0  0  0  0  0
    3.7174   -3.3040    4.8601 C   0  0  0  0  0  0  0  0  0  0  0  0
   -1.3858   -2.3950    5.8383 H   0  0  0  0  0  0  0  0  0  0  0  0
   -0.4073   -2.4556    7.3262 H   0  0  0  0  0  0  0  0  0  0  0  0
   -1.2647   -3.9014    6.7595 H   0  0  0  0  0  0  0  0  0  0  0  0
    1.8220   -1.7893    5.8490 H   0  0  0  0  0  0  0  0  0  0  0  0
   -0.2941   -1.7226    3.7223 H   0  0  0  0  0  0  0  0  0  0  0  0
    0.1733   -0.4860    4.8905 H   0  0  0  0  0  0  0  0  0  0  0  0
    1.1172   -0.8441    2.1881 H   0  0  0  0  0  0  0  0  0  0  0  0
    1.6232    0.4054    3.3096 H   0  0  0  0  0  0  0  0  0  0  0  0
    3.4153   -0.7925    4.1229 H   0  0  0  0  0  0  0  0  0  0  0  0
    4.7496   -1.8640    2.4858 H   0  0  0  0  0  0  0  0  0  0  0  0
    3.0845    0.3722    1.2840 H   0  0  0  0  0  0  0  0  0  0  0  0
    4.6005    0.4831    2.1639 H   0  0  0  0  0  0  0  0  0  0  0  0
    4.5694    0.1508   -2.3479 H   0  0  0  0  0  0  0  0  0  0  0  0
    5.0187    0.6595   -0.1441 H   0  0  0  0  0  0  0  0  0  0  0  0
    5.0329   -3.7384   -2.7353 H   0  0  0  0  0  0  0  0  0  0  0  0
    3.4238   -3.8447   -3.4147 H   0  0  0  0  0  0  0  0  0  0  0  0
    2.3780   -3.1798   -1.3279 H   0  0  0  0  0  0  0  0  0  0  0  0
    3.4520   -4.5080   -1.0145 H   0  0  0  0  0  0  0  0  0  0  0  0
    5.4300   -4.3191    0.4134 H   0  0  0  0  0  0  0  0  0  0  0  0
    6.0637   -2.7513    0.9093 H   0  0  0  0  0  0  0  0  0  0  0  0
    6.1780   -3.2581   -0.7623 H   0  0  0  0  0  0  0  0  0  0  0  0
    2.2824   -2.1872    0.7598 H   0  0  0  0  0  0  0  0  0  0  0  0
    2.6227   -4.6237    1.1012 H   0  0  0  0  0  0  0  0  0  0  0  0
    3.9711   -4.3089    2.1635 H   0  0  0  0  0  0  0  0  0  0  0  0
    1.0909   -3.4313    2.5784 H   0  0  0  0  0  0  0  0  0  0  0  0
    1.9157   -4.7456    3.3858 H   0  0  0  0  0  0  0  0  0  0  0  0
    4.5927   -3.4607    4.2298 H   0  0  0  0  0  0  0  0  0  0  0  0
    3.4728   -4.2626    5.3190 H   0  0  0  0  0  0  0  0  0  0  0  0
    4.0206   -2.6281    5.6596 H   0  0  0  0  0  0  0  0  0  0  0  0
  1  2  1  0
  1 24  1  0
  1 25  1  0
  1 26  1  0
  2  3  2  0
  2  4  1  0
  4 22  1  0
  4  5  1  0
  4 27  1  1
  5  6  1  0
  5 28  1  0
  5 29  1  0
  6  7  1  0
  6 30  1  0
  6 31  1  0
  7 22  1  0
  7  8  1  0
  7 32  1  1
  8 19  1  0
  8  9  1  0
  8 33  1  1
  9 34  1  0
  9 35  1  0
  9 10  1  0
 10 11  1  0
 10 37  1  0
 11 12  2  0
 11 17  1  0
 12 13  1  0
 12 36  1  0
 13 14  2  0
 13 15  1  0
 15 16  1  0
 15 38  1  0
 15 39  1  0
 16 17  1  0
 16 40  1  0
 16 41  1  0
 17 18  1  1
 17 19  1  0
 18 42  1  0
 18 43  1  0
 18 44  1  0
 19 20  1  0
 19 45  1  6
 20 21  1  0
 20 46  1  0
 20 47  1  0
 21 22  1  0
 21 48  1  0
 21 49  1  0
 22 23  1  1
 23 50  1  0
 23 51  1  0
 23 52  1  0
M  END
>  <i_m_ct_stereo_status>  (35) 
1

>  <s_m_source_file>  (35) 
/var/tmp/pbs.5076255.sched01/tmp9s019jnz/08u7fdliu.sdf

>  <i_m_source_file_index>  (35) 
14

>  <i_lp_mmshare_version>  (35) 
48012

>  <i_f3d_flags>  (35) 
0

>  <s_epik_input>  (35) 
W0NIM11DKD1PKVtDQEhdKFtDSDJdW0NIMl0xKVtDQEBdKFtDSDNdKShbQ0gyXVtDSDJdW0NAQEhdMjMpW0NASF0xW0NAQEhdMltDSDJdTj1DKFtDQEBdMzRbQ0gzXSlbQ0gyXUMoPU8pW0NIMl1bQ0gyXTQ=

>  <s_epik_cmdline>  (35) 
J2VwaWtfcHl0aG9uJywgJy1waHQnLCAnMi4wJywgJy1waCcsICc3LjAnLCAnLXRuJywgJzgnLCAnLW1hJywgJzIwMCcsICctaW1hZScsICc8aW5maWxlLm1hZT4nLCAnLW9tYWUnLCAnPG91dGZpbGUubWFlPic=

>  <r_lp_tautomer_probability>  (35) 
1

>  <r_epik_Ionization_Penalty>  (35) 
0.993731

>  <r_epik_Ionization_Penalty_Charging>  (35) 
0.993729

>  <r_epik_Ionization_Penalty_Neutral>  (35) 
2.33453e-06

>  <r_epik_State_Penalty>  (35) 
0.000152721

>  <r_epik_Charging_Adjusted_Penalty>  (35) 
0.993882

>  <i_epik_Tot_Q>  (35) 
0

>  <i_epik_Tot_abs_Q>  (35) 
0

>  <s_epik_Chemistry_Notes>  (35) 
This compound has an imine and may undergo hydrolysis.

>  <s_lp_Force_Field>  (35) 
OPLS3e

>  <r_lp_Energy>  (35) 
29.6235

>  <b_lp_Chiralities_Consistent>  (35) 
1

>  <s_lp_Variant>  (35) 
7:0-1

>  <s_i_glide_gridfile>  (35) 
pfpi4k_grid

>  <i_i_glide_lignum>  (35) 
14

>  <i_i_glide_rotatable_bonds>  (35) 
1

>  <r_i_docking_score>  (35) 
-4.29089

>  <r_i_glide_ligand_efficiency>  (35) 
-0.18656

>  <r_i_glide_ligand_efficiency_sa>  (35) 
-0.530553

>  <r_i_glide_ligand_efficiency_ln>  (35) 
-1.03758

>  <r_i_glide_gscore>  (35) 
-4.29089

>  <r_i_glide_lipo>  (35) 
-0.160964

>  <r_i_glide_hbond>  (35) 
-0.587379

>  <r_i_glide_metal>  (35) 
-0

>  <r_i_glide_rewards>  (35) 
-1.39313

>  <r_i_glide_evdw>  (35) 
-25.7774

>  <r_i_glide_ecoul>  (35) 
-5.70397

>  <r_i_glide_erotb>  (35) 
0

>  <r_i_glide_esite>  (35) 
-0.00494677

>  <r_i_glide_emodel>  (35) 
-39.9674

>  <r_i_glide_energy>  (35) 
-31.4814

>  <r_i_glide_einternal>  (35) 
1.16477

>  <r_i_glide_intrahb_reward>  (35) 
-0

>  <i_i_glide_confnum>  (35) 
2

>  <i_i_glide_posenum>  (35) 
1

>  <r_i_glide_eff_state_penalty>  (35) 
0

>  <ligand_id>  (35) 
7

>  <original_smiles>  (35) 
CC(=O)C1CCC2C3CN=C4CC(=O)CCC4(C)C3CCC12C

>  <smiles>  (35) 
[H]C1=C2N([H])C([H])([H])C3([H])C([H])(C([H])([H])C([H])([H])C4(C([H])([H])[H])C([H])(C(=O)C([H])([H])[H])C([H])([H])C([H])([H])C34[H])C2(C([H])([H])[H])C([H])([H])C([H])([H])C1=O

$$$$
7:0:2
     RDKit          3D

 52 55  0  0  1  0  0  0  0  0999 V2000
    2.5450   -6.5737    5.0616 C   0  0  0  0  0  0  0  0  0  0  0  0
    1.8202   -5.4155    4.3754 C   0  0  0  0  0  0  0  0  0  0  0  0
    0.6088   -5.4799    4.1593 O   0  0  0  0  0  0  0  0  0  0  0  0
    2.6513   -4.1697    4.0020 C   0  0  2  0  0  0  0  0  0  0  0  0
    1.8215   -2.8775    3.8413 C   0  0  0  0  0  0  0  0  0  0  0  0
    2.6019   -1.9897    2.8616 C   0  0  0  0  0  0  0  0  0  0  0  0
    3.8672   -2.7836    2.4695 C   0  0  2  0  0  0  0  0  0  0  0  0
    4.4634   -2.4749    1.0649 C   0  0  2  0  0  0  0  0  0  0  0  0
    4.7425   -0.9796    0.8767 C   0  0  0  0  0  0  0  0  0  0  0  0
    5.1520   -0.6552   -0.4799 N   0  0  0  0  0  0  0  0  0  0  0  0
    4.5198   -1.1845   -1.5899 C   0  0  0  0  0  0  0  0  0  0  0  0
    4.2226   -0.4080   -2.6541 C   0  0  0  0  0  0  0  0  0  0  0  0
    3.6125   -0.9321   -3.8696 C   0  0  0  0  0  0  0  0  0  0  0  0
    3.3142   -0.2211   -4.8245 O   0  0  0  0  0  0  0  0  0  0  0  0
    3.4327   -2.4331   -3.9737 C   0  0  0  0  0  0  0  0  0  0  0  0
    3.1417   -3.0384   -2.6026 C   0  0  0  0  0  0  0  0  0  0  0  0
    4.1875   -2.6850   -1.5092 C   0  0  1  0  0  0  0  0  0  0  0  0
    5.5003   -3.4602   -1.7926 C   0  0  0  0  0  0  0  0  0  0  0  0
    3.6070   -3.0448   -0.0911 C   0  0  1  0  0  0  0  0  0  0  0  0
    3.3672   -4.5541    0.1434 C   0  0  0  0  0  0  0  0  0  0  0  0
    2.7045   -4.8168    1.5072 C   0  0  0  0  0  0  0  0  0  0  0  0
    3.5165   -4.2682    2.7127 C   0  0  2  0  0  0  0  0  0  0  0  0
    4.7874   -5.1205    2.9325 C   0  0  0  0  0  0  0  0  0  0  0  0
    3.0631   -6.2293    5.9558 H   0  0  0  0  0  0  0  0  0  0  0  0
    3.2724   -7.0272    4.3966 H   0  0  0  0  0  0  0  0  0  0  0  0
    1.8380   -7.3522    5.3414 H   0  0  0  0  0  0  0  0  0  0  0  0
    3.3327   -3.9883    4.8333 H   0  0  0  0  0  0  0  0  0  0  0  0
    0.8249   -3.0687    3.4296 H   0  0  0  0  0  0  0  0  0  0  0  0
    1.6803   -2.3788    4.8038 H   0  0  0  0  0  0  0  0  0  0  0  0
    1.9753   -1.7774    1.9951 H   0  0  0  0  0  0  0  0  0  0  0  0
    2.8624   -1.0328    3.3145 H   0  0  0  0  0  0  0  0  0  0  0  0
    4.6227   -2.5142    3.2088 H   0  0  0  0  0  0  0  0  0  0  0  0
    5.4309   -2.9788    1.0289 H   0  0  0  0  0  0  0  0  0  0  0  0
    3.8499   -0.3932    1.0963 H   0  0  0  0  0  0  0  0  0  0  0  0
    5.5200   -0.6639    1.5727 H   0  0  0  0  0  0  0  0  0  0  0  0
    4.4620    0.6406   -2.6640 H   0  0  0  0  0  0  0  0  0  0  0  0
    5.3810    0.3414   -0.5671 H   0  0  0  0  0  0  0  0  0  0  0  0
    4.3431   -2.8586   -4.3945 H   0  0  0  0  0  0  0  0  0  0  0  0
    2.6211   -2.6536   -4.6593 H   0  0  0  0  0  0  0  0  0  0  0  0
    2.1381   -2.7323   -2.2956 H   0  0  0  0  0  0  0  0  0  0  0  0
    3.1126   -4.0988   -2.7712 H   0  0  0  0  0  0  0  0  0  0  0  0
    5.3296   -4.5353   -1.8580 H   0  0  0  0  0  0  0  0  0  0  0  0
    6.2532   -3.2855   -1.0260 H   0  0  0  0  0  0  0  0  0  0  0  0
    5.9429   -3.1537   -2.7440 H   0  0  0  0  0  0  0  0  0  0  0  0
    2.6304   -2.5604   -0.0412 H   0  0  0  0  0  0  0  0  0  0  0  0
    2.7206   -4.9621   -0.6336 H   0  0  0  0  0  0  0  0  0  0  0  0
    4.3028   -5.1170    0.0927 H   0  0  0  0  0  0  0  0  0  0  0  0
    1.7359   -4.3308    1.5009 H   0  0  0  0  0  0  0  0  0  0  0  0
    2.5134   -5.8846    1.6240 H   0  0  0  0  0  0  0  0  0  0  0  0
    5.4767   -5.0425    2.0924 H   0  0  0  0  0  0  0  0  0  0  0  0
    4.5579   -6.1791    3.0311 H   0  0  0  0  0  0  0  0  0  0  0  0
    5.3248   -4.8051    3.8289 H   0  0  0  0  0  0  0  0  0  0  0  0
  1  2  1  0
  1 24  1  0
  1 25  1  0
  1 26  1  0
  2  3  2  0
  2  4  1  0
  4 22  1  0
  4  5  1  0
  4 27  1  1
  5  6  1  0
  5 28  1  0
  5 29  1  0
  6  7  1  0
  6 30  1  0
  6 31  1  0
  7 22  1  0
  7  8  1  0
  7 32  1  1
  8 19  1  0
  8  9  1  0
  8 33  1  1
  9 34  1  0
  9 35  1  0
  9 10  1  0
 10 11  1  0
 10 37  1  0
 11 12  2  0
 11 17  1  0
 12 13  1  0
 12 36  1  0
 13 14  2  0
 13 15  1  0
 15 16  1  0
 15 38  1  0
 15 39  1  0
 16 17  1  0
 16 40  1  0
 16 41  1  0
 17 18  1  6
 17 19  1  0
 18 42  1  0
 18 43  1  0
 18 44  1  0
 19 20  1  0
 19 45  1  6
 20 21  1  0
 20 46  1  0
 20 47  1  0
 21 22  1  0
 21 48  1  0
 21 49  1  0
 22 23  1  1
 23 50  1  0
 23 51  1  0
 23 52  1  0
M  END
>  <i_m_ct_stereo_status>  (36) 
1

>  <s_m_source_file>  (36) 
/var/tmp/pbs.5076255.sched01/tmp9s019jnz/08u7fdliu.sdf

>  <i_m_source_file_index>  (36) 
14

>  <i_lp_mmshare_version>  (36) 
48012

>  <i_f3d_flags>  (36) 
0

>  <s_epik_input>  (36) 
W0NIM11DKD1PKVtDQEhdKFtDSDJdW0NIMl0xKVtDQEBdKFtDSDNdKShbQ0gyXVtDSDJdW0NAQEhdMjMpW0NASF0xW0NAQEhdMltDSDJdTj1DKFtDQEBdMzRbQ0gzXSlbQ0gyXUMoPU8pW0NIMl1bQ0gyXTQ=

>  <s_epik_cmdline>  (36) 
J2VwaWtfcHl0aG9uJywgJy1waHQnLCAnMi4wJywgJy1waCcsICc3LjAnLCAnLXRuJywgJzgnLCAnLW1hJywgJzIwMCcsICctaW1hZScsICc8aW5maWxlLm1hZT4nLCAnLW9tYWUnLCAnPG91dGZpbGUubWFlPic=

>  <r_lp_tautomer_probability>  (36) 
1

>  <r_epik_Ionization_Penalty>  (36) 
0.993731

>  <r_epik_Ionization_Penalty_Charging>  (36) 
0.993729

>  <r_epik_Ionization_Penalty_Neutral>  (36) 
2.33453e-06

>  <r_epik_State_Penalty>  (36) 
0.000152721

>  <r_epik_Charging_Adjusted_Penalty>  (36) 
0.993882

>  <i_epik_Tot_Q>  (36) 
0

>  <i_epik_Tot_abs_Q>  (36) 
0

>  <s_epik_Chemistry_Notes>  (36) 
This compound has an imine and may undergo hydrolysis.

>  <s_lp_Force_Field>  (36) 
OPLS3e

>  <r_lp_Energy>  (36) 
29.6235

>  <b_lp_Chiralities_Consistent>  (36) 
1

>  <s_lp_Variant>  (36) 
7:0-1

>  <s_i_glide_gridfile>  (36) 
pfpi4k_grid

>  <i_i_glide_lignum>  (36) 
14

>  <i_i_glide_rotatable_bonds>  (36) 
1

>  <r_i_docking_score>  (36) 
-4.2886

>  <r_i_glide_ligand_efficiency>  (36) 
-0.186461

>  <r_i_glide_ligand_efficiency_sa>  (36) 
-0.53027

>  <r_i_glide_ligand_efficiency_ln>  (36) 
-1.03702

>  <r_i_glide_gscore>  (36) 
-4.2886

>  <r_i_glide_lipo>  (36) 
-0.449661

>  <r_i_glide_hbond>  (36) 
-0.32

>  <r_i_glide_metal>  (36) 
-0

>  <r_i_glide_rewards>  (36) 
-1.51617

>  <r_i_glide_evdw>  (36) 
-26.7212

>  <r_i_glide_ecoul>  (36) 
-4.22771

>  <r_i_glide_erotb>  (36) 
0

>  <r_i_glide_esite>  (36) 
-0.0325485

>  <r_i_glide_emodel>  (36) 
-39.8469

>  <r_i_glide_energy>  (36) 
-30.9489

>  <r_i_glide_einternal>  (36) 
0.0479333

>  <r_i_glide_intrahb_reward>  (36) 
-0

>  <i_i_glide_confnum>  (36) 
1

>  <i_i_glide_posenum>  (36) 
21

>  <r_i_glide_eff_state_penalty>  (36) 
0

>  <ligand_id>  (36) 
7

>  <original_smiles>  (36) 
CC(=O)C1CCC2C3CN=C4CC(=O)CCC4(C)C3CCC12C

>  <smiles>  (36) 
[H]C1=C2N([H])C([H])([H])C3([H])C([H])(C([H])([H])C([H])([H])C4(C([H])([H])[H])C([H])(C(=O)C([H])([H])[H])C([H])([H])C([H])([H])C34[H])C2(C([H])([H])[H])C([H])([H])C([H])([H])C1=O

$$$$
8:0:0
     RDKit          3D

 39 41  0  0  1  0  0  0  0  0999 V2000
    1.2338    2.3428    3.0122 C   0  0  0  0  0  0  0  0  0  0  0  0
    1.3895    1.0196    2.2408 C   0  0  0  0  0  0  0  0  0  0  0  0
    2.8007    0.7007    1.9259 N   0  0  1  0  0  0  0  0  0  0  0  0
    3.6419    0.4740    3.1260 C   0  0  0  0  0  0  0  0  0  0  0  0
    4.9723   -0.2562    2.8563 C   0  0  0  0  0  0  0  0  0  0  0  0
    5.7414   -0.3641    3.8050 O   0  0  0  0  0  0  0  0  0  0  0  0
    5.2406   -0.7473    1.6135 N   0  0  0  0  0  0  0  0  0  0  0  0
    6.4849   -1.4507    1.3073 C   0  0  0  0  0  0  0  0  0  0  0  0
    6.2773   -2.9876    1.3844 C   0  0  0  0  0  0  0  0  0  0  0  0
    4.9906   -3.4957    0.7088 C   0  0  0  0  0  0  0  0  0  0  0  0
    4.7435   -2.8488   -0.6411 C   0  0  0  0  0  0  0  0  0  0  0  0
    4.7906   -3.6517   -1.8035 C   0  0  0  0  0  0  0  0  0  0  0  0
    4.5725   -3.0856   -3.0728 C   0  0  0  0  0  0  0  0  0  0  0  0
    4.3154   -1.7112   -3.1866 C   0  0  0  0  0  0  0  0  0  0  0  0
    4.2801   -0.9139   -2.0375 C   0  0  0  0  0  0  0  0  0  0  0  0
    4.4749   -1.4604   -0.7496 C   0  0  0  0  0  0  0  0  0  0  0  0
    4.3556   -0.5116    0.4625 C   0  0  1  0  0  0  0  0  0  0  0  0
    2.9155   -0.4035    0.9565 C   0  0  0  0  0  0  0  0  0  0  0  0
    0.1730    2.5520    3.1594 H   0  0  0  0  0  0  0  0  0  0  0  0
    1.6576    3.1887    2.4616 H   0  0  0  0  0  0  0  0  0  0  0  0
    1.7021    2.3003    3.9996 H   0  0  0  0  0  0  0  0  0  0  0  0
    0.9378    0.2036    2.8079 H   0  0  0  0  0  0  0  0  0  0  0  0
    0.8187    1.1060    1.3107 H   0  0  0  0  0  0  0  0  0  0  0  0
    3.8818    1.4383    3.5790 H   0  0  0  0  0  0  0  0  0  0  0  0
    3.0972   -0.1092    3.8692 H   0  0  0  0  0  0  0  0  0  0  0  0
    6.8746   -1.1708    0.3236 H   0  0  0  0  0  0  0  0  0  0  0  0
    7.2459   -1.0820    1.9914 H   0  0  0  0  0  0  0  0  0  0  0  0
    7.1340   -3.4722    0.9181 H   0  0  0  0  0  0  0  0  0  0  0  0
    6.2537   -3.3212    2.4219 H   0  0  0  0  0  0  0  0  0  0  0  0
    5.0284   -4.5819    0.6033 H   0  0  0  0  0  0  0  0  0  0  0  0
    4.1330   -3.2929    1.3506 H   0  0  0  0  0  0  0  0  0  0  0  0
    4.9686   -4.7132   -1.7282 H   0  0  0  0  0  0  0  0  0  0  0  0
    4.5930   -3.7067   -3.9552 H   0  0  0  0  0  0  0  0  0  0  0  0
    4.1528   -1.2535   -4.1504 H   0  0  0  0  0  0  0  0  0  0  0  0
    4.1046    0.1427   -2.1641 H   0  0  0  0  0  0  0  0  0  0  0  0
    4.6305    0.4799    0.1024 H   0  0  0  0  0  0  0  0  0  0  0  0
    2.5812   -1.3463    1.4050 H   0  0  0  0  0  0  0  0  0  0  0  0
    2.2822   -0.1782    0.1099 H   0  0  0  0  0  0  0  0  0  0  0  0
    3.1851    1.5182    1.4648 H   0  0  0  0  0  0  0  0  0  0  0  0
  1  2  1  0
  1 19  1  0
  1 20  1  0
  1 21  1  0
  2  3  1  0
  2 22  1  0
  2 23  1  0
  3 18  1  0
  3  4  1  0
  3 39  1  6
  4  5  1  0
  4 24  1  0
  4 25  1  0
  5  6  2  0
  5  7  1  0
  7 17  1  0
  7  8  1  0
  8  9  1  0
  8 26  1  0
  8 27  1  0
  9 10  1  0
  9 28  1  0
  9 29  1  0
 10 11  1  0
 10 30  1  0
 10 31  1  0
 11 16  2  0
 11 12  1  0
 12 13  2  0
 12 32  1  0
 13 14  1  0
 13 33  1  0
 14 15  2  0
 14 34  1  0
 15 16  1  0
 15 35  1  0
 16 17  1  0
 17 18  1  0
 17 36  1  6
 18 37  1  0
 18 38  1  0
M  CHG  1   3   1
M  END
>  <i_m_ct_stereo_status>  (37) 
1

>  <s_m_source_file>  (37) 
/var/tmp/pbs.5076255.sched01/tmp9s019jnz/08u7fdliu.sdf

>  <i_m_source_file_index>  (37) 
15

>  <i_lp_mmshare_version>  (37) 
48012

>  <i_f3d_flags>  (37) 
0

>  <s_epik_input>  (37) 
Tz1DMVtDSDJdTihbQ0gyXVtDSDNdKVtDSDJdW0NAQEhdKE4xMiljM2MoW0NIMl1bQ0gyXVtDSDJdMilbY0hdW2NIXVtjSF1bY0hdMw==

>  <s_epik_cmdline>  (37) 
J2VwaWtfcHl0aG9uJywgJy1waHQnLCAnMi4wJywgJy1waCcsICc3LjAnLCAnLXRuJywgJzgnLCAnLW1hJywgJzIwMCcsICctaW1hZScsICc8aW5maWxlLm1hZT4nLCAnLW9tYWUnLCAnPG91dGZpbGUubWFlPic=

>  <r_epik_Ionization_Penalty>  (37) 
0.382524

>  <r_epik_Ionization_Penalty_Charging>  (37) 
0.382524

>  <r_epik_Ionization_Penalty_Neutral>  (37) 
9.86687e-15

>  <r_epik_State_Penalty>  (37) 
0.380685

>  <r_epik_Charging_Adjusted_Penalty>  (37) 
0.763209

>  <i_epik_Tot_Q>  (37) 
1

>  <i_epik_Tot_abs_Q>  (37) 
1

>  <s_lp_Force_Field>  (37) 
OPLS3e

>  <r_lp_Energy>  (37) 
43.1328

>  <b_lp_Chiralities_Consistent>  (37) 
1

>  <s_lp_Variant>  (37) 
8:0-1

>  <s_i_glide_gridfile>  (37) 
pfpi4k_grid

>  <i_i_glide_lignum>  (37) 
15

>  <i_i_glide_rotatable_bonds>  (37) 
1

>  <r_i_docking_score>  (37) 
-4.21361

>  <r_i_glide_ligand_efficiency>  (37) 
-0.234089

>  <r_i_glide_ligand_efficiency_sa>  (37) 
-0.613487

>  <r_i_glide_ligand_efficiency_ln>  (37) 
-1.08309

>  <r_i_glide_gscore>  (37) 
-4.21361

>  <r_i_glide_lipo>  (37) 
-0.562844

>  <r_i_glide_hbond>  (37) 
0

>  <r_i_glide_metal>  (37) 
-0

>  <r_i_glide_rewards>  (37) 
-2.08075

>  <r_i_glide_evdw>  (37) 
-18.9146

>  <r_i_glide_ecoul>  (37) 
-4.1619

>  <r_i_glide_erotb>  (37) 
0

>  <r_i_glide_esite>  (37) 
0

>  <r_i_glide_emodel>  (37) 
-29.6125

>  <r_i_glide_energy>  (37) 
-23.0765

>  <r_i_glide_einternal>  (37) 
0.000272502

>  <r_i_glide_intrahb_reward>  (37) 
-0

>  <i_i_glide_confnum>  (37) 
1

>  <i_i_glide_posenum>  (37) 
13

>  <r_i_glide_eff_state_penalty>  (37) 
0

>  <ligand_id>  (37) 
8

>  <original_smiles>  (37) 
CCN1CC(=O)N2CCCc3ccccc3C2C1

>  <smiles>  (37) 
[H]c1c([H])c([H])c2c(c1[H])C([H])([H])C([H])([H])C([H])([H])N1C(=O)C([H])([H])[N+]([H])(C([H])([H])C([H])([H])[H])C([H])([H])C21[H]

$$$$
8:0:1
     RDKit          3D

 39 41  0  0  1  0  0  0  0  0999 V2000
    6.4134   -6.6875    1.2874 C   0  0  0  0  0  0  0  0  0  0  0  0
    4.8882   -6.9238    1.1951 C   0  0  0  0  0  0  0  0  0  0  0  0
    4.0980   -5.6726    1.2496 N   0  0  1  0  0  0  0  0  0  0  0  0
    4.0507   -5.0692    2.6091 C   0  0  0  0  0  0  0  0  0  0  0  0
    3.6345   -3.5895    2.6695 C   0  0  0  0  0  0  0  0  0  0  0  0
    3.5665   -3.0759    3.7810 O   0  0  0  0  0  0  0  0  0  0  0  0
    3.3972   -2.9060    1.5184 N   0  0  0  0  0  0  0  0  0  0  0  0
    3.0266   -1.4832    1.5561 C   0  0  0  0  0  0  0  0  0  0  0  0
    4.2470   -0.5744    1.2961 C   0  0  0  0  0  0  0  0  0  0  0  0
    5.1856   -1.0590    0.1743 C   0  0  0  0  0  0  0  0  0  0  0  0
    4.4518   -1.5258   -1.0706 C   0  0  0  0  0  0  0  0  0  0  0  0
    4.5982   -0.8008   -2.2751 C   0  0  0  0  0  0  0  0  0  0  0  0
    3.9156   -1.1914   -3.4389 C   0  0  0  0  0  0  0  0  0  0  0  0
    3.0795   -2.3172   -3.4166 C   0  0  0  0  0  0  0  0  0  0  0  0
    2.9353   -3.0524   -2.2241 C   0  0  0  0  0  0  0  0  0  0  0  0
    3.6103   -2.6704   -1.0444 C   0  0  0  0  0  0  0  0  0  0  0  0
    3.4119   -3.5613    0.1907 C   0  0  1  0  0  0  0  0  0  0  0  0
    4.4353   -4.7096    0.1805 C   0  0  0  0  0  0  0  0  0  0  0  0
    6.9529   -7.6376    1.3044 H   0  0  0  0  0  0  0  0  0  0  0  0
    6.7019   -6.1327    2.1877 H   0  0  0  0  0  0  0  0  0  0  0  0
    6.7841   -6.1220    0.4236 H   0  0  0  0  0  0  0  0  0  0  0  0
    4.6615   -7.4312    0.2538 H   0  0  0  0  0  0  0  0  0  0  0  0
    4.5572   -7.6028    1.9837 H   0  0  0  0  0  0  0  0  0  0  0  0
    3.3794   -5.6583    3.2420 H   0  0  0  0  0  0  0  0  0  0  0  0
    5.0257   -5.0997    3.0908 H   0  0  0  0  0  0  0  0  0  0  0  0
    2.2375   -1.2949    0.8300 H   0  0  0  0  0  0  0  0  0  0  0  0
    2.5744   -1.2079    2.5107 H   0  0  0  0  0  0  0  0  0  0  0  0
    3.8712    0.4180    1.0456 H   0  0  0  0  0  0  0  0  0  0  0  0
    4.8236   -0.4609    2.2152 H   0  0  0  0  0  0  0  0  0  0  0  0
    5.8804   -0.2574   -0.0786 H   0  0  0  0  0  0  0  0  0  0  0  0
    5.8064   -1.8761    0.5401 H   0  0  0  0  0  0  0  0  0  0  0  0
    5.2238    0.0782   -2.3096 H   0  0  0  0  0  0  0  0  0  0  0  0
    4.0227   -0.6242   -4.3508 H   0  0  0  0  0  0  0  0  0  0  0  0
    2.5341   -2.6224   -4.2955 H   0  0  0  0  0  0  0  0  0  0  0  0
    2.2760   -3.9050   -2.2181 H   0  0  0  0  0  0  0  0  0  0  0  0
    2.4159   -4.0014    0.0929 H   0  0  0  0  0  0  0  0  0  0  0  0
    5.4277   -4.2838    0.3590 H   0  0  0  0  0  0  0  0  0  0  0  0
    4.4589   -5.2124   -0.7908 H   0  0  0  0  0  0  0  0  0  0  0  0
    3.1459   -5.9515    1.0509 H   0  0  0  0  0  0  0  0  0  0  0  0
  1  2  1  0
  1 19  1  0
  1 20  1  0
  1 21  1  0
  2  3  1  0
  2 22  1  0
  2 23  1  0
  3 18  1  0
  3  4  1  0
  3 39  1  6
  4  5  1  0
  4 24  1  0
  4 25  1  0
  5  6  2  0
  5  7  1  0
  7 17  1  0
  7  8  1  0
  8  9  1  0
  8 26  1  0
  8 27  1  0
  9 10  1  0
  9 28  1  0
  9 29  1  0
 10 11  1  0
 10 30  1  0
 10 31  1  0
 11 16  2  0
 11 12  1  0
 12 13  2  0
 12 32  1  0
 13 14  1  0
 13 33  1  0
 14 15  2  0
 14 34  1  0
 15 16  1  0
 15 35  1  0
 16 17  1  0
 17 18  1  0
 17 36  1  6
 18 37  1  0
 18 38  1  0
M  CHG  1   3   1
M  END
>  <i_m_ct_stereo_status>  (38) 
1

>  <s_m_source_file>  (38) 
/var/tmp/pbs.5076255.sched01/tmp9s019jnz/08u7fdliu.sdf

>  <i_m_source_file_index>  (38) 
15

>  <i_lp_mmshare_version>  (38) 
48012

>  <i_f3d_flags>  (38) 
0

>  <s_epik_input>  (38) 
Tz1DMVtDSDJdTihbQ0gyXVtDSDNdKVtDSDJdW0NAQEhdKE4xMiljM2MoW0NIMl1bQ0gyXVtDSDJdMilbY0hdW2NIXVtjSF1bY0hdMw==

>  <s_epik_cmdline>  (38) 
J2VwaWtfcHl0aG9uJywgJy1waHQnLCAnMi4wJywgJy1waCcsICc3LjAnLCAnLXRuJywgJzgnLCAnLW1hJywgJzIwMCcsICctaW1hZScsICc8aW5maWxlLm1hZT4nLCAnLW9tYWUnLCAnPG91dGZpbGUubWFlPic=

>  <r_epik_Ionization_Penalty>  (38) 
0.382524

>  <r_epik_Ionization_Penalty_Charging>  (38) 
0.382524

>  <r_epik_Ionization_Penalty_Neutral>  (38) 
9.86687e-15

>  <r_epik_State_Penalty>  (38) 
0.380685

>  <r_epik_Charging_Adjusted_Penalty>  (38) 
0.763209

>  <i_epik_Tot_Q>  (38) 
1

>  <i_epik_Tot_abs_Q>  (38) 
1

>  <s_lp_Force_Field>  (38) 
OPLS3e

>  <r_lp_Energy>  (38) 
43.1328

>  <b_lp_Chiralities_Consistent>  (38) 
1

>  <s_lp_Variant>  (38) 
8:0-1

>  <s_i_glide_gridfile>  (38) 
pfpi4k_grid

>  <i_i_glide_lignum>  (38) 
15

>  <i_i_glide_rotatable_bonds>  (38) 
1

>  <r_i_docking_score>  (38) 
-4.02746

>  <r_i_glide_ligand_efficiency>  (38) 
-0.223748

>  <r_i_glide_ligand_efficiency_sa>  (38) 
-0.586385

>  <r_i_glide_ligand_efficiency_ln>  (38) 
-1.03524

>  <r_i_glide_gscore>  (38) 
-4.02746

>  <r_i_glide_lipo>  (38) 
-0.697052

>  <r_i_glide_hbond>  (38) 
0

>  <r_i_glide_metal>  (38) 
-0

>  <r_i_glide_rewards>  (38) 
-1.7374

>  <r_i_glide_evdw>  (38) 
-23.9756

>  <r_i_glide_ecoul>  (38) 
-2.60382

>  <r_i_glide_erotb>  (38) 
0

>  <r_i_glide_esite>  (38) 
-0.00365384

>  <r_i_glide_emodel>  (38) 
-31.5588

>  <r_i_glide_energy>  (38) 
-26.5795

>  <r_i_glide_einternal>  (38) 
2.83734

>  <r_i_glide_intrahb_reward>  (38) 
-0

>  <i_i_glide_confnum>  (38) 
1

>  <i_i_glide_posenum>  (38) 
10

>  <r_i_glide_eff_state_penalty>  (38) 
0

>  <ligand_id>  (38) 
8

>  <original_smiles>  (38) 
CCN1CC(=O)N2CCCc3ccccc3C2C1

>  <smiles>  (38) 
[H]c1c([H])c([H])c2c(c1[H])C([H])([H])C([H])([H])C([H])([H])N1C(=O)C([H])([H])[N+]([H])(C([H])([H])C([H])([H])[H])C([H])([H])C21[H]

$$$$
8:0:2
     RDKit          3D

 39 41  0  0  1  0  0  0  0  0999 V2000
    3.9693   -8.3877    1.4991 C   0  0  0  0  0  0  0  0  0  0  0  0
    4.6085   -7.2176    0.7281 C   0  0  0  0  0  0  0  0  0  0  0  0
    3.8735   -5.9379    0.8961 N   0  0  1  0  0  0  0  0  0  0  0  0
    3.9009   -5.4161    2.2910 C   0  0  0  0  0  0  0  0  0  0  0  0
    3.5567   -3.9252    2.4536 C   0  0  0  0  0  0  0  0  0  0  0  0
    3.5088   -3.4870    3.5998 O   0  0  0  0  0  0  0  0  0  0  0  0
    3.3436   -3.1520    1.3572 N   0  0  0  0  0  0  0  0  0  0  0  0
    3.0282   -1.7203    1.4868 C   0  0  0  0  0  0  0  0  0  0  0  0
    4.2842   -0.8500    1.2792 C   0  0  0  0  0  0  0  0  0  0  0  0
    5.1975   -1.2991    0.1224 C   0  0  0  0  0  0  0  0  0  0  0  0
    4.4412   -1.6549   -1.1460 C   0  0  0  0  0  0  0  0  0  0  0  0
    4.6126   -0.8595   -2.2998 C   0  0  0  0  0  0  0  0  0  0  0  0
    3.9061   -1.1425   -3.4820 C   0  0  0  0  0  0  0  0  0  0  0  0
    3.0218   -2.2312   -3.5185 C   0  0  0  0  0  0  0  0  0  0  0  0
    2.8547   -3.0384   -2.3830 C   0  0  0  0  0  0  0  0  0  0  0  0
    3.5572   -2.7671   -1.1861 C   0  0  0  0  0  0  0  0  0  0  0  0
    3.3305   -3.7217   -0.0075 C   0  0  1  0  0  0  0  0  0  0  0  0
    4.2947   -4.9192   -0.0867 C   0  0  0  0  0  0  0  0  0  0  0  0
    4.5068   -9.3119    1.2778 H   0  0  0  0  0  0  0  0  0  0  0  0
    2.9257   -8.5446    1.2181 H   0  0  0  0  0  0  0  0  0  0  0  0
    4.0152   -8.2375    2.5790 H   0  0  0  0  0  0  0  0  0  0  0  0
    5.6491   -7.0914    1.0218 H   0  0  0  0  0  0  0  0  0  0  0  0
    4.6135   -7.4824   -0.3288 H   0  0  0  0  0  0  0  0  0  0  0  0
    3.2117   -5.9963    2.9098 H   0  0  0  0  0  0  0  0  0  0  0  0
    4.8956   -5.5557    2.7126 H   0  0  0  0  0  0  0  0  0  0  0  0
    2.2464   -1.4509    0.7768 H   0  0  0  0  0  0  0  0  0  0  0  0
    2.5919   -1.4823    2.4588 H   0  0  0  0  0  0  0  0  0  0  0  0
    3.9578    0.1735    1.0982 H   0  0  0  0  0  0  0  0  0  0  0  0
    4.8724   -0.8247    2.1974 H   0  0  0  0  0  0  0  0  0  0  0  0
    5.9227   -0.5120   -0.0863 H   0  0  0  0  0  0  0  0  0  0  0  0
    5.7825   -2.1674    0.4258 H   0  0  0  0  0  0  0  0  0  0  0  0
    5.2793   -0.0102   -2.2862 H   0  0  0  0  0  0  0  0  0  0  0  0
    4.0323   -0.5206   -4.3539 H   0  0  0  0  0  0  0  0  0  0  0  0
    2.4559   -2.4503   -4.4112 H   0  0  0  0  0  0  0  0  0  0  0  0
    2.1600   -3.8616   -2.4360 H   0  0  0  0  0  0  0  0  0  0  0  0
    2.3156   -4.1060   -0.1314 H   0  0  0  0  0  0  0  0  0  0  0  0
    5.3174   -4.6037    0.1301 H   0  0  0  0  0  0  0  0  0  0  0  0
    4.3035   -5.3346   -1.0937 H   0  0  0  0  0  0  0  0  0  0  0  0
    2.9049   -6.1318    0.6776 H   0  0  0  0  0  0  0  0  0  0  0  0
  1  2  1  0
  1 19  1  0
  1 20  1  0
  1 21  1  0
  2  3  1  0
  2 22  1  0
  2 23  1  0
  3 18  1  0
  3  4  1  0
  3 39  1  6
  4  5  1  0
  4 24  1  0
  4 25  1  0
  5  6  2  0
  5  7  1  0
  7 17  1  0
  7  8  1  0
  8  9  1  0
  8 26  1  0
  8 27  1  0
  9 10  1  0
  9 28  1  0
  9 29  1  0
 10 11  1  0
 10 30  1  0
 10 31  1  0
 11 16  2  0
 11 12  1  0
 12 13  2  0
 12 32  1  0
 13 14  1  0
 13 33  1  0
 14 15  2  0
 14 34  1  0
 15 16  1  0
 15 35  1  0
 16 17  1  0
 17 18  1  0
 17 36  1  6
 18 37  1  0
 18 38  1  0
M  CHG  1   3   1
M  END
>  <i_m_ct_stereo_status>  (39) 
1

>  <s_m_source_file>  (39) 
/var/tmp/pbs.5076255.sched01/tmp9s019jnz/08u7fdliu.sdf

>  <i_m_source_file_index>  (39) 
15

>  <i_lp_mmshare_version>  (39) 
48012

>  <i_f3d_flags>  (39) 
0

>  <s_epik_input>  (39) 
Tz1DMVtDSDJdTihbQ0gyXVtDSDNdKVtDSDJdW0NAQEhdKE4xMiljM2MoW0NIMl1bQ0gyXVtDSDJdMilbY0hdW2NIXVtjSF1bY0hdMw==

>  <s_epik_cmdline>  (39) 
J2VwaWtfcHl0aG9uJywgJy1waHQnLCAnMi4wJywgJy1waCcsICc3LjAnLCAnLXRuJywgJzgnLCAnLW1hJywgJzIwMCcsICctaW1hZScsICc8aW5maWxlLm1hZT4nLCAnLW9tYWUnLCAnPG91dGZpbGUubWFlPic=

>  <r_epik_Ionization_Penalty>  (39) 
0.382524

>  <r_epik_Ionization_Penalty_Charging>  (39) 
0.382524

>  <r_epik_Ionization_Penalty_Neutral>  (39) 
9.86687e-15

>  <r_epik_State_Penalty>  (39) 
0.380685

>  <r_epik_Charging_Adjusted_Penalty>  (39) 
0.763209

>  <i_epik_Tot_Q>  (39) 
1

>  <i_epik_Tot_abs_Q>  (39) 
1

>  <s_lp_Force_Field>  (39) 
OPLS3e

>  <r_lp_Energy>  (39) 
43.1328

>  <b_lp_Chiralities_Consistent>  (39) 
1

>  <s_lp_Variant>  (39) 
8:0-1

>  <s_i_glide_gridfile>  (39) 
pfpi4k_grid

>  <i_i_glide_lignum>  (39) 
15

>  <i_i_glide_rotatable_bonds>  (39) 
1

>  <r_i_docking_score>  (39) 
-3.97803

>  <r_i_glide_ligand_efficiency>  (39) 
-0.221002

>  <r_i_glide_ligand_efficiency_sa>  (39) 
-0.579188

>  <r_i_glide_ligand_efficiency_ln>  (39) 
-1.02253

>  <r_i_glide_gscore>  (39) 
-3.97803

>  <r_i_glide_lipo>  (39) 
-0.598455

>  <r_i_glide_hbond>  (39) 
0

>  <r_i_glide_metal>  (39) 
-0

>  <r_i_glide_rewards>  (39) 
-1.73699

>  <r_i_glide_evdw>  (39) 
-24.0322

>  <r_i_glide_ecoul>  (39) 
-2.92724

>  <r_i_glide_erotb>  (39) 
0

>  <r_i_glide_esite>  (39) 
-0.00188899

>  <r_i_glide_emodel>  (39) 
-33.2129

>  <r_i_glide_energy>  (39) 
-26.9594

>  <r_i_glide_einternal>  (39) 
0.00545545

>  <r_i_glide_intrahb_reward>  (39) 
-0

>  <i_i_glide_confnum>  (39) 
2

>  <i_i_glide_posenum>  (39) 
8

>  <r_i_glide_eff_state_penalty>  (39) 
0

>  <ligand_id>  (39) 
8

>  <original_smiles>  (39) 
CCN1CC(=O)N2CCCc3ccccc3C2C1

>  <smiles>  (39) 
[H]c1c([H])c([H])c2c(c1[H])C([H])([H])C([H])([H])C([H])([H])N1C(=O)C([H])([H])[N+]([H])(C([H])([H])C([H])([H])[H])C([H])([H])C21[H]

$$$$
8:1:0
     RDKit          3D

 38 40  0  0  1  0  0  0  0  0999 V2000
   -3.1061    3.0174    2.4462 C   0  0  0  0  0  0  0  0  0  0  0  0
   -2.0145    3.7591    3.2491 C   0  0  0  0  0  0  0  0  0  0  0  0
   -1.1643    2.8902    4.0709 N   0  0  0  0  0  0  0  0  0  0  0  0
   -1.9488    1.9588    4.8973 C   0  0  0  0  0  0  0  0  0  0  0  0
   -1.1082    1.0403    5.7729 C   0  0  0  0  0  0  0  0  0  0  0  0
   -1.6366    0.5425    6.7719 O   0  0  0  0  0  0  0  0  0  0  0  0
    0.1571    0.7633    5.3708 N   0  0  0  0  0  0  0  0  0  0  0  0
    0.9951   -0.1479    6.1446 C   0  0  0  0  0  0  0  0  0  0  0  0
    0.7644   -1.6037    5.7111 C   0  0  0  0  0  0  0  0  0  0  0  0
    0.4529   -1.7668    4.2103 C   0  0  0  0  0  0  0  0  0  0  0  0
    1.4343   -1.0600    3.2853 C   0  0  0  0  0  0  0  0  0  0  0  0
    2.1941   -1.8571    2.4040 C   0  0  0  0  0  0  0  0  0  0  0  0
    3.1202   -1.2760    1.5239 C   0  0  0  0  0  0  0  0  0  0  0  0
    3.2937    0.1172    1.5199 C   0  0  0  0  0  0  0  0  0  0  0  0
    2.5335    0.9217    2.3837 C   0  0  0  0  0  0  0  0  0  0  0  0
    1.5961    0.3575    3.2796 C   0  0  0  0  0  0  0  0  0  0  0  0
    0.7880    1.3319    4.1577 C   0  0  1  0  0  0  0  0  0  0  0  0
   -0.1769    2.1659    3.2744 C   0  0  0  0  0  0  0  0  0  0  0  0
   -3.6160    3.6897    1.7549 H   0  0  0  0  0  0  0  0  0  0  0  0
   -3.8727    2.5982    3.0955 H   0  0  0  0  0  0  0  0  0  0  0  0
   -2.6985    2.1941    1.8604 H   0  0  0  0  0  0  0  0  0  0  0  0
   -1.3896    4.3543    2.5771 H   0  0  0  0  0  0  0  0  0  0  0  0
   -2.4999    4.4769    3.9108 H   0  0  0  0  0  0  0  0  0  0  0  0
   -2.6538    2.5062    5.5221 H   0  0  0  0  0  0  0  0  0  0  0  0
   -2.5120    1.2724    4.2644 H   0  0  0  0  0  0  0  0  0  0  0  0
    2.0413    0.1276    6.0168 H   0  0  0  0  0  0  0  0  0  0  0  0
    0.8057   -0.0384    7.2137 H   0  0  0  0  0  0  0  0  0  0  0  0
    1.6485   -2.1864    5.9736 H   0  0  0  0  0  0  0  0  0  0  0  0
   -0.0673   -2.0171    6.2848 H   0  0  0  0  0  0  0  0  0  0  0  0
    0.4205   -2.8316    3.9776 H   0  0  0  0  0  0  0  0  0  0  0  0
   -0.5512   -1.4046    3.9892 H   0  0  0  0  0  0  0  0  0  0  0  0
    2.0639   -2.9293    2.3889 H   0  0  0  0  0  0  0  0  0  0  0  0
    3.6877   -1.8960    0.8449 H   0  0  0  0  0  0  0  0  0  0  0  0
    4.0066    0.5695    0.8398 H   0  0  0  0  0  0  0  0  0  0  0  0
    2.6721    1.9930    2.3483 H   0  0  0  0  0  0  0  0  0  0  0  0
    1.5134    2.0375    4.5661 H   0  0  0  0  0  0  0  0  0  0  0  0
   -0.6779    1.5083    2.5647 H   0  0  0  0  0  0  0  0  0  0  0  0
    0.3978    2.8810    2.6791 H   0  0  0  0  0  0  0  0  0  0  0  0
  1  2  1  0
  1 19  1  0
  1 20  1  0
  1 21  1  0
  2  3  1  0
  2 22  1  0
  2 23  1  0
  3 18  1  0
  3  4  1  0
  4  5  1  0
  4 24  1  0
  4 25  1  0
  5  6  2  0
  5  7  1  0
  7 17  1  0
  7  8  1  0
  8  9  1  0
  8 26  1  0
  8 27  1  0
  9 10  1  0
  9 28  1  0
  9 29  1  0
 10 11  1  0
 10 30  1  0
 10 31  1  0
 11 16  2  0
 11 12  1  0
 12 13  2  0
 12 32  1  0
 13 14  1  0
 13 33  1  0
 14 15  2  0
 14 34  1  0
 15 16  1  0
 15 35  1  0
 16 17  1  0
 17 18  1  0
 17 36  1  1
 18 37  1  0
 18 38  1  0
M  END
>  <i_m_ct_stereo_status>  (40) 
1

>  <s_m_source_file>  (40) 
/var/tmp/pbs.5076255.sched01/tmp9s019jnz/08u7fdliu.sdf

>  <i_m_source_file_index>  (40) 
16

>  <i_lp_mmshare_version>  (40) 
48012

>  <i_f3d_flags>  (40) 
0

>  <s_epik_input>  (40) 
Tz1DMVtDSDJdTihbQ0gyXVtDSDNdKVtDSDJdW0NAQEhdKE4xMiljM2MoW0NIMl1bQ0gyXVtDSDJdMilbY0hdW2NIXVtjSF1bY0hdMw==

>  <s_epik_cmdline>  (40) 
J2VwaWtfcHl0aG9uJywgJy1waHQnLCAnMi4wJywgJy1waCcsICc3LjAnLCAnLXRuJywgJzgnLCAnLW1hJywgJzIwMCcsICctaW1hZScsICc8aW5maWxlLm1hZT4nLCAnLW9tYWUnLCAnPG91dGZpbGUubWFlPic=

>  <r_epik_Ionization_Penalty>  (40) 
0.440241

>  <r_epik_Ionization_Penalty_Charging>  (40) 
0

>  <r_epik_Ionization_Penalty_Neutral>  (40) 
0.440241

>  <r_epik_State_Penalty>  (40) 
0.442274

>  <r_epik_Charging_Adjusted_Penalty>  (40) 
0.442274

>  <i_epik_Tot_Q>  (40) 
0

>  <i_epik_Tot_abs_Q>  (40) 
0

>  <s_lp_Force_Field>  (40) 
OPLS3e

>  <r_lp_Energy>  (40) 
36.0498

>  <b_lp_Chiralities_Consistent>  (40) 
1

>  <s_lp_Variant>  (40) 
8:0-2

>  <s_i_glide_gridfile>  (40) 
pfpi4k_grid

>  <i_i_glide_lignum>  (40) 
16

>  <i_i_glide_rotatable_bonds>  (40) 
1

>  <r_i_docking_score>  (40) 
-3.53881

>  <r_i_glide_ligand_efficiency>  (40) 
-0.196601

>  <r_i_glide_ligand_efficiency_sa>  (40) 
-0.515239

>  <r_i_glide_ligand_efficiency_ln>  (40) 
-0.909633

>  <r_i_glide_gscore>  (40) 
-3.53881

>  <r_i_glide_lipo>  (40) 
-0.0656827

>  <r_i_glide_hbond>  (40) 
-0.16

>  <r_i_glide_metal>  (40) 
-0

>  <r_i_glide_rewards>  (40) 
-1.74319

>  <r_i_glide_evdw>  (40) 
-18.0256

>  <r_i_glide_ecoul>  (40) 
-4.22418

>  <r_i_glide_erotb>  (40) 
0

>  <r_i_glide_esite>  (40) 
-0.035032

>  <r_i_glide_emodel>  (40) 
-25.6708

>  <r_i_glide_energy>  (40) 
-22.2498

>  <r_i_glide_einternal>  (40) 
3.00609

>  <r_i_glide_intrahb_reward>  (40) 
-0

>  <i_i_glide_confnum>  (40) 
1

>  <i_i_glide_posenum>  (40) 
20

>  <r_i_glide_eff_state_penalty>  (40) 
0

>  <ligand_id>  (40) 
8

>  <original_smiles>  (40) 
CCN1CC(=O)N2CCCc3ccccc3C2C1

>  <smiles>  (40) 
[H]c1c([H])c([H])c2c(c1[H])C([H])([H])C([H])([H])C([H])([H])N1C(=O)C([H])([H])N(C([H])([H])C([H])([H])[H])C([H])([H])C21[H]

$$$$
8:1:1
     RDKit          3D

 38 40  0  0  1  0  0  0  0  0999 V2000
   -0.4713    5.4062    3.4359 C   0  0  0  0  0  0  0  0  0  0  0  0
   -1.4037    4.1850    3.4890 C   0  0  0  0  0  0  0  0  0  0  0  0
   -0.8441    3.1242    4.3312 N   0  0  0  0  0  0  0  0  0  0  0  0
   -1.9119    2.2106    4.7770 C   0  0  0  0  0  0  0  0  0  0  0  0
   -1.4100    1.0594    5.6482 C   0  0  0  0  0  0  0  0  0  0  0  0
   -2.1854    0.5424    6.4590 O   0  0  0  0  0  0  0  0  0  0  0  0
   -0.1364    0.6404    5.4786 N   0  0  0  0  0  0  0  0  0  0  0  0
    0.3928   -0.4686    6.2710 C   0  0  0  0  0  0  0  0  0  0  0  0
    0.0749   -1.8076    5.5930 C   0  0  0  0  0  0  0  0  0  0  0  0
    0.0801   -1.7371    4.0567 C   0  0  0  0  0  0  0  0  0  0  0  0
    1.3175   -1.0894    3.4558 C   0  0  0  0  0  0  0  0  0  0  0  0
    2.1338   -1.8892    2.6234 C   0  0  0  0  0  0  0  0  0  0  0  0
    3.2910   -1.3602    2.0327 C   0  0  0  0  0  0  0  0  0  0  0  0
    3.6410   -0.0198    2.2690 C   0  0  0  0  0  0  0  0  0  0  0  0
    2.8277    0.7894    3.0817 C   0  0  0  0  0  0  0  0  0  0  0  0
    1.6547    0.2781    3.6853 C   0  0  0  0  0  0  0  0  0  0  0  0
    0.8097    1.2567    4.5238 C   0  0  1  0  0  0  0  0  0  0  0  0
    0.1742    2.3497    3.6172 C   0  0  0  0  0  0  0  0  0  0  0  0
   -0.9524    6.2365    2.9160 H   0  0  0  0  0  0  0  0  0  0  0  0
    0.4461    5.1967    2.8882 H   0  0  0  0  0  0  0  0  0  0  0  0
   -0.1956    5.7421    4.4354 H   0  0  0  0  0  0  0  0  0  0  0  0
   -2.3508    4.5218    3.9128 H   0  0  0  0  0  0  0  0  0  0  0  0
   -1.6361    3.8248    2.4843 H   0  0  0  0  0  0  0  0  0  0  0  0
   -2.6642    2.7581    5.3453 H   0  0  0  0  0  0  0  0  0  0  0  0
   -2.4101    1.7771    3.9085 H   0  0  0  0  0  0  0  0  0  0  0  0
    1.4694   -0.3522    6.3835 H   0  0  0  0  0  0  0  0  0  0  0  0
   -0.0019   -0.4542    7.2882 H   0  0  0  0  0  0  0  0  0  0  0  0
    0.7987   -2.5503    5.9306 H   0  0  0  0  0  0  0  0  0  0  0  0
   -0.9095   -2.1497    5.9178 H   0  0  0  0  0  0  0  0  0  0  0  0
   -0.0407   -2.7486    3.6719 H   0  0  0  0  0  0  0  0  0  0  0  0
   -0.7913   -1.1881    3.6996 H   0  0  0  0  0  0  0  0  0  0  0  0
    1.8678   -2.9166    2.4216 H   0  0  0  0  0  0  0  0  0  0  0  0
    3.9091   -1.9762    1.3953 H   0  0  0  0  0  0  0  0  0  0  0  0
    4.5355    0.3894    1.8170 H   0  0  0  0  0  0  0  0  0  0  0  0
    3.1107    1.8210    3.2369 H   0  0  0  0  0  0  0  0  0  0  0  0
    1.5120    1.7816    5.1735 H   0  0  0  0  0  0  0  0  0  0  0  0
   -0.2738    1.8893    2.7358 H   0  0  0  0  0  0  0  0  0  0  0  0
    0.9565    3.0127    3.2392 H   0  0  0  0  0  0  0  0  0  0  0  0
  1  2  1  0
  1 19  1  0
  1 20  1  0
  1 21  1  0
  2  3  1  0
  2 22  1  0
  2 23  1  0
  3 18  1  0
  3  4  1  0
  4  5  1  0
  4 24  1  0
  4 25  1  0
  5  6  2  0
  5  7  1  0
  7 17  1  0
  7  8  1  0
  8  9  1  0
  8 26  1  0
  8 27  1  0
  9 10  1  0
  9 28  1  0
  9 29  1  0
 10 11  1  0
 10 30  1  0
 10 31  1  0
 11 16  2  0
 11 12  1  0
 12 13  2  0
 12 32  1  0
 13 14  1  0
 13 33  1  0
 14 15  2  0
 14 34  1  0
 15 16  1  0
 15 35  1  0
 16 17  1  0
 17 18  1  0
 17 36  1  1
 18 37  1  0
 18 38  1  0
M  END
>  <i_m_ct_stereo_status>  (41) 
1

>  <s_m_source_file>  (41) 
/var/tmp/pbs.5076255.sched01/tmp9s019jnz/08u7fdliu.sdf

>  <i_m_source_file_index>  (41) 
16

>  <i_lp_mmshare_version>  (41) 
48012

>  <i_f3d_flags>  (41) 
0

>  <s_epik_input>  (41) 
Tz1DMVtDSDJdTihbQ0gyXVtDSDNdKVtDSDJdW0NAQEhdKE4xMiljM2MoW0NIMl1bQ0gyXVtDSDJdMilbY0hdW2NIXVtjSF1bY0hdMw==

>  <s_epik_cmdline>  (41) 
J2VwaWtfcHl0aG9uJywgJy1waHQnLCAnMi4wJywgJy1waCcsICc3LjAnLCAnLXRuJywgJzgnLCAnLW1hJywgJzIwMCcsICctaW1hZScsICc8aW5maWxlLm1hZT4nLCAnLW9tYWUnLCAnPG91dGZpbGUubWFlPic=

>  <r_epik_Ionization_Penalty>  (41) 
0.440241

>  <r_epik_Ionization_Penalty_Charging>  (41) 
0

>  <r_epik_Ionization_Penalty_Neutral>  (41) 
0.440241

>  <r_epik_State_Penalty>  (41) 
0.442274

>  <r_epik_Charging_Adjusted_Penalty>  (41) 
0.442274

>  <i_epik_Tot_Q>  (41) 
0

>  <i_epik_Tot_abs_Q>  (41) 
0

>  <s_lp_Force_Field>  (41) 
OPLS3e

>  <r_lp_Energy>  (41) 
36.0498

>  <b_lp_Chiralities_Consistent>  (41) 
1

>  <s_lp_Variant>  (41) 
8:0-2

>  <s_i_glide_gridfile>  (41) 
pfpi4k_grid

>  <i_i_glide_lignum>  (41) 
16

>  <i_i_glide_rotatable_bonds>  (41) 
1

>  <r_i_docking_score>  (41) 
-3.52335

>  <r_i_glide_ligand_efficiency>  (41) 
-0.195742

>  <r_i_glide_ligand_efficiency_sa>  (41) 
-0.512988

>  <r_i_glide_ligand_efficiency_ln>  (41) 
-0.905659

>  <r_i_glide_gscore>  (41) 
-3.52335

>  <r_i_glide_lipo>  (41) 
-0.0236367

>  <r_i_glide_hbond>  (41) 
-0.16

>  <r_i_glide_metal>  (41) 
-0

>  <r_i_glide_rewards>  (41) 
-1.74319

>  <r_i_glide_evdw>  (41) 
-17.3626

>  <r_i_glide_ecoul>  (41) 
-4.55873

>  <r_i_glide_erotb>  (41) 
0

>  <r_i_glide_esite>  (41) 
-0.0445847

>  <r_i_glide_emodel>  (41) 
-26.8772

>  <r_i_glide_energy>  (41) 
-21.9213

>  <r_i_glide_einternal>  (41) 
0.357235

>  <r_i_glide_intrahb_reward>  (41) 
-0

>  <i_i_glide_confnum>  (41) 
1

>  <i_i_glide_posenum>  (41) 
1

>  <r_i_glide_eff_state_penalty>  (41) 
0

>  <ligand_id>  (41) 
8

>  <original_smiles>  (41) 
CCN1CC(=O)N2CCCc3ccccc3C2C1

>  <smiles>  (41) 
[H]c1c([H])c([H])c2c(c1[H])C([H])([H])C([H])([H])C([H])([H])N1C(=O)C([H])([H])N(C([H])([H])C([H])([H])[H])C([H])([H])C21[H]

$$$$
8:1:2
     RDKit          3D

 38 40  0  0  1  0  0  0  0  0999 V2000
    1.3717    1.2027    2.5667 C   0  0  0  0  0  0  0  0  0  0  0  0
    2.8876    1.0673    2.8356 C   0  0  0  0  0  0  0  0  0  0  0  0
    3.4923   -0.1879    2.3753 N   0  0  0  0  0  0  0  0  0  0  0  0
    2.8927   -1.3660    3.0248 C   0  0  0  0  0  0  0  0  0  0  0  0
    3.5005   -2.6942    2.5839 C   0  0  0  0  0  0  0  0  0  0  0  0
    3.3909   -3.6687    3.3347 O   0  0  0  0  0  0  0  0  0  0  0  0
    4.0845   -2.7571    1.3623 N   0  0  0  0  0  0  0  0  0  0  0  0
    4.6331   -4.0165    0.8697 C   0  0  0  0  0  0  0  0  0  0  0  0
    3.5489   -4.8532    0.1756 C   0  0  0  0  0  0  0  0  0  0  0  0
    2.4924   -4.0076   -0.5661 C   0  0  0  0  0  0  0  0  0  0  0  0
    3.0752   -2.9606   -1.5037 C   0  0  0  0  0  0  0  0  0  0  0  0
    2.7674   -3.0653   -2.8763 C   0  0  0  0  0  0  0  0  0  0  0  0
    3.2662   -2.1420   -3.8013 C   0  0  0  0  0  0  0  0  0  0  0  0
    4.0692   -1.0812   -3.3587 C   0  0  0  0  0  0  0  0  0  0  0  0
    4.3675   -0.9583   -1.9923 C   0  0  0  0  0  0  0  0  0  0  0  0
    3.8805   -1.8806   -1.0405 C   0  0  0  0  0  0  0  0  0  0  0  0
    4.2137   -1.6094    0.4410 C   0  0  1  0  0  0  0  0  0  0  0  0
    3.4752   -0.3355    0.9225 C   0  0  0  0  0  0  0  0  0  0  0  0
    1.0252    2.2041    2.8317 H   0  0  0  0  0  0  0  0  0  0  0  0
    0.7884    0.4967    3.1607 H   0  0  0  0  0  0  0  0  0  0  0  0
    1.1131    1.0548    1.5165 H   0  0  0  0  0  0  0  0  0  0  0  0
    3.4087    1.9053    2.3697 H   0  0  0  0  0  0  0  0  0  0  0  0
    3.0751    1.1691    3.9061 H   0  0  0  0  0  0  0  0  0  0  0  0
    2.9679   -1.2811    4.1098 H   0  0  0  0  0  0  0  0  0  0  0  0
    1.8366   -1.4427    2.7684 H   0  0  0  0  0  0  0  0  0  0  0  0
    5.4483   -3.8055    0.1800 H   0  0  0  0  0  0  0  0  0  0  0  0
    5.0883   -4.5853    1.6823 H   0  0  0  0  0  0  0  0  0  0  0  0
    4.0391   -5.5395   -0.5168 H   0  0  0  0  0  0  0  0  0  0  0  0
    3.0414   -5.4650    0.9229 H   0  0  0  0  0  0  0  0  0  0  0  0
    1.8232   -4.6722   -1.1156 H   0  0  0  0  0  0  0  0  0  0  0  0
    1.8433   -3.4955    0.1453 H   0  0  0  0  0  0  0  0  0  0  0  0
    2.1428   -3.8698   -3.2342 H   0  0  0  0  0  0  0  0  0  0  0  0
    3.0148   -2.2440   -4.8422 H   0  0  0  0  0  0  0  0  0  0  0  0
    4.4442   -0.3568   -4.0719 H   0  0  0  0  0  0  0  0  0  0  0  0
    4.9563   -0.1203   -1.6638 H   0  0  0  0  0  0  0  0  0  0  0  0
    5.2795   -1.3774    0.4742 H   0  0  0  0  0  0  0  0  0  0  0  0
    2.4486   -0.3821    0.5670 H   0  0  0  0  0  0  0  0  0  0  0  0
    3.9286    0.5501    0.4748 H   0  0  0  0  0  0  0  0  0  0  0  0
  1  2  1  0
  1 19  1  0
  1 20  1  0
  1 21  1  0
  2  3  1  0
  2 22  1  0
  2 23  1  0
  3 18  1  0
  3  4  1  0
  4  5  1  0
  4 24  1  0
  4 25  1  0
  5  6  2  0
  5  7  1  0
  7 17  1  0
  7  8  1  0
  8  9  1  0
  8 26  1  0
  8 27  1  0
  9 10  1  0
  9 28  1  0
  9 29  1  0
 10 11  1  0
 10 30  1  0
 10 31  1  0
 11 16  2  0
 11 12  1  0
 12 13  2  0
 12 32  1  0
 13 14  1  0
 13 33  1  0
 14 15  2  0
 14 34  1  0
 15 16  1  0
 15 35  1  0
 16 17  1  0
 17 18  1  0
 17 36  1  6
 18 37  1  0
 18 38  1  0
M  END
>  <i_m_ct_stereo_status>  (42) 
1

>  <s_m_source_file>  (42) 
/var/tmp/pbs.5076255.sched01/tmp9s019jnz/08u7fdliu.sdf

>  <i_m_source_file_index>  (42) 
16

>  <i_lp_mmshare_version>  (42) 
48012

>  <i_f3d_flags>  (42) 
0

>  <s_epik_input>  (42) 
Tz1DMVtDSDJdTihbQ0gyXVtDSDNdKVtDSDJdW0NAQEhdKE4xMiljM2MoW0NIMl1bQ0gyXVtDSDJdMilbY0hdW2NIXVtjSF1bY0hdMw==

>  <s_epik_cmdline>  (42) 
J2VwaWtfcHl0aG9uJywgJy1waHQnLCAnMi4wJywgJy1waCcsICc3LjAnLCAnLXRuJywgJzgnLCAnLW1hJywgJzIwMCcsICctaW1hZScsICc8aW5maWxlLm1hZT4nLCAnLW9tYWUnLCAnPG91dGZpbGUubWFlPic=

>  <r_epik_Ionization_Penalty>  (42) 
0.440241

>  <r_epik_Ionization_Penalty_Charging>  (42) 
0

>  <r_epik_Ionization_Penalty_Neutral>  (42) 
0.440241

>  <r_epik_State_Penalty>  (42) 
0.442274

>  <r_epik_Charging_Adjusted_Penalty>  (42) 
0.442274

>  <i_epik_Tot_Q>  (42) 
0

>  <i_epik_Tot_abs_Q>  (42) 
0

>  <s_lp_Force_Field>  (42) 
OPLS3e

>  <r_lp_Energy>  (42) 
36.0498

>  <b_lp_Chiralities_Consistent>  (42) 
1

>  <s_lp_Variant>  (42) 
8:0-2

>  <s_i_glide_gridfile>  (42) 
pfpi4k_grid

>  <i_i_glide_lignum>  (42) 
16

>  <i_i_glide_rotatable_bonds>  (42) 
1

>  <r_i_docking_score>  (42) 
-3.37614

>  <r_i_glide_ligand_efficiency>  (42) 
-0.187563

>  <r_i_glide_ligand_efficiency_sa>  (42) 
-0.491555

>  <r_i_glide_ligand_efficiency_ln>  (42) 
-0.867819

>  <r_i_glide_gscore>  (42) 
-3.37614

>  <r_i_glide_lipo>  (42) 
-0.386249

>  <r_i_glide_hbond>  (42) 
0

>  <r_i_glide_metal>  (42) 
-0

>  <r_i_glide_rewards>  (42) 
-1.74662

>  <r_i_glide_evdw>  (42) 
-20.9475

>  <r_i_glide_ecoul>  (42) 
-1.306

>  <r_i_glide_erotb>  (42) 
0

>  <r_i_glide_esite>  (42) 
0

>  <r_i_glide_emodel>  (42) 
-25.8597

>  <r_i_glide_energy>  (42) 
-22.2535

>  <r_i_glide_einternal>  (42) 
2.36266

>  <r_i_glide_intrahb_reward>  (42) 
-0

>  <i_i_glide_confnum>  (42) 
1

>  <i_i_glide_posenum>  (42) 
25

>  <r_i_glide_eff_state_penalty>  (42) 
0

>  <ligand_id>  (42) 
8

>  <original_smiles>  (42) 
CCN1CC(=O)N2CCCc3ccccc3C2C1

>  <smiles>  (42) 
[H]c1c([H])c([H])c2c(c1[H])C([H])([H])C([H])([H])C([H])([H])N1C(=O)C([H])([H])N(C([H])([H])C([H])([H])[H])C([H])([H])C21[H]

$$$$
10:0:0
     RDKit          3D

 67 74  0  0  1  0  0  0  0  0999 V2000
    5.1056   -3.8851   -2.4997 C   0  0  0  0  0  0  0  0  0  0  0  0
    4.6584   -3.8539   -1.2270 C   0  0  0  0  0  0  0  0  0  0  0  0
    4.9557   -4.9502   -0.3268 C   0  0  0  0  0  0  0  0  0  0  0  0
    4.4340   -5.0192    0.9271 C   0  0  0  0  0  0  0  0  0  0  0  0
    4.8062   -6.1674    1.8106 C   0  0  0  0  0  0  0  0  0  0  0  0
    5.4088   -7.1559    1.3907 O   0  0  0  0  0  0  0  0  0  0  0  0
    4.4209   -6.1008    3.3223 C   0  0  1  0  0  0  0  0  0  0  0  0
    5.5302   -6.7020    4.2046 C   0  0  0  0  0  0  0  0  0  0  0  0
    4.2085   -4.6098    3.6342 C   0  0  0  0  0  0  0  0  0  0  0  0
    4.8887   -3.9251    4.3933 O   0  0  0  0  0  0  0  0  0  0  0  0
    2.9500   -4.1668    2.8855 C   0  0  1  0  0  0  0  0  0  0  0  0
    2.2870   -2.9154    3.5036 C   0  0  0  0  0  0  0  0  0  0  0  0
    3.5440   -3.9744    1.4489 C   0  0  0  0  0  0  0  0  0  0  0  0
    3.2735   -2.9079    0.6674 C   0  0  0  0  0  0  0  0  0  0  0  0
    3.8061   -2.6857   -0.7577 C   0  0  0  0  0  0  0  0  0  0  0  0
    2.7573   -2.5665   -1.6304 O   0  0  0  0  0  0  0  0  0  0  0  0
    3.0643   -1.5006   -2.5271 C   0  0  0  0  0  0  0  0  0  0  0  0
    4.4515   -0.9658   -2.1057 C   0  0  0  0  0  0  0  0  0  0  0  0
    4.5142   -1.4813   -0.7848 O   0  0  0  0  0  0  0  0  0  0  0  0
    2.0541   -5.4565    2.9899 C   0  0  2  0  0  0  0  0  0  0  0  0
    1.4498   -5.5614    1.7072 O   0  0  0  0  0  0  0  0  0  0  0  0
    1.1041   -5.9592    4.1354 C   0  0  2  0  0  0  0  0  0  0  0  0
    2.3516   -6.1666    4.9472 C   0  0  0  0  0  0  0  0  0  0  0  0
    2.9664   -6.5934    3.5713 C   0  0  2  0  0  0  0  0  0  0  0  0
    2.5824   -8.0953    3.2126 C   0  0  1  0  0  0  0  0  0  0  0  0
    2.6960   -9.0703    4.4527 C   0  0  1  0  0  0  0  0  0  0  0  0
    3.7995   -8.8763    5.3105 O   0  0  0  0  0  0  0  0  0  0  0  0
    1.3722   -9.1523    5.2903 C   0  0  0  0  0  0  0  0  0  0  0  0
    0.1805   -8.6195    4.4682 C   0  0  2  0  0  0  0  0  0  0  0  0
    0.1038   -9.3098    3.0779 C   0  0  0  0  0  0  0  0  0  0  0  0
    0.6882  -10.7268    2.8461 C   0  0  0  0  0  0  0  0  0  0  0  0
   -1.2994   -9.3638    2.4081 C   0  0  0  0  0  0  0  0  0  0  0  0
    1.0701   -8.1333    2.7533 C   0  0  1  0  0  0  0  0  0  0  0  0
    0.2578   -7.2178    3.7051 C   0  0  2  0  0  0  0  0  0  0  0  0
   -0.9770   -6.7159    3.2234 O   0  0  0  0  0  0  0  0  0  0  0  0
    4.8685   -3.1833   -3.2704 H   0  0  0  0  0  0  0  0  0  0  0  0
    5.8072   -4.6190   -2.7827 H   0  0  0  0  0  0  0  0  0  0  0  0
    5.5811   -5.7516   -0.6736 H   0  0  0  0  0  0  0  0  0  0  0  0
    6.4803   -6.1844    4.0469 H   0  0  0  0  0  0  0  0  0  0  0  0
    5.6986   -7.7564    3.9705 H   0  0  0  0  0  0  0  0  0  0  0  0
    5.2862   -6.6151    5.2649 H   0  0  0  0  0  0  0  0  0  0  0  0
    2.9457   -2.0399    3.4800 H   0  0  0  0  0  0  0  0  0  0  0  0
    2.0143   -3.0802    4.5517 H   0  0  0  0  0  0  0  0  0  0  0  0
    1.3657   -2.6576    2.9741 H   0  0  0  0  0  0  0  0  0  0  0  0
    2.6374   -2.1108    1.0345 H   0  0  0  0  0  0  0  0  0  0  0  0
    3.0217   -1.8977   -3.5490 H   0  0  0  0  0  0  0  0  0  0  0  0
    2.3025   -0.7221   -2.4405 H   0  0  0  0  0  0  0  0  0  0  0  0
    5.2593   -1.4156   -2.6874 H   0  0  0  0  0  0  0  0  0  0  0  0
    4.5102    0.1350   -2.1623 H   0  0  0  0  0  0  0  0  0  0  0  0
    2.1587   -5.7620    1.1204 H   0  0  0  0  0  0  0  0  0  0  0  0
    0.4708   -5.1763    4.5632 H   0  0  0  0  0  0  0  0  0  0  0  0
    2.6635   -5.2428    5.4234 H   0  0  0  0  0  0  0  0  0  0  0  0
    2.2772   -6.8969    5.7262 H   0  0  0  0  0  0  0  0  0  0  0  0
    3.2214   -8.4715    2.4109 H   0  0  0  0  0  0  0  0  0  0  0  0
    2.8898  -10.0670    4.0629 H   0  0  0  0  0  0  0  0  0  0  0  0
    3.7954   -9.5783    5.9416 H   0  0  0  0  0  0  0  0  0  0  0  0
    1.1943  -10.1948    5.5676 H   0  0  0  0  0  0  0  0  0  0  0  0
    1.4243   -8.6606    6.2612 H   0  0  0  0  0  0  0  0  0  0  0  0
   -0.7679   -8.7281    4.9973 H   0  0  0  0  0  0  0  0  0  0  0  0
    0.1621  -11.2959    2.0841 H   0  0  0  0  0  0  0  0  0  0  0  0
    0.6832  -11.3424    3.7409 H   0  0  0  0  0  0  0  0  0  0  0  0
    1.7057  -10.6808    2.4724 H   0  0  0  0  0  0  0  0  0  0  0  0
   -1.2813   -9.1999    1.3295 H   0  0  0  0  0  0  0  0  0  0  0  0
   -2.0623   -8.7235    2.8434 H   0  0  0  0  0  0  0  0  0  0  0  0
   -1.7642  -10.3147    2.5624 H   0  0  0  0  0  0  0  0  0  0  0  0
    0.9303   -7.8985    1.7019 H   0  0  0  0  0  0  0  0  0  0  0  0
   -1.5624   -7.4579    3.1686 H   0  0  0  0  0  0  0  0  0  0  0  0
  1  2  2  0
  1 36  1  0
  1 37  1  0
  2 15  1  0
  2  3  1  0
  3  4  2  0
  3 38  1  0
  4 13  1  0
  4  5  1  0
  5  6  2  0
  5  7  1  0
  7 24  1  0
  7  8  1  1
  7  9  1  0
  8 39  1  0
  8 40  1  0
  8 41  1  0
  9 10  2  0
  9 11  1  0
 11 12  1  1
 11 13  1  0
 11 20  1  0
 12 42  1  0
 12 43  1  0
 12 44  1  0
 13 14  2  0
 14 15  1  0
 14 45  1  0
 15 19  1  0
 15 16  1  0
 16 17  1  0
 17 18  1  0
 17 46  1  0
 17 47  1  0
 18 19  1  0
 18 48  1  0
 18 49  1  0
 20 24  1  0
 20 21  1  6
 20 22  1  0
 21 50  1  0
 22 34  1  0
 22 23  1  0
 22 51  1  1
 24 23  1  1
 23 52  1  0
 23 53  1  0
 24 25  1  0
 25 33  1  0
 25 26  1  0
 25 54  1  6
 26 27  1  0
 26 28  1  0
 26 55  1  6
 27 56  1  0
 28 29  1  0
 28 57  1  0
 28 58  1  0
 29 34  1  0
 29 30  1  0
 29 59  1  1
 30 31  1  0
 30 32  1  0
 30 33  1  0
 31 60  1  0
 31 61  1  0
 31 62  1  0
 32 63  1  0
 32 64  1  0
 32 65  1  0
 33 34  1  0
 33 66  1  6
 34 35  1  6
 35 67  1  0
M  END
>  <i_m_ct_stereo_status>  (43) 
1

>  <s_m_source_file>  (43) 
/var/tmp/pbs.5076255.sched01/tmp9s019jnz/08u7fdliu.sdf

>  <i_m_source_file_index>  (43) 
18

>  <i_lp_mmshare_version>  (43) 
48012

>  <i_f3d_flags>  (43) 
0

>  <s_epik_input>  (43) 
TzFbQ0gyXVtDSDJdT0MxMkMoPVtDSDJdKVtDSF09QzNDKD1bQ0hdMilbQ0BAXTQoW0NIM10pW0NAQF01KFtPSF0pW0NAXTYoW0NAXShDMz1PKShbQ0gzXSlDND1PKVtDQEBIXTdbQ0BASF04W0NAXShbT0hdKShbQ0BIXTVbQ0gyXTYpW0NAQEhdKEM4KFtDSDNdKVtDSDNdKVtDSDJdW0NAQEhdN1tPSF0=

>  <s_epik_cmdline>  (43) 
J2VwaWtfcHl0aG9uJywgJy1waHQnLCAnMi4wJywgJy1waCcsICc3LjAnLCAnLXRuJywgJzgnLCAnLW1hJywgJzIwMCcsICctaW1hZScsICc8aW5maWxlLm1hZT4nLCAnLW9tYWUnLCAnPG91dGZpbGUubWFlPic=

>  <r_lp_tautomer_probability>  (43) 
1

>  <r_epik_Ionization_Penalty>  (43) 
1.01038e-05

>  <r_epik_Ionization_Penalty_Charging>  (43) 
0

>  <r_epik_Ionization_Penalty_Neutral>  (43) 
1.01038e-05

>  <r_epik_State_Penalty>  (43) 
-0

>  <r_epik_Charging_Adjusted_Penalty>  (43) 
0

>  <i_epik_Tot_Q>  (43) 
0

>  <i_epik_Tot_abs_Q>  (43) 
0

>  <s_lp_Force_Field>  (43) 
OPLS3e

>  <r_lp_Energy>  (43) 
130.313

>  <b_lp_Chiralities_Consistent>  (43) 
1

>  <s_lp_Variant>  (43) 
10:0-1

>  <s_i_glide_gridfile>  (43) 
pfpi4k_grid

>  <i_i_glide_lignum>  (43) 
18

>  <i_i_glide_rotatable_bonds>  (43) 
3

>  <r_i_docking_score>  (43) 
-2.59858

>  <r_i_glide_ligand_efficiency>  (43) 
-0.0742452

>  <r_i_glide_ligand_efficiency_sa>  (43) 
-0.242861

>  <r_i_glide_ligand_efficiency_ln>  (43) 
-0.570447

>  <r_i_glide_gscore>  (43) 
-2.59858

>  <r_i_glide_lipo>  (43) 
-0.450924

>  <r_i_glide_hbond>  (43) 
0

>  <r_i_glide_metal>  (43) 
-0

>  <r_i_glide_rewards>  (43) 
-0.187808

>  <r_i_glide_evdw>  (43) 
-23.5279

>  <r_i_glide_ecoul>  (43) 
-5.07795

>  <r_i_glide_erotb>  (43) 
0

>  <r_i_glide_esite>  (43) 
-0.0217614

>  <r_i_glide_emodel>  (43) 
-31.1283

>  <r_i_glide_energy>  (43) 
-28.6059

>  <r_i_glide_einternal>  (43) 
2.07841

>  <r_i_glide_intrahb_reward>  (43) 
-0

>  <i_i_glide_confnum>  (43) 
4

>  <i_i_glide_posenum>  (43) 
35

>  <r_i_glide_eff_state_penalty>  (43) 
0

>  <ligand_id>  (43) 
10

>  <original_smiles>  (43) 
C=C1C=C2C(=O)C3(C)C(=O)C(C)(C2=CC12OCCO2)C1(O)C2CC31C1C(O)CC3C(C)(C)C1C32O

>  <smiles>  (43) 
[H]OC1([H])C([H])([H])C2([H])C3(O[H])C4([H])C([H])([H])C5(C6(C([H])([H])[H])C(=O)C7=C([H])C(=C([H])[H])C8(OC([H])([H])C([H])([H])O8)C([H])=C7C(C([H])([H])[H])(C6=O)C45O[H])C1([H])C3([H])C2(C([H])([H])[H])C([H])([H])[H]

$$$$
10:0:1
     RDKit          3D

 67 74  0  0  1  0  0  0  0  0999 V2000
    0.5883   -5.7553    7.1410 C   0  0  0  0  0  0  0  0  0  0  0  0
    1.2152   -6.1050    5.9974 C   0  0  0  0  0  0  0  0  0  0  0  0
    2.5638   -5.6304    5.7624 C   0  0  0  0  0  0  0  0  0  0  0  0
    3.2407   -5.9431    4.6314 C   0  0  0  0  0  0  0  0  0  0  0  0
    4.6692   -5.5000    4.4640 C   0  0  0  0  0  0  0  0  0  0  0  0
    5.2269   -4.6954    5.2226 O   0  0  0  0  0  0  0  0  0  0  0  0
    5.4787   -6.1127    3.2666 C   0  0  1  0  0  0  0  0  0  0  0  0
    6.9420   -6.3764    3.6610 C   0  0  0  0  0  0  0  0  0  0  0  0
    4.7868   -7.4461    2.8961 C   0  0  0  0  0  0  0  0  0  0  0  0
    5.2599   -8.5868    3.0035 O   0  0  0  0  0  0  0  0  0  0  0  0
    3.4341   -7.0891    2.2903 C   0  0  1  0  0  0  0  0  0  0  0  0
    2.8579   -8.1730    1.3559 C   0  0  0  0  0  0  0  0  0  0  0  0
    2.6417   -6.8028    3.5967 C   0  0  0  0  0  0  0  0  0  0  0  0
    1.4087   -7.3172    3.7886 C   0  0  0  0  0  0  0  0  0  0  0  0
    0.5162   -7.0172    4.9867 C   0  0  0  0  0  0  0  0  0  0  0  0
   -0.6585   -6.4356    4.5179 O   0  0  0  0  0  0  0  0  0  0  0  0
   -1.4417   -7.5069    4.0067 C   0  0  0  0  0  0  0  0  0  0  0  0
   -1.0084   -8.6531    4.9299 C   0  0  0  0  0  0  0  0  0  0  0  0
    0.1626   -8.2051    5.5935 O   0  0  0  0  0  0  0  0  0  0  0  0
    3.7632   -5.7581    1.5130 C   0  0  2  0  0  0  0  0  0  0  0  0
    2.6484   -4.9203    1.7828 O   0  0  0  0  0  0  0  0  0  0  0  0
    4.3639   -5.5162    0.0752 C   0  0  2  0  0  0  0  0  0  0  0  0
    5.6317   -6.1031    0.6228 C   0  0  0  0  0  0  0  0  0  0  0  0
    5.2129   -5.3395    1.9353 C   0  0  2  0  0  0  0  0  0  0  0  0
    5.5970   -3.7992    1.8501 C   0  0  1  0  0  0  0  0  0  0  0  0
    7.0329   -3.5779    1.2409 C   0  0  1  0  0  0  0  0  0  0  0  0
    8.0241   -4.5228    1.6003 O   0  0  0  0  0  0  0  0  0  0  0  0
    7.0198   -3.4056   -0.3002 C   0  0  0  0  0  0  0  0  0  0  0  0
    5.6018   -3.1128   -0.8225 C   0  0  2  0  0  0  0  0  0  0  0  0
    4.9856   -1.9053   -0.0588 C   0  0  0  0  0  0  0  0  0  0  0  0
    5.8630   -0.8057    0.5894 C   0  0  0  0  0  0  0  0  0  0  0  0
    3.9136   -1.0841   -0.8156 C   0  0  0  0  0  0  0  0  0  0  0  0
    4.5700   -3.0715    0.8920 C   0  0  1  0  0  0  0  0  0  0  0  0
    4.3596   -3.9941   -0.3437 C   0  0  2  0  0  0  0  0  0  0  0  0
    3.1623   -3.8178   -1.0682 O   0  0  0  0  0  0  0  0  0  0  0  0
   -0.4135   -6.1013    7.3574 H   0  0  0  0  0  0  0  0  0  0  0  0
    1.0831   -5.1269    7.8618 H   0  0  0  0  0  0  0  0  0  0  0  0
    3.0505   -5.0599    6.5292 H   0  0  0  0  0  0  0  0  0  0  0  0
    6.9950   -7.0590    4.5091 H   0  0  0  0  0  0  0  0  0  0  0  0
    7.4509   -5.4712    3.9735 H   0  0  0  0  0  0  0  0  0  0  0  0
    7.5062   -6.8289    2.8473 H   0  0  0  0  0  0  0  0  0  0  0  0
    2.6688   -9.0974    1.8857 H   0  0  0  0  0  0  0  0  0  0  0  0
    3.5340   -8.4281    0.5418 H   0  0  0  0  0  0  0  0  0  0  0  0
    1.9155   -7.8677    0.9075 H   0  0  0  0  0  0  0  0  0  0  0  0
    1.0121   -7.9814    3.0337 H   0  0  0  0  0  0  0  0  0  0  0  0
   -2.5273   -7.3215    4.0003 H   0  0  0  0  0  0  0  0  0  0  0  0
   -1.1181   -7.7139    2.9788 H   0  0  0  0  0  0  0  0  0  0  0  0
   -1.7746   -8.9178    5.6662 H   0  0  0  0  0  0  0  0  0  0  0  0
   -0.7581   -9.5378    4.3398 H   0  0  0  0  0  0  0  0  0  0  0  0
    2.8582   -4.0897    1.3893 H   0  0  0  0  0  0  0  0  0  0  0  0
    3.9474   -6.1693   -0.6977 H   0  0  0  0  0  0  0  0  0  0  0  0
    5.5780   -7.1917    0.5913 H   0  0  0  0  0  0  0  0  0  0  0  0
    6.5387   -5.8209    0.1082 H   0  0  0  0  0  0  0  0  0  0  0  0
    5.5601   -3.3528    2.8437 H   0  0  0  0  0  0  0  0  0  0  0  0
    7.3946   -2.6411    1.6401 H   0  0  0  0  0  0  0  0  0  0  0  0
    8.1048   -4.5117    2.5425 H   0  0  0  0  0  0  0  0  0  0  0  0
    7.7044   -2.6122   -0.5748 H   0  0  0  0  0  0  0  0  0  0  0  0
    7.4866   -4.2323   -0.7999 H   0  0  0  0  0  0  0  0  0  0  0  0
    5.5677   -2.9530   -1.9045 H   0  0  0  0  0  0  0  0  0  0  0  0
    5.3693    0.1673    0.6012 H   0  0  0  0  0  0  0  0  0  0  0  0
    6.8146   -0.6808    0.0722 H   0  0  0  0  0  0  0  0  0  0  0  0
    6.0544   -1.0142    1.6425 H   0  0  0  0  0  0  0  0  0  0  0  0
    3.1072   -0.7709   -0.1517 H   0  0  0  0  0  0  0  0  0  0  0  0
    3.4691   -1.5814   -1.6732 H   0  0  0  0  0  0  0  0  0  0  0  0
    4.3523   -0.1973   -1.2636 H   0  0  0  0  0  0  0  0  0  0  0  0
    3.6436   -2.7657    1.3813 H   0  0  0  0  0  0  0  0  0  0  0  0
    3.1038   -4.5131   -1.7171 H   0  0  0  0  0  0  0  0  0  0  0  0
  1  2  2  0
  1 36  1  0
  1 37  1  0
  2 15  1  0
  2  3  1  0
  3  4  2  0
  3 38  1  0
  4 13  1  0
  4  5  1  0
  5  6  2  0
  5  7  1  0
  7 24  1  0
  7  8  1  1
  7  9  1  0
  8 39  1  0
  8 40  1  0
  8 41  1  0
  9 10  2  0
  9 11  1  0
 11 12  1  6
 11 13  1  0
 11 20  1  0
 12 42  1  0
 12 43  1  0
 12 44  1  0
 13 14  2  0
 14 15  1  0
 14 45  1  0
 15 19  1  0
 15 16  1  0
 16 17  1  0
 17 18  1  0
 17 46  1  0
 17 47  1  0
 18 19  1  0
 18 48  1  0
 18 49  1  0
 20 24  1  0
 20 21  1  1
 20 22  1  0
 21 50  1  0
 22 34  1  0
 22 23  1  0
 22 51  1  6
 24 23  1  6
 23 52  1  0
 23 53  1  0
 24 25  1  0
 25 33  1  0
 25 26  1  0
 25 54  1  1
 26 27  1  0
 26 28  1  0
 26 55  1  1
 27 56  1  0
 28 29  1  0
 28 57  1  0
 28 58  1  0
 29 34  1  0
 29 30  1  0
 29 59  1  6
 30 31  1  0
 30 32  1  0
 30 33  1  0
 31 60  1  0
 31 61  1  0
 31 62  1  0
 32 63  1  0
 32 64  1  0
 32 65  1  0
 33 34  1  0
 33 66  1  1
 34 35  1  6
 35 67  1  0
M  END
>  <i_m_ct_stereo_status>  (44) 
1

>  <s_m_source_file>  (44) 
/var/tmp/pbs.5076255.sched01/tmp9s019jnz/08u7fdliu.sdf

>  <i_m_source_file_index>  (44) 
18

>  <i_lp_mmshare_version>  (44) 
48012

>  <i_f3d_flags>  (44) 
0

>  <s_epik_input>  (44) 
TzFbQ0gyXVtDSDJdT0MxMkMoPVtDSDJdKVtDSF09QzNDKD1bQ0hdMilbQ0BAXTQoW0NIM10pW0NAQF01KFtPSF0pW0NAXTYoW0NAXShDMz1PKShbQ0gzXSlDND1PKVtDQEBIXTdbQ0BASF04W0NAXShbT0hdKShbQ0BIXTVbQ0gyXTYpW0NAQEhdKEM4KFtDSDNdKVtDSDNdKVtDSDJdW0NAQEhdN1tPSF0=

>  <s_epik_cmdline>  (44) 
J2VwaWtfcHl0aG9uJywgJy1waHQnLCAnMi4wJywgJy1waCcsICc3LjAnLCAnLXRuJywgJzgnLCAnLW1hJywgJzIwMCcsICctaW1hZScsICc8aW5maWxlLm1hZT4nLCAnLW9tYWUnLCAnPG91dGZpbGUubWFlPic=

>  <r_lp_tautomer_probability>  (44) 
1

>  <r_epik_Ionization_Penalty>  (44) 
1.01038e-05

>  <r_epik_Ionization_Penalty_Charging>  (44) 
0

>  <r_epik_Ionization_Penalty_Neutral>  (44) 
1.01038e-05

>  <r_epik_State_Penalty>  (44) 
-0

>  <r_epik_Charging_Adjusted_Penalty>  (44) 
0

>  <i_epik_Tot_Q>  (44) 
0

>  <i_epik_Tot_abs_Q>  (44) 
0

>  <s_lp_Force_Field>  (44) 
OPLS3e

>  <r_lp_Energy>  (44) 
130.313

>  <b_lp_Chiralities_Consistent>  (44) 
1

>  <s_lp_Variant>  (44) 
10:0-1

>  <s_i_glide_gridfile>  (44) 
pfpi4k_grid

>  <i_i_glide_lignum>  (44) 
18

>  <i_i_glide_rotatable_bonds>  (44) 
3

>  <r_i_docking_score>  (44) 
-2.48662

>  <r_i_glide_ligand_efficiency>  (44) 
-0.0710463

>  <r_i_glide_ligand_efficiency_sa>  (44) 
-0.232397

>  <r_i_glide_ligand_efficiency_ln>  (44) 
-0.545868

>  <r_i_glide_gscore>  (44) 
-2.48662

>  <r_i_glide_lipo>  (44) 
-0.592835

>  <r_i_glide_hbond>  (44) 
0

>  <r_i_glide_metal>  (44) 
-0

>  <r_i_glide_rewards>  (44) 
-0.132617

>  <r_i_glide_evdw>  (44) 
-21.2897

>  <r_i_glide_ecoul>  (44) 
-4.54528

>  <r_i_glide_erotb>  (44) 
0

>  <r_i_glide_esite>  (44) 
-0.0148889

>  <r_i_glide_emodel>  (44) 
-29.3879

>  <r_i_glide_energy>  (44) 
-25.835

>  <r_i_glide_einternal>  (44) 
1.19434

>  <r_i_glide_intrahb_reward>  (44) 
-0

>  <i_i_glide_confnum>  (44) 
6

>  <i_i_glide_posenum>  (44) 
12

>  <r_i_glide_eff_state_penalty>  (44) 
0

>  <ligand_id>  (44) 
10

>  <original_smiles>  (44) 
C=C1C=C2C(=O)C3(C)C(=O)C(C)(C2=CC12OCCO2)C1(O)C2CC31C1C(O)CC3C(C)(C)C1C32O

>  <smiles>  (44) 
[H]OC1([H])C([H])([H])C2([H])C3(O[H])C4([H])C([H])([H])C5(C6(C([H])([H])[H])C(=O)C7=C([H])C(=C([H])[H])C8(OC([H])([H])C([H])([H])O8)C([H])=C7C(C([H])([H])[H])(C6=O)C45O[H])C1([H])C3([H])C2(C([H])([H])[H])C([H])([H])[H]

$$$$
10:0:2
     RDKit          3D

 67 74  0  0  1  0  0  0  0  0999 V2000
    5.5150   -3.3063   -1.2276 C   0  0  0  0  0  0  0  0  0  0  0  0
    5.1030   -3.5839    0.0241 C   0  0  0  0  0  0  0  0  0  0  0  0
    5.2391   -4.9540    0.5180 C   0  0  0  0  0  0  0  0  0  0  0  0
    4.8240   -5.3059    1.7539 C   0  0  0  0  0  0  0  0  0  0  0  0
    5.0661   -6.6937    2.2653 C   0  0  0  0  0  0  0  0  0  0  0  0
    5.4459   -7.6070    1.5346 O   0  0  0  0  0  0  0  0  0  0  0  0
    4.8015   -6.9840    3.7761 C   0  0  1  0  0  0  0  0  0  0  0  0
    5.8345   -7.9696    4.3440 C   0  0  0  0  0  0  0  0  0  0  0  0
    4.9072   -5.6243    4.4944 C   0  0  0  0  0  0  0  0  0  0  0  0
    5.7473   -5.2820    5.3235 O   0  0  0  0  0  0  0  0  0  0  0  0
    3.6941   -4.8026    4.0693 C   0  0  1  0  0  0  0  0  0  0  0  0
    3.3075   -3.6785    5.0611 C   0  0  0  0  0  0  0  0  0  0  0  0
    4.2165   -4.3416    2.6775 C   0  0  0  0  0  0  0  0  0  0  0  0
    4.1293   -3.0500    2.2900 C   0  0  0  0  0  0  0  0  0  0  0  0
    4.5170   -2.4892    0.9220 C   0  0  0  0  0  0  0  0  0  0  0  0
    3.3963   -1.9331    0.3233 O   0  0  0  0  0  0  0  0  0  0  0  0
    3.2058   -0.6871    0.9754 C   0  0  0  0  0  0  0  0  0  0  0  0
    4.6589   -0.2673    1.2273 C   0  0  0  0  0  0  0  0  0  0  0  0
    5.4272   -1.4594    1.0864 O   0  0  0  0  0  0  0  0  0  0  0  0
    2.5648   -5.8935    3.9262 C   0  0  2  0  0  0  0  0  0  0  0  0
    1.8700   -5.5277    2.7483 O   0  0  0  0  0  0  0  0  0  0  0  0
    1.6072   -6.5424    4.9914 C   0  0  2  0  0  0  0  0  0  0  0  0
    2.8534   -7.1561    5.5720 C   0  0  0  0  0  0  0  0  0  0  0  0
    3.2871   -7.2763    4.0650 C   0  0  2  0  0  0  0  0  0  0  0  0
    2.6079   -8.5435    3.3747 C   0  0  1  0  0  0  0  0  0  0  0  0
    2.6341   -9.8311    4.2945 C   0  0  1  0  0  0  0  0  0  0  0  0
    3.8089  -10.0599    5.0340 O   0  0  0  0  0  0  0  0  0  0  0  0
    1.3800   -9.9280    5.2248 C   0  0  0  0  0  0  0  0  0  0  0  0
    0.2484   -9.0131    4.7117 C   0  0  2  0  0  0  0  0  0  0  0  0
   -0.0489   -9.2661    3.2085 C   0  0  0  0  0  0  0  0  0  0  0  0
    0.2526  -10.6250    2.5353 C   0  0  0  0  0  0  0  0  0  0  0  0
   -1.4881   -8.9618    2.7113 C   0  0  0  0  0  0  0  0  0  0  0  0
    1.0871   -8.2053    3.0970 C   0  0  1  0  0  0  0  0  0  0  0  0
    0.5206   -7.4876    4.3454 C   0  0  2  0  0  0  0  0  0  0  0  0
   -0.6390   -6.6898    4.1777 O   0  0  0  0  0  0  0  0  0  0  0  0
    5.4337   -2.3109   -1.6345 H   0  0  0  0  0  0  0  0  0  0  0  0
    5.9312   -4.0714   -1.8677 H   0  0  0  0  0  0  0  0  0  0  0  0
    5.7165   -5.6867   -0.1179 H   0  0  0  0  0  0  0  0  0  0  0  0
    6.8472   -7.5822    4.2206 H   0  0  0  0  0  0  0  0  0  0  0  0
    5.7920   -8.9285    3.8268 H   0  0  0  0  0  0  0  0  0  0  0  0
    5.6837   -8.1438    5.4126 H   0  0  0  0  0  0  0  0  0  0  0  0
    4.1049   -2.9466    5.1842 H   0  0  0  0  0  0  0  0  0  0  0  0
    3.0862   -4.0749    6.0491 H   0  0  0  0  0  0  0  0  0  0  0  0
    2.4163   -3.1435    4.7292 H   0  0  0  0  0  0  0  0  0  0  0  0
    3.7117   -2.3544    2.9875 H   0  0  0  0  0  0  0  0  0  0  0  0
    2.6208    0.0402    0.4196 H   0  0  0  0  0  0  0  0  0  0  0  0
    2.6581   -0.8380    1.9062 H   0  0  0  0  0  0  0  0  0  0  0  0
    4.9884    0.4587    0.4820 H   0  0  0  0  0  0  0  0  0  0  0  0
    4.8013    0.1532    2.2229 H   0  0  0  0  0  0  0  0  0  0  0  0
    2.4817   -5.6354    2.0347 H   0  0  0  0  0  0  0  0  0  0  0  0
    1.1811   -5.8110    5.6825 H   0  0  0  0  0  0  0  0  0  0  0  0
    3.3710   -6.4678    6.2353 H   0  0  0  0  0  0  0  0  0  0  0  0
    2.7141   -8.0552    6.1410 H   0  0  0  0  0  0  0  0  0  0  0  0
    3.1176   -8.7737    2.4357 H   0  0  0  0  0  0  0  0  0  0  0  0
    2.6163  -10.6917    3.6342 H   0  0  0  0  0  0  0  0  0  0  0  0
    3.7089  -10.8867    5.4833 H   0  0  0  0  0  0  0  0  0  0  0  0
    1.0360  -10.9626    5.2412 H   0  0  0  0  0  0  0  0  0  0  0  0
    1.5907   -9.7420    6.2784 H   0  0  0  0  0  0  0  0  0  0  0  0
   -0.6574   -9.1041    5.3095 H   0  0  0  0  0  0  0  0  0  0  0  0
   -0.4199  -10.8639    1.7044 H   0  0  0  0  0  0  0  0  0  0  0  0
    0.2100  -11.4568    3.2392 H   0  0  0  0  0  0  0  0  0  0  0  0
    1.2329  -10.6252    2.0770 H   0  0  0  0  0  0  0  0  0  0  0  0
   -1.4808   -8.5023    1.7216 H   0  0  0  0  0  0  0  0  0  0  0  0
   -2.0818   -8.3346    3.3697 H   0  0  0  0  0  0  0  0  0  0  0  0
   -2.0997   -9.8607    2.6562 H   0  0  0  0  0  0  0  0  0  0  0  0
    0.9298   -7.6559    2.1730 H   0  0  0  0  0  0  0  0  0  0  0  0
   -1.1147   -6.7354    4.9911 H   0  0  0  0  0  0  0  0  0  0  0  0
  1  2  2  0
  1 36  1  0
  1 37  1  0
  2 15  1  0
  2  3  1  0
  3  4  2  0
  3 38  1  0
  4 13  1  0
  4  5  1  0
  5  6  2  0
  5  7  1  0
  7 24  1  0
  7  8  1  1
  7  9  1  0
  8 39  1  0
  8 40  1  0
  8 41  1  0
  9 10  2  0
  9 11  1  0
 11 12  1  1
 11 13  1  0
 11 20  1  0
 12 42  1  0
 12 43  1  0
 12 44  1  0
 13 14  2  0
 14 15  1  0
 14 45  1  0
 15 19  1  0
 15 16  1  0
 16 17  1  0
 17 18  1  0
 17 46  1  0
 17 47  1  0
 18 19  1  0
 18 48  1  0
 18 49  1  0
 20 24  1  0
 20 21  1  6
 20 22  1  0
 21 50  1  0
 22 34  1  0
 22 23  1  0
 22 51  1  1
 24 23  1  1
 23 52  1  0
 23 53  1  0
 24 25  1  0
 25 33  1  0
 25 26  1  0
 25 54  1  6
 26 27  1  0
 26 28  1  0
 26 55  1  6
 27 56  1  0
 28 29  1  0
 28 57  1  0
 28 58  1  0
 29 34  1  0
 29 30  1  0
 29 59  1  1
 30 31  1  0
 30 32  1  0
 30 33  1  0
 31 60  1  0
 31 61  1  0
 31 62  1  0
 32 63  1  0
 32 64  1  0
 32 65  1  0
 33 34  1  0
 33 66  1  6
 34 35  1  6
 35 67  1  0
M  END
>  <i_m_ct_stereo_status>  (45) 
1

>  <s_m_source_file>  (45) 
/var/tmp/pbs.5076255.sched01/tmp9s019jnz/08u7fdliu.sdf

>  <i_m_source_file_index>  (45) 
18

>  <i_lp_mmshare_version>  (45) 
48012

>  <i_f3d_flags>  (45) 
0

>  <s_epik_input>  (45) 
TzFbQ0gyXVtDSDJdT0MxMkMoPVtDSDJdKVtDSF09QzNDKD1bQ0hdMilbQ0BAXTQoW0NIM10pW0NAQF01KFtPSF0pW0NAXTYoW0NAXShDMz1PKShbQ0gzXSlDND1PKVtDQEBIXTdbQ0BASF04W0NAXShbT0hdKShbQ0BIXTVbQ0gyXTYpW0NAQEhdKEM4KFtDSDNdKVtDSDNdKVtDSDJdW0NAQEhdN1tPSF0=

>  <s_epik_cmdline>  (45) 
J2VwaWtfcHl0aG9uJywgJy1waHQnLCAnMi4wJywgJy1waCcsICc3LjAnLCAnLXRuJywgJzgnLCAnLW1hJywgJzIwMCcsICctaW1hZScsICc8aW5maWxlLm1hZT4nLCAnLW9tYWUnLCAnPG91dGZpbGUubWFlPic=

>  <r_lp_tautomer_probability>  (45) 
1

>  <r_epik_Ionization_Penalty>  (45) 
1.01038e-05

>  <r_epik_Ionization_Penalty_Charging>  (45) 
0

>  <r_epik_Ionization_Penalty_Neutral>  (45) 
1.01038e-05

>  <r_epik_State_Penalty>  (45) 
-0

>  <r_epik_Charging_Adjusted_Penalty>  (45) 
0

>  <i_epik_Tot_Q>  (45) 
0

>  <i_epik_Tot_abs_Q>  (45) 
0

>  <s_lp_Force_Field>  (45) 
OPLS3e

>  <r_lp_Energy>  (45) 
130.313

>  <b_lp_Chiralities_Consistent>  (45) 
1

>  <s_lp_Variant>  (45) 
10:0-1

>  <s_i_glide_gridfile>  (45) 
pfpi4k_grid

>  <i_i_glide_lignum>  (45) 
18

>  <i_i_glide_rotatable_bonds>  (45) 
3

>  <r_i_docking_score>  (45) 
-2.29061

>  <r_i_glide_ligand_efficiency>  (45) 
-0.065446

>  <r_i_glide_ligand_efficiency_sa>  (45) 
-0.214078

>  <r_i_glide_ligand_efficiency_ln>  (45) 
-0.50284

>  <r_i_glide_gscore>  (45) 
-2.29061

>  <r_i_glide_lipo>  (45) 
-0.580941

>  <r_i_glide_hbond>  (45) 
0

>  <r_i_glide_metal>  (45) 
-0

>  <r_i_glide_rewards>  (45) 
-0.155818

>  <r_i_glide_evdw>  (45) 
-26.8745

>  <r_i_glide_ecoul>  (45) 
-1.40083

>  <r_i_glide_erotb>  (45) 
0

>  <r_i_glide_esite>  (45) 
0

>  <r_i_glide_emodel>  (45) 
-32.0162

>  <r_i_glide_energy>  (45) 
-28.2754

>  <r_i_glide_einternal>  (45) 
0.8587

>  <r_i_glide_intrahb_reward>  (45) 
-0

>  <i_i_glide_confnum>  (45) 
6

>  <i_i_glide_posenum>  (45) 
18

>  <r_i_glide_eff_state_penalty>  (45) 
0

>  <ligand_id>  (45) 
10

>  <original_smiles>  (45) 
C=C1C=C2C(=O)C3(C)C(=O)C(C)(C2=CC12OCCO2)C1(O)C2CC31C1C(O)CC3C(C)(C)C1C32O

>  <smiles>  (45) 
[H]OC1([H])C([H])([H])C2([H])C3(O[H])C4([H])C([H])([H])C5(C6(C([H])([H])[H])C(=O)C7=C([H])C(=C([H])[H])C8(OC([H])([H])C([H])([H])O8)C([H])=C7C(C([H])([H])[H])(C6=O)C45O[H])C1([H])C3([H])C2(C([H])([H])[H])C([H])([H])[H]

$$$$
11:0:0
     RDKit          3D

 58 62  0  0  1  0  0  0  0  0999 V2000
    6.4531   -6.5274    2.1314 C   0  0  0  0  0  0  0  0  0  0  0  0
    5.6854   -5.2623    1.6755 C   0  0  2  0  0  0  0  0  0  0  0  0
    6.7177   -4.4499    0.8017 C   0  0  0  0  0  0  0  0  0  0  0  0
    6.4067   -3.1579   -0.0218 C   0  0  2  0  0  0  0  0  0  0  0  0
    5.7718   -1.8761    0.6595 C   0  0  0  0  0  0  0  0  0  0  0  0
    4.4257   -1.3161    0.0590 C   0  0  2  0  0  0  0  0  0  0  0  0
    3.2522   -1.2273    1.0739 C   0  0  0  0  0  0  0  0  0  0  0  0
    2.5150   -2.5383    1.3499 C   0  0  0  0  0  0  0  0  0  0  0  0
    3.4691   -3.6301    1.5954 N   0  0  2  0  0  0  0  0  0  0  0  0
    3.1462   -4.9528    1.0393 C   0  0  2  0  0  0  0  0  0  0  0  0
    2.0758   -5.6633    1.8970 C   0  0  0  0  0  0  0  0  0  0  0  0
    2.4989   -5.7845    3.3687 C   0  0  0  0  0  0  0  0  0  0  0  0
    2.9319   -4.4099    3.8995 C   0  0  0  0  0  0  0  0  0  0  0  0
    3.9740   -3.7430    2.9793 C   0  0  1  0  0  0  0  0  0  0  0  0
    5.3043   -4.5089    2.9852 C   0  0  0  0  0  0  0  0  0  0  0  0
    4.4335   -5.7878    0.8996 C   0  0  0  0  0  0  0  0  0  0  0  0
    4.0625   -2.0546   -1.2160 C   0  0  2  0  0  0  0  0  0  0  0  0
    5.3466   -2.1472   -2.0067 C   0  0  1  0  0  0  0  0  0  0  0  0
    5.9829   -3.4038   -1.4937 C   0  0  0  0  0  0  0  0  0  0  0  0
    4.0762   -1.7716   -2.7028 C   0  0  0  0  0  0  0  0  0  0  0  0
    3.4857   -2.7614   -3.6820 C   0  0  0  0  0  0  0  0  0  0  0  0
    3.8125   -0.3510   -3.1592 C   0  0  0  0  0  0  0  0  0  0  0  0
    6.7568   -7.1581    1.2891 H   0  0  0  0  0  0  0  0  0  0  0  0
    5.8346   -7.1542    2.7848 H   0  0  0  0  0  0  0  0  0  0  0  0
    7.3563   -6.2788    2.6999 H   0  0  0  0  0  0  0  0  0  0  0  0
    7.5756   -4.2284    1.4445 H   0  0  0  0  0  0  0  0  0  0  0  0
    7.1353   -5.1620    0.0853 H   0  0  0  0  0  0  0  0  0  0  0  0
    7.4252   -2.8003   -0.1671 H   0  0  0  0  0  0  0  0  0  0  0  0
    5.7288   -1.9732    1.7377 H   0  0  0  0  0  0  0  0  0  0  0  0
    6.4935   -1.0641    0.5061 H   0  0  0  0  0  0  0  0  0  0  0  0
    4.6280   -0.2823   -0.2266 H   0  0  0  0  0  0  0  0  0  0  0  0
    3.6097   -0.7860    2.0007 H   0  0  0  0  0  0  0  0  0  0  0  0
    2.5260   -0.5128    0.6850 H   0  0  0  0  0  0  0  0  0  0  0  0
    1.8204   -2.4141    2.1733 H   0  0  0  0  0  0  0  0  0  0  0  0
    1.8916   -2.7629    0.4932 H   0  0  0  0  0  0  0  0  0  0  0  0
    2.7330   -4.8414    0.0444 H   0  0  0  0  0  0  0  0  0  0  0  0
    1.1415   -5.1103    1.8686 H   0  0  0  0  0  0  0  0  0  0  0  0
    1.8596   -6.6543    1.4938 H   0  0  0  0  0  0  0  0  0  0  0  0
    1.6725   -6.1798    3.9714 H   0  0  0  0  0  0  0  0  0  0  0  0
    3.3169   -6.5087    3.4687 H   0  0  0  0  0  0  0  0  0  0  0  0
    2.0528   -3.7742    4.0108 H   0  0  0  0  0  0  0  0  0  0  0  0
    3.3443   -4.5250    4.9066 H   0  0  0  0  0  0  0  0  0  0  0  0
    4.1620   -2.7527    3.3723 H   0  0  0  0  0  0  0  0  0  0  0  0
    5.3303   -5.1910    3.8505 H   0  0  0  0  0  0  0  0  0  0  0  0
    6.0860   -3.7896    3.1910 H   0  0  0  0  0  0  0  0  0  0  0  0
    4.6843   -5.8659   -0.1528 H   0  0  0  0  0  0  0  0  0  0  0  0
    4.2108   -6.8240    1.1951 H   0  0  0  0  0  0  0  0  0  0  0  0
    3.5348   -2.9799   -1.0353 H   0  0  0  0  0  0  0  0  0  0  0  0
    6.0362   -1.3102   -1.9767 H   0  0  0  0  0  0  0  0  0  0  0  0
    6.8469   -3.6181   -2.1160 H   0  0  0  0  0  0  0  0  0  0  0  0
    5.3015   -4.2516   -1.5934 H   0  0  0  0  0  0  0  0  0  0  0  0
    3.9317   -2.6249   -4.6687 H   0  0  0  0  0  0  0  0  0  0  0  0
    2.4026   -2.6278   -3.7596 H   0  0  0  0  0  0  0  0  0  0  0  0
    3.6862   -3.7785   -3.3519 H   0  0  0  0  0  0  0  0  0  0  0  0
    4.2303   -0.1656   -4.1524 H   0  0  0  0  0  0  0  0  0  0  0  0
    4.2556    0.3548   -2.4626 H   0  0  0  0  0  0  0  0  0  0  0  0
    2.7415   -0.1601   -3.1887 H   0  0  0  0  0  0  0  0  0  0  0  0
    4.2748   -3.3302    1.0515 H   0  0  0  0  0  0  0  0  0  0  0  0
  2  1  1  1
  1 23  1  0
  1 24  1  0
  1 25  1  0
  2 15  1  0
  2 16  1  0
  2  3  1  0
  3  4  1  0
  3 26  1  0
  3 27  1  0
  4 19  1  0
  4  5  1  0
  4 28  1  6
  5  6  1  0
  5 29  1  0
  5 30  1  0
  6  7  1  0
  6 17  1  0
  6 31  1  6
  7  8  1  0
  7 32  1  0
  7 33  1  0
  8  9  1  0
  8 34  1  0
  8 35  1  0
  9 14  1  0
  9 10  1  0
  9 58  1  6
 10 11  1  0
 10 16  1  0
 10 36  1  6
 11 12  1  0
 11 37  1  0
 11 38  1  0
 12 13  1  0
 12 39  1  0
 12 40  1  0
 13 14  1  0
 13 41  1  0
 13 42  1  0
 14 15  1  0
 14 43  1  1
 15 44  1  0
 15 45  1  0
 16 46  1  0
 16 47  1  0
 17 20  1  0
 17 18  1  0
 17 48  1  1
 18 19  1  0
 18 20  1  0
 18 49  1  1
 19 50  1  0
 19 51  1  0
 20 21  1  0
 20 22  1  0
 21 52  1  0
 21 53  1  0
 21 54  1  0
 22 55  1  0
 22 56  1  0
 22 57  1  0
M  CHG  1   9   1
M  END
>  <i_m_ct_stereo_status>  (46) 
1

>  <s_m_source_file>  (46) 
/var/tmp/pbs.5076255.sched01/tmp9s019jnz/08u7fdliu.sdf

>  <i_m_source_file_index>  (46) 
19

>  <i_lp_mmshare_version>  (46) 
48012

>  <i_f3d_flags>  (46) 
0

>  <s_epik_input>  (46) 
W0NIM11bQ0BdMTJbQ0gyXVtDQEBIXTNbQ0gyXVtDQEBIXShbQ0BASF00W0NAQEhdKFtDSDJdMylDNChbQ0gzXSlbQ0gzXSlbQ0gyXVtDSDJdTjVbQ0BASF0oW0NIMl0yKVtDSDJdW0NIMl1bQ0gyXVtDQEhdNVtDSDJdMQ==

>  <s_epik_cmdline>  (46) 
J2VwaWtfcHl0aG9uJywgJy1waHQnLCAnMi4wJywgJy1waCcsICc3LjAnLCAnLXRuJywgJzgnLCAnLW1hJywgJzIwMCcsICctaW1hZScsICc8aW5maWxlLm1hZT4nLCAnLW9tYWUnLCAnPG91dGZpbGUubWFlPic=

>  <r_lp_tautomer_probability>  (46) 
1

>  <r_epik_Ionization_Penalty>  (46) 
0.000183844

>  <r_epik_Ionization_Penalty_Charging>  (46) 
0.000183844

>  <r_epik_Ionization_Penalty_Neutral>  (46) 
0

>  <r_epik_State_Penalty>  (46) 
-0

>  <r_epik_Charging_Adjusted_Penalty>  (46) 
0.000183844

>  <i_epik_Tot_Q>  (46) 
1

>  <i_epik_Tot_abs_Q>  (46) 
1

>  <s_lp_Force_Field>  (46) 
OPLS3e

>  <r_lp_Energy>  (46) 
96.7403

>  <b_lp_Chiralities_Consistent>  (46) 
1

>  <s_lp_Variant>  (46) 
11:0-1

>  <s_i_glide_gridfile>  (46) 
pfpi4k_grid

>  <i_i_glide_lignum>  (46) 
19

>  <i_i_glide_rotatable_bonds>  (46) 
0

>  <r_i_docking_score>  (46) 
-4.03736

>  <r_i_glide_ligand_efficiency>  (46) 
-0.183516

>  <r_i_glide_ligand_efficiency_sa>  (46) 
-0.51422

>  <r_i_glide_ligand_efficiency_ln>  (46) 
-0.986878

>  <r_i_glide_gscore>  (46) 
-4.03736

>  <r_i_glide_lipo>  (46) 
-0.997328

>  <r_i_glide_hbond>  (46) 
0

>  <r_i_glide_metal>  (46) 
-0

>  <r_i_glide_rewards>  (46) 
-1.34647

>  <r_i_glide_evdw>  (46) 
-27.0918

>  <r_i_glide_ecoul>  (46) 
-2.25976

>  <r_i_glide_erotb>  (46) 
0

>  <r_i_glide_esite>  (46) 
0

>  <r_i_glide_emodel>  (46) 
-35.691

>  <r_i_glide_energy>  (46) 
-29.3516

>  <r_i_glide_einternal>  (46) 
0

>  <r_i_glide_intrahb_reward>  (46) 
-0

>  <i_i_glide_confnum>  (46) 
2

>  <i_i_glide_posenum>  (46) 
40

>  <r_i_glide_eff_state_penalty>  (46) 
0

>  <ligand_id>  (46) 
11

>  <original_smiles>  (46) 
CC12CC3CC(CCN4C(CCCC4C1)C2)C1C(C3)C1(C)C

>  <smiles>  (46) 
[H]C([H])([H])C12C([H])([H])C3([H])C([H])([H])C([H])(C([H])([H])C([H])([H])[N+]4([H])C([H])(C([H])([H])C([H])([H])C([H])([H])C4([H])C1([H])[H])C2([H])[H])C1([H])C([H])(C3([H])[H])C1(C([H])([H])[H])C([H])([H])[H]

$$$$
11:0:1
     RDKit          3D

 58 62  0  0  1  0  0  0  0  0999 V2000
    5.2795   -6.7650    2.3650 C   0  0  0  0  0  0  0  0  0  0  0  0
    4.9494   -5.3578    1.8159 C   0  0  2  0  0  0  0  0  0  0  0  0
    5.8836   -5.1727    0.5586 C   0  0  0  0  0  0  0  0  0  0  0  0
    5.8607   -3.9646   -0.4348 C   0  0  2  0  0  0  0  0  0  0  0  0
    6.0073   -2.4690    0.0516 C   0  0  0  0  0  0  0  0  0  0  0  0
    4.8657   -1.4556   -0.3500 C   0  0  2  0  0  0  0  0  0  0  0  0
    4.1782   -0.7517    0.8523 C   0  0  0  0  0  0  0  0  0  0  0  0
    3.1191   -1.5740    1.5963 C   0  0  0  0  0  0  0  0  0  0  0  0
    3.6307   -2.9339    1.8663 N   0  0  2  0  0  0  0  0  0  0  0  0
    2.6717   -4.0426    1.7299 C   0  0  2  0  0  0  0  0  0  0  0  0
    1.7331   -4.1049    2.9558 C   0  0  0  0  0  0  0  0  0  0  0  0
    2.5074   -4.2306    4.2740 C   0  0  0  0  0  0  0  0  0  0  0  0
    3.5740   -3.1292    4.3527 C   0  0  0  0  0  0  0  0  0  0  0  0
    4.4509   -3.0951    3.0802 C   0  0  1  0  0  0  0  0  0  0  0  0
    5.3124   -4.3663    2.9577 C   0  0  0  0  0  0  0  0  0  0  0  0
    3.4231   -5.3684    1.4942 C   0  0  0  0  0  0  0  0  0  0  0  0
    3.8761   -2.1107   -1.3022 C   0  0  2  0  0  0  0  0  0  0  0  0
    4.7317   -2.8336   -2.3260 C   0  0  1  0  0  0  0  0  0  0  0  0
    4.9551   -4.1646   -1.6718 C   0  0  0  0  0  0  0  0  0  0  0  0
    3.5502   -2.0371   -2.7727 C   0  0  0  0  0  0  0  0  0  0  0  0
    2.3710   -2.8070   -3.3358 C   0  0  0  0  0  0  0  0  0  0  0  0
    3.7234   -0.7014   -3.4734 C   0  0  0  0  0  0  0  0  0  0  0  0
    5.0398   -7.5572    1.6474 H   0  0  0  0  0  0  0  0  0  0  0  0
    4.7024   -6.9748    3.2727 H   0  0  0  0  0  0  0  0  0  0  0  0
    6.3368   -6.8652    2.6336 H   0  0  0  0  0  0  0  0  0  0  0  0
    6.9153   -5.2868    0.9017 H   0  0  0  0  0  0  0  0  0  0  0  0
    5.7430   -6.0608   -0.0622 H   0  0  0  0  0  0  0  0  0  0  0  0
    6.8440   -4.0941   -0.8822 H   0  0  0  0  0  0  0  0  0  0  0  0
    6.2772   -2.4090    1.0983 H   0  0  0  0  0  0  0  0  0  0  0  0
    6.8948   -2.0862   -0.4642 H   0  0  0  0  0  0  0  0  0  0  0  0
    5.3526   -0.6569   -0.9093 H   0  0  0  0  0  0  0  0  0  0  0  0
    4.9454   -0.4060    1.5437 H   0  0  0  0  0  0  0  0  0  0  0  0
    3.6951    0.1538    0.4834 H   0  0  0  0  0  0  0  0  0  0  0  0
    2.8203   -1.0655    2.5103 H   0  0  0  0  0  0  0  0  0  0  0  0
    2.2188   -1.6137    0.9866 H   0  0  0  0  0  0  0  0  0  0  0  0
    2.0611   -3.8736    0.8509 H   0  0  0  0  0  0  0  0  0  0  0  0
    1.1154   -3.2080    2.9936 H   0  0  0  0  0  0  0  0  0  0  0  0
    1.0423   -4.9465    2.8600 H   0  0  0  0  0  0  0  0  0  0  0  0
    1.8211   -4.1542    5.1242 H   0  0  0  0  0  0  0  0  0  0  0  0
    2.9702   -5.2205    4.3474 H   0  0  0  0  0  0  0  0  0  0  0  0
    3.0854   -2.1689    4.5058 H   0  0  0  0  0  0  0  0  0  0  0  0
    4.2012   -3.2928    5.2332 H   0  0  0  0  0  0  0  0  0  0  0  0
    5.1211   -2.2455    3.1729 H   0  0  0  0  0  0  0  0  0  0  0  0
    5.3427   -4.8804    3.9256 H   0  0  0  0  0  0  0  0  0  0  0  0
    6.3357   -4.0631    2.7767 H   0  0  0  0  0  0  0  0  0  0  0  0
    3.2869   -5.6727    0.4574 H   0  0  0  0  0  0  0  0  0  0  0  0
    2.9263   -6.1582    2.0701 H   0  0  0  0  0  0  0  0  0  0  0  0
    3.1160   -2.6905   -0.7892 H   0  0  0  0  0  0  0  0  0  0  0  0
    5.6627   -2.3927   -2.6724 H   0  0  0  0  0  0  0  0  0  0  0  0
    5.4140   -4.8146   -2.4064 H   0  0  0  0  0  0  0  0  0  0  0  0
    4.0121   -4.6271   -1.3906 H   0  0  0  0  0  0  0  0  0  0  0  0
    2.4970   -2.9927   -4.4016 H   0  0  0  0  0  0  0  0  0  0  0  0
    1.4363   -2.2578   -3.1805 H   0  0  0  0  0  0  0  0  0  0  0  0
    2.2613   -3.7640   -2.8286 H   0  0  0  0  0  0  0  0  0  0  0  0
    3.8617   -0.8377   -4.5468 H   0  0  0  0  0  0  0  0  0  0  0  0
    4.5899   -0.1776   -3.0752 H   0  0  0  0  0  0  0  0  0  0  0  0
    2.8456   -0.0752   -3.3042 H   0  0  0  0  0  0  0  0  0  0  0  0
    4.2729   -3.0775    1.0921 H   0  0  0  0  0  0  0  0  0  0  0  0
  2  1  1  1
  1 23  1  0
  1 24  1  0
  1 25  1  0
  2 15  1  0
  2 16  1  0
  2  3  1  0
  3  4  1  0
  3 26  1  0
  3 27  1  0
  4 19  1  0
  4  5  1  0
  4 28  1  6
  5  6  1  0
  5 29  1  0
  5 30  1  0
  6  7  1  0
  6 17  1  0
  6 31  1  6
  7  8  1  0
  7 32  1  0
  7 33  1  0
  8  9  1  0
  8 34  1  0
  8 35  1  0
  9 14  1  0
  9 10  1  0
  9 58  1  6
 10 11  1  0
 10 16  1  0
 10 36  1  6
 11 12  1  0
 11 37  1  0
 11 38  1  0
 12 13  1  0
 12 39  1  0
 12 40  1  0
 13 14  1  0
 13 41  1  0
 13 42  1  0
 14 15  1  0
 14 43  1  1
 15 44  1  0
 15 45  1  0
 16 46  1  0
 16 47  1  0
 17 20  1  0
 17 18  1  0
 17 48  1  1
 18 19  1  0
 18 20  1  0
 18 49  1  6
 19 50  1  0
 19 51  1  0
 20 21  1  0
 20 22  1  0
 21 52  1  0
 21 53  1  0
 21 54  1  0
 22 55  1  0
 22 56  1  0
 22 57  1  0
M  CHG  1   9   1
M  END
>  <i_m_ct_stereo_status>  (47) 
1

>  <s_m_source_file>  (47) 
/var/tmp/pbs.5076255.sched01/tmp9s019jnz/08u7fdliu.sdf

>  <i_m_source_file_index>  (47) 
19

>  <i_lp_mmshare_version>  (47) 
48012

>  <i_f3d_flags>  (47) 
0

>  <s_epik_input>  (47) 
W0NIM11bQ0BdMTJbQ0gyXVtDQEBIXTNbQ0gyXVtDQEBIXShbQ0BASF00W0NAQEhdKFtDSDJdMylDNChbQ0gzXSlbQ0gzXSlbQ0gyXVtDSDJdTjVbQ0BASF0oW0NIMl0yKVtDSDJdW0NIMl1bQ0gyXVtDQEhdNVtDSDJdMQ==

>  <s_epik_cmdline>  (47) 
J2VwaWtfcHl0aG9uJywgJy1waHQnLCAnMi4wJywgJy1waCcsICc3LjAnLCAnLXRuJywgJzgnLCAnLW1hJywgJzIwMCcsICctaW1hZScsICc8aW5maWxlLm1hZT4nLCAnLW9tYWUnLCAnPG91dGZpbGUubWFlPic=

>  <r_lp_tautomer_probability>  (47) 
1

>  <r_epik_Ionization_Penalty>  (47) 
0.000183844

>  <r_epik_Ionization_Penalty_Charging>  (47) 
0.000183844

>  <r_epik_Ionization_Penalty_Neutral>  (47) 
0

>  <r_epik_State_Penalty>  (47) 
-0

>  <r_epik_Charging_Adjusted_Penalty>  (47) 
0.000183844

>  <i_epik_Tot_Q>  (47) 
1

>  <i_epik_Tot_abs_Q>  (47) 
1

>  <s_lp_Force_Field>  (47) 
OPLS3e

>  <r_lp_Energy>  (47) 
96.7403

>  <b_lp_Chiralities_Consistent>  (47) 
1

>  <s_lp_Variant>  (47) 
11:0-1

>  <s_i_glide_gridfile>  (47) 
pfpi4k_grid

>  <i_i_glide_lignum>  (47) 
19

>  <i_i_glide_rotatable_bonds>  (47) 
0

>  <r_i_docking_score>  (47) 
-3.71952

>  <r_i_glide_ligand_efficiency>  (47) 
-0.169069

>  <r_i_glide_ligand_efficiency_sa>  (47) 
-0.473738

>  <r_i_glide_ligand_efficiency_ln>  (47) 
-0.909185

>  <r_i_glide_gscore>  (47) 
-3.71952

>  <r_i_glide_lipo>  (47) 
-0.790368

>  <r_i_glide_hbond>  (47) 
0

>  <r_i_glide_metal>  (47) 
-0

>  <r_i_glide_rewards>  (47) 
-1.34647

>  <r_i_glide_evdw>  (47) 
-23.8144

>  <r_i_glide_ecoul>  (47) 
-2.60646

>  <r_i_glide_erotb>  (47) 
0

>  <r_i_glide_esite>  (47) 
-0.000986176

>  <r_i_glide_emodel>  (47) 
-32.2226

>  <r_i_glide_energy>  (47) 
-26.4208

>  <r_i_glide_einternal>  (47) 
0

>  <r_i_glide_intrahb_reward>  (47) 
-0

>  <i_i_glide_confnum>  (47) 
1

>  <i_i_glide_posenum>  (47) 
16

>  <r_i_glide_eff_state_penalty>  (47) 
0

>  <ligand_id>  (47) 
11

>  <original_smiles>  (47) 
CC12CC3CC(CCN4C(CCCC4C1)C2)C1C(C3)C1(C)C

>  <smiles>  (47) 
[H]C([H])([H])C12C([H])([H])C3([H])C([H])([H])C([H])(C([H])([H])C([H])([H])[N+]4([H])C([H])(C([H])([H])C([H])([H])C([H])([H])C4([H])C1([H])[H])C2([H])[H])C1([H])C([H])(C3([H])[H])C1(C([H])([H])[H])C([H])([H])[H]

$$$$
11:0:2
     RDKit          3D

 58 62  0  0  1  0  0  0  0  0999 V2000
    4.6135   -6.0870    3.4873 C   0  0  0  0  0  0  0  0  0  0  0  0
    4.4932   -4.7753    2.6726 C   0  0  2  0  0  0  0  0  0  0  0  0
    5.4918   -4.9484    1.4619 C   0  0  0  0  0  0  0  0  0  0  0  0
    5.6617   -3.9607    0.2613 C   0  0  2  0  0  0  0  0  0  0  0  0
    5.9758   -2.4252    0.4856 C   0  0  0  0  0  0  0  0  0  0  0  0
    4.9887   -1.3701   -0.1501 C   0  0  2  0  0  0  0  0  0  0  0  0
    4.3577   -0.3790    0.8690 C   0  0  0  0  0  0  0  0  0  0  0  0
    3.1682   -0.9089    1.6758 C   0  0  0  0  0  0  0  0  0  0  0  0
    3.4871   -2.2453    2.2116 N   0  0  2  0  0  0  0  0  0  0  0  0
    2.4019   -3.2367    2.2196 C   0  0  2  0  0  0  0  0  0  0  0  0
    1.4134   -2.9594    3.3698 C   0  0  0  0  0  0  0  0  0  0  0  0
    2.1142   -2.9303    4.7364 C   0  0  0  0  0  0  0  0  0  0  0  0
    3.3141   -1.9720    4.6850 C   0  0  0  0  0  0  0  0  0  0  0  0
    4.2375   -2.2757    3.4871 C   0  0  1  0  0  0  0  0  0  0  0  0
    4.9362   -3.6390    3.6397 C   0  0  0  0  0  0  0  0  0  0  0  0
    2.9898   -4.6629    2.2656 C   0  0  0  0  0  0  0  0  0  0  0  0
    3.9639   -2.0663   -1.0305 C   0  0  2  0  0  0  0  0  0  0  0  0
    4.7533   -3.0669   -1.8559 C   0  0  1  0  0  0  0  0  0  0  0  0
    4.7742   -4.2775   -0.9685 C   0  0  0  0  0  0  0  0  0  0  0  0
    3.7016   -2.2252   -2.5112 C   0  0  0  0  0  0  0  0  0  0  0  0
    2.4575   -2.9353   -3.0037 C   0  0  0  0  0  0  0  0  0  0  0  0
    4.0724   -1.0692   -3.4193 C   0  0  0  0  0  0  0  0  0  0  0  0
    4.3045   -6.9645    2.9097 H   0  0  0  0  0  0  0  0  0  0  0  0
    3.9795   -6.0575    4.3810 H   0  0  0  0  0  0  0  0  0  0  0  0
    5.6379   -6.2621    3.8338 H   0  0  0  0  0  0  0  0  0  0  0  0
    6.4856   -5.1102    1.8874 H   0  0  0  0  0  0  0  0  0  0  0  0
    5.2681   -5.9170    1.0073 H   0  0  0  0  0  0  0  0  0  0  0  0
    6.6323   -4.2983   -0.1055 H   0  0  0  0  0  0  0  0  0  0  0  0
    6.2136   -2.2040    1.5196 H   0  0  0  0  0  0  0  0  0  0  0  0
    6.9260   -2.2465   -0.0298 H   0  0  0  0  0  0  0  0  0  0  0  0
    5.5950   -0.7471   -0.8107 H   0  0  0  0  0  0  0  0  0  0  0  0
    5.1355   -0.0140    1.5346 H   0  0  0  0  0  0  0  0  0  0  0  0
    4.0203    0.4992    0.3276 H   0  0  0  0  0  0  0  0  0  0  0  0
    2.9029   -0.2099    2.4640 H   0  0  0  0  0  0  0  0  0  0  0  0
    2.2936   -0.9521    1.0300 H   0  0  0  0  0  0  0  0  0  0  0  0
    1.8456   -3.1533    1.2907 H   0  0  0  0  0  0  0  0  0  0  0  0
    0.9126   -2.0038    3.2073 H   0  0  0  0  0  0  0  0  0  0  0  0
    0.6259   -3.7174    3.3814 H   0  0  0  0  0  0  0  0  0  0  0  0
    1.4137   -2.6189    5.5179 H   0  0  0  0  0  0  0  0  0  0  0  0
    2.4451   -3.9387    5.0125 H   0  0  0  0  0  0  0  0  0  0  0  0
    2.9480   -0.9466    4.6353 H   0  0  0  0  0  0  0  0  0  0  0  0
    3.8793   -2.0448    5.6186 H   0  0  0  0  0  0  0  0  0  0  0  0
    5.0053   -1.5095    3.4644 H   0  0  0  0  0  0  0  0  0  0  0  0
    4.8594   -3.9658    4.6856 H   0  0  0  0  0  0  0  0  0  0  0  0
    5.9944   -3.4842    3.4833 H   0  0  0  0  0  0  0  0  0  0  0  0
    2.8555   -5.1356    1.2974 H   0  0  0  0  0  0  0  0  0  0  0  0
    2.3736   -5.2661    2.9437 H   0  0  0  0  0  0  0  0  0  0  0  0
    3.1141   -2.4426   -0.4720 H   0  0  0  0  0  0  0  0  0  0  0  0
    5.7497   -2.8077   -2.2164 H   0  0  0  0  0  0  0  0  0  0  0  0
    5.1757   -5.1123   -1.5322 H   0  0  0  0  0  0  0  0  0  0  0  0
    3.7619   -4.5682   -0.6842 H   0  0  0  0  0  0  0  0  0  0  0  0
    2.6028   -3.3263   -4.0117 H   0  0  0  0  0  0  0  0  0  0  0  0
    1.6068   -2.2600   -3.0092 H   0  0  0  0  0  0  0  0  0  0  0  0
    2.2053   -3.7589   -2.3409 H   0  0  0  0  0  0  0  0  0  0  0  0
    4.2369   -1.4146   -4.4415 H   0  0  0  0  0  0  0  0  0  0  0  0
    4.9841   -0.5925   -3.0651 H   0  0  0  0  0  0  0  0  0  0  0  0
    3.2766   -0.3208   -3.4218 H   0  0  0  0  0  0  0  0  0  0  0  0
    4.1384   -2.6037    1.5193 H   0  0  0  0  0  0  0  0  0  0  0  0
  2  1  1  1
  1 23  1  0
  1 24  1  0
  1 25  1  0
  2 15  1  0
  2 16  1  0
  2  3  1  0
  3  4  1  0
  3 26  1  0
  3 27  1  0
  4 19  1  0
  4  5  1  0
  4 28  1  6
  5  6  1  0
  5 29  1  0
  5 30  1  0
  6  7  1  0
  6 17  1  0
  6 31  1  6
  7  8  1  0
  7 32  1  0
  7 33  1  0
  8  9  1  0
  8 34  1  0
  8 35  1  0
  9 14  1  0
  9 10  1  0
  9 58  1  6
 10 11  1  0
 10 16  1  0
 10 36  1  6
 11 12  1  0
 11 37  1  0
 11 38  1  0
 12 13  1  0
 12 39  1  0
 12 40  1  0
 13 14  1  0
 13 41  1  0
 13 42  1  0
 14 15  1  0
 14 43  1  6
 15 44  1  0
 15 45  1  0
 16 46  1  0
 16 47  1  0
 17 20  1  0
 17 18  1  0
 17 48  1  1
 18 19  1  0
 18 20  1  0
 18 49  1  6
 19 50  1  0
 19 51  1  0
 20 21  1  0
 20 22  1  0
 21 52  1  0
 21 53  1  0
 21 54  1  0
 22 55  1  0
 22 56  1  0
 22 57  1  0
M  CHG  1   9   1
M  END
>  <i_m_ct_stereo_status>  (48) 
1

>  <s_m_source_file>  (48) 
/var/tmp/pbs.5076255.sched01/tmp9s019jnz/08u7fdliu.sdf

>  <i_m_source_file_index>  (48) 
19

>  <i_lp_mmshare_version>  (48) 
48012

>  <i_f3d_flags>  (48) 
0

>  <s_epik_input>  (48) 
W0NIM11bQ0BdMTJbQ0gyXVtDQEBIXTNbQ0gyXVtDQEBIXShbQ0BASF00W0NAQEhdKFtDSDJdMylDNChbQ0gzXSlbQ0gzXSlbQ0gyXVtDSDJdTjVbQ0BASF0oW0NIMl0yKVtDSDJdW0NIMl1bQ0gyXVtDQEhdNVtDSDJdMQ==

>  <s_epik_cmdline>  (48) 
J2VwaWtfcHl0aG9uJywgJy1waHQnLCAnMi4wJywgJy1waCcsICc3LjAnLCAnLXRuJywgJzgnLCAnLW1hJywgJzIwMCcsICctaW1hZScsICc8aW5maWxlLm1hZT4nLCAnLW9tYWUnLCAnPG91dGZpbGUubWFlPic=

>  <r_lp_tautomer_probability>  (48) 
1

>  <r_epik_Ionization_Penalty>  (48) 
0.000183844

>  <r_epik_Ionization_Penalty_Charging>  (48) 
0.000183844

>  <r_epik_Ionization_Penalty_Neutral>  (48) 
0

>  <r_epik_State_Penalty>  (48) 
-0

>  <r_epik_Charging_Adjusted_Penalty>  (48) 
0.000183844

>  <i_epik_Tot_Q>  (48) 
1

>  <i_epik_Tot_abs_Q>  (48) 
1

>  <s_lp_Force_Field>  (48) 
OPLS3e

>  <r_lp_Energy>  (48) 
96.7403

>  <b_lp_Chiralities_Consistent>  (48) 
1

>  <s_lp_Variant>  (48) 
11:0-1

>  <s_i_glide_gridfile>  (48) 
pfpi4k_grid

>  <i_i_glide_lignum>  (48) 
19

>  <i_i_glide_rotatable_bonds>  (48) 
0

>  <r_i_docking_score>  (48) 
-3.68672

>  <r_i_glide_ligand_efficiency>  (48) 
-0.167578

>  <r_i_glide_ligand_efficiency_sa>  (48) 
-0.469561

>  <r_i_glide_ligand_efficiency_ln>  (48) 
-0.901169

>  <r_i_glide_gscore>  (48) 
-3.68672

>  <r_i_glide_lipo>  (48) 
-0.720414

>  <r_i_glide_hbond>  (48) 
0

>  <r_i_glide_metal>  (48) 
-0

>  <r_i_glide_rewards>  (48) 
-1.34647

>  <r_i_glide_evdw>  (48) 
-24.4228

>  <r_i_glide_ecoul>  (48) 
-2.64417

>  <r_i_glide_erotb>  (48) 
0

>  <r_i_glide_esite>  (48) 
-0.00207089

>  <r_i_glide_emodel>  (48) 
-32.845

>  <r_i_glide_energy>  (48) 
-27.0669

>  <r_i_glide_einternal>  (48) 
0

>  <r_i_glide_intrahb_reward>  (48) 
-0

>  <i_i_glide_confnum>  (48) 
2

>  <i_i_glide_posenum>  (48) 
5

>  <r_i_glide_eff_state_penalty>  (48) 
0

>  <ligand_id>  (48) 
11

>  <original_smiles>  (48) 
CC12CC3CC(CCN4C(CCCC4C1)C2)C1C(C3)C1(C)C

>  <smiles>  (48) 
[H]C([H])([H])C12C([H])([H])C3([H])C([H])([H])C([H])(C([H])([H])C([H])([H])[N+]4([H])C([H])(C([H])([H])C([H])([H])C([H])([H])C4([H])C1([H])[H])C2([H])[H])C1([H])C([H])(C3([H])[H])C1(C([H])([H])[H])C([H])([H])[H]

$$$$
12:0:0
     RDKit          3D

 62 67  0  0  1  0  0  0  0  0999 V2000
    4.6153   -0.6840   -2.1986 C   0  0  0  0  0  0  0  0  0  0  0  0
    3.7322   -1.8526   -2.5211 C   0  0  0  0  0  0  0  0  0  0  0  0
    2.9590   -1.4932   -3.7777 C   0  0  0  0  0  0  0  0  0  0  0  0
    4.0946   -3.3192   -2.3877 C   0  0  1  0  0  0  0  0  0  0  0  0
    5.4216   -3.8263   -1.8710 C   0  0  0  0  0  0  0  0  0  0  0  0
    5.3742   -4.4007   -0.4196 C   0  0  1  0  0  0  0  0  0  0  0  0
    6.6014   -4.9017    0.0590 O   0  0  0  0  0  0  0  0  0  0  0  0
    4.7937   -3.4449    0.6632 C   0  0  2  0  0  0  0  0  0  0  0  0
    5.9553   -2.3024    0.9584 C   0  0  1  0  0  0  0  0  0  0  0  0
    6.4414   -1.6019   -0.1686 O   0  0  0  0  0  0  0  0  0  0  0  0
    6.0541   -1.3023    2.2177 C   0  0  0  0  0  0  0  0  0  0  0  0
    4.8908   -1.1194    3.2656 C   0  0  0  0  0  0  0  0  0  0  0  0
    3.7428   -1.6494    2.5074 C   0  0  2  0  0  0  0  0  0  0  0  0
    3.6136   -0.6049    1.3016 C   0  0  0  0  0  0  0  0  0  0  0  0
    4.1893    0.4925    1.2011 O   0  0  0  0  0  0  0  0  0  0  0  0
    2.7584   -0.9172    0.5163 O   0  0  0  0  0  0  0  0  0  0  0  0
    2.2579   -2.0909    0.9800 C   0  0  2  0  0  0  0  0  0  0  0  0
    2.2560   -1.6828    2.5608 C   0  0  1  0  0  0  0  0  0  0  0  0
    1.7576   -2.6332    3.6872 C   0  0  0  0  0  0  0  0  0  0  0  0
    2.9905   -3.4482    4.0782 C   0  0  1  0  0  0  0  0  0  0  0  0
    2.6161   -4.7839    4.3868 O   0  0  0  0  0  0  0  0  0  0  0  0
    3.7207   -3.2785    2.7471 C   0  0  2  0  0  0  0  0  0  0  0  0
    4.6981   -4.2197    2.0581 C   0  0  0  0  0  0  0  0  0  0  0  0
    4.3039   -5.7483    1.9720 C   0  0  0  0  0  0  0  0  0  0  0  0
    5.9313   -4.3893    2.9445 C   0  0  0  0  0  0  0  0  0  0  0  0
    3.2076   -3.1022    0.0983 C   0  0  2  0  0  0  0  0  0  0  0  0
    2.3118   -4.4017   -0.0191 C   0  0  0  0  0  0  0  0  0  0  0  0
    3.0943   -2.7221   -1.4357 C   0  0  1  0  0  0  0  0  0  0  0  0
    4.2588    0.2302   -2.6872 H   0  0  0  0  0  0  0  0  0  0  0  0
    5.6177   -0.8987   -2.5473 H   0  0  0  0  0  0  0  0  0  0  0  0
    4.5955   -0.4829   -1.1427 H   0  0  0  0  0  0  0  0  0  0  0  0
    2.2543   -2.2869   -4.0509 H   0  0  0  0  0  0  0  0  0  0  0  0
    3.6287   -1.3242   -4.6227 H   0  0  0  0  0  0  0  0  0  0  0  0
    2.3834   -0.5767   -3.6258 H   0  0  0  0  0  0  0  0  0  0  0  0
    3.6517   -3.9691   -3.1404 H   0  0  0  0  0  0  0  0  0  0  0  0
    5.6949   -4.6157   -2.5685 H   0  0  0  0  0  0  0  0  0  0  0  0
    6.1832   -3.0655   -2.0227 H   0  0  0  0  0  0  0  0  0  0  0  0
    4.7719   -5.2916   -0.5187 H   0  0  0  0  0  0  0  0  0  0  0  0
    6.7475   -5.7597   -0.3323 H   0  0  0  0  0  0  0  0  0  0  0  0
    6.8698   -2.8394    1.1509 H   0  0  0  0  0  0  0  0  0  0  0  0
    5.7188   -1.2227   -0.6070 H   0  0  0  0  0  0  0  0  0  0  0  0
    6.8907   -1.5659    2.7999 H   0  0  0  0  0  0  0  0  0  0  0  0
    6.3661   -0.3159    1.8584 H   0  0  0  0  0  0  0  0  0  0  0  0
    5.0973   -1.6585    4.1889 H   0  0  0  0  0  0  0  0  0  0  0  0
    4.7915   -0.0664    3.5541 H   0  0  0  0  0  0  0  0  0  0  0  0
    1.1965   -2.2253    0.7126 H   0  0  0  0  0  0  0  0  0  0  0  0
    1.7460   -0.7366    2.7265 H   0  0  0  0  0  0  0  0  0  0  0  0
    1.3565   -2.0844    4.5413 H   0  0  0  0  0  0  0  0  0  0  0  0
    0.9519   -3.2647    3.2948 H   0  0  0  0  0  0  0  0  0  0  0  0
    3.5232   -2.9838    4.9121 H   0  0  0  0  0  0  0  0  0  0  0  0
    3.4022   -5.2647    4.5084 H   0  0  0  0  0  0  0  0  0  0  0  0
    2.9475   -3.8616    2.3051 H   0  0  0  0  0  0  0  0  0  0  0  0
    4.0804   -6.1615    2.9546 H   0  0  0  0  0  0  0  0  0  0  0  0
    5.1517   -6.3352    1.6126 H   0  0  0  0  0  0  0  0  0  0  0  0
    3.4796   -6.0354    1.3425 H   0  0  0  0  0  0  0  0  0  0  0  0
    5.8349   -5.1828    3.6872 H   0  0  0  0  0  0  0  0  0  0  0  0
    6.1081   -3.5014    3.5297 H   0  0  0  0  0  0  0  0  0  0  0  0
    6.8487   -4.6388    2.4107 H   0  0  0  0  0  0  0  0  0  0  0  0
    1.4154   -4.2271   -0.5917 H   0  0  0  0  0  0  0  0  0  0  0  0
    1.8980   -4.7879    0.9059 H   0  0  0  0  0  0  0  0  0  0  0  0
    2.7742   -5.2218   -0.5596 H   0  0  0  0  0  0  0  0  0  0  0  0
    2.0494   -2.7129   -1.7306 H   0  0  0  0  0  0  0  0  0  0  0  0
  1  2  1  0
  1 29  1  0
  1 30  1  0
  1 31  1  0
  2 28  1  0
  2  3  1  0
  2  4  1  0
  3 32  1  0
  3 33  1  0
  3 34  1  0
  4 28  1  0
  4  5  1  0
  4 35  1  6
  5  6  1  0
  5 36  1  0
  5 37  1  0
  6  7  1  0
  6  8  1  0
  6 38  1  6
  7 39  1  0
  8 23  1  1
  8 26  1  0
  8  9  1  0
  9 10  1  0
  9 11  1  0
  9 40  1  1
 10 41  1  0
 11 12  1  0
 11 42  1  0
 11 43  1  0
 13 12  1  1
 12 44  1  0
 12 45  1  0
 13 18  1  0
 13 22  1  0
 13 14  1  0
 14 15  2  0
 14 16  1  0
 16 17  1  0
 17 18  1  0
 17 26  1  0
 17 46  1  6
 18 19  1  0
 18 47  1  6
 19 20  1  0
 19 48  1  0
 19 49  1  0
 20 21  1  0
 20 22  1  0
 20 50  1  1
 21 51  1  0
 22 23  1  0
 22 52  1  6
 23 24  1  0
 23 25  1  0
 24 53  1  0
 24 54  1  0
 24 55  1  0
 25 56  1  0
 25 57  1  0
 25 58  1  0
 26 27  1  6
 26 28  1  0
 27 59  1  0
 27 60  1  0
 27 61  1  0
 28 62  1  6
M  END
>  <i_m_ct_stereo_status>  (49) 
1

>  <s_m_source_file>  (49) 
/var/tmp/pbs.5076255.sched01/tmp9s019jnz/08u7fdliu.sdf

>  <i_m_source_file_index>  (49) 
20

>  <i_lp_mmshare_version>  (49) 
48012

>  <i_f3d_flags>  (49) 
0

>  <s_epik_input>  (49) 
W09IXVtDQEBIXTFbQ0gyXVtDQEhdKEMyKFtDSDNdKVtDSDNdKVtDQEhdMltDQF0oW0NAQF0xMzQpKFtDSDNdKVtDQEhdNVtDQEBIXTZDKEMoPU8pTzUpKFtDQEhdKFtDQEBIXShbQ0gyXTYpW09IXSlDNChbQ0gzXSlbQ0gzXSlbQ0gyXVtDSDJdW0NAQEhdM1tPSF0=

>  <s_epik_cmdline>  (49) 
J2VwaWtfcHl0aG9uJywgJy1waHQnLCAnMi4wJywgJy1waCcsICc3LjAnLCAnLXRuJywgJzgnLCAnLW1hJywgJzIwMCcsICctaW1hZScsICc8aW5maWxlLm1hZT4nLCAnLW9tYWUnLCAnPG91dGZpbGUubWFlPic=

>  <r_lp_tautomer_probability>  (49) 
1

>  <r_epik_Ionization_Penalty>  (49) 
8.99622e-07

>  <r_epik_Ionization_Penalty_Charging>  (49) 
0

>  <r_epik_Ionization_Penalty_Neutral>  (49) 
8.99622e-07

>  <r_epik_State_Penalty>  (49) 
-0

>  <r_epik_Charging_Adjusted_Penalty>  (49) 
0

>  <i_epik_Tot_Q>  (49) 
0

>  <i_epik_Tot_abs_Q>  (49) 
0

>  <s_epik_Chemistry_Notes>  (49) 
This compound has an ester and may undergo hydrolysis at high or low pH.

>  <s_lp_Force_Field>  (49) 
OPLS3e

>  <r_lp_Energy>  (49) 
290.254

>  <b_lp_Chiralities_Consistent>  (49) 
1

>  <s_lp_Variant>  (49) 
12:0-1

>  <s_i_glide_gridfile>  (49) 
pfpi4k_grid

>  <i_i_glide_lignum>  (49) 
20

>  <i_i_glide_rotatable_bonds>  (49) 
3

>  <r_i_docking_score>  (49) 
-1.59699

>  <r_i_glide_ligand_efficiency>  (49) 
-0.0570354

>  <r_i_glide_ligand_efficiency_sa>  (49) 
-0.173193

>  <r_i_glide_ligand_efficiency_ln>  (49) 
-0.368632

>  <r_i_glide_gscore>  (49) 
-1.59699

>  <r_i_glide_lipo>  (49) 
-0.665682

>  <r_i_glide_hbond>  (49) 
-0.0100494

>  <r_i_glide_metal>  (49) 
-0

>  <r_i_glide_rewards>  (49) 
-0.746502

>  <r_i_glide_evdw>  (49) 
1.02947

>  <r_i_glide_ecoul>  (49) 
-1.44633

>  <r_i_glide_erotb>  (49) 
0

>  <r_i_glide_esite>  (49) 
-0.00928285

>  <r_i_glide_emodel>  (49) 
-1.02901

>  <r_i_glide_energy>  (49) 
-0.416855

>  <r_i_glide_einternal>  (49) 
2.23593

>  <r_i_glide_intrahb_reward>  (49) 
-0

>  <i_i_glide_confnum>  (49) 
1

>  <i_i_glide_posenum>  (49) 
1

>  <r_i_glide_eff_state_penalty>  (49) 
0

>  <ligand_id>  (49) 
12

>  <original_smiles>  (49) 
CC1(C)C2CC(O)C34C(O)CCC56C(=O)OC(C5CC(O)C6C3(C)C)C4(C)C21

>  <smiles>  (49) 
[H]OC1([H])C([H])([H])C2([H])C3([H])OC(=O)C24C([H])([H])C([H])([H])C([H])(O[H])C2(C([H])(O[H])C([H])([H])C5([H])C([H])(C5(C([H])([H])[H])C([H])([H])[H])C32C([H])([H])[H])C(C([H])([H])[H])(C([H])([H])[H])C14[H]

$$$$
14:0:0
     RDKit          3D

105113  0  0  1  0  0  0  0  0999 V2000
    4.6961   -1.7632   -2.2417 C   0  0  0  0  0  0  0  0  0  0  0  0
    4.9036   -2.2407   -0.8201 C   0  0  0  0  0  0  0  0  0  0  0  0
    4.0372   -2.5571    0.1411 C   0  0  0  0  0  0  0  0  0  0  0  0
    4.6675   -2.8182    1.5263 C   0  0  1  0  0  0  0  0  0  0  0  0
    4.5289   -1.7698    2.4818 O   0  0  0  0  0  0  0  0  0  0  0  0
    3.3068   -1.1379    2.8318 C   0  0  1  0  0  0  0  0  0  0  0  0
    2.9717   -0.1254    1.6969 C   0  0  0  0  0  0  0  0  0  0  0  0
    2.0712   -1.9673    3.2537 C   0  0  2  0  0  0  0  0  0  0  0  0
    1.3045   -1.0278    4.0243 O   0  0  0  0  0  0  0  0  0  0  0  0
    2.1513   -0.0743    4.5852 C   0  0  1  0  0  0  0  0  0  0  0  0
    1.9863    0.1428    5.9624 O   0  0  0  0  0  0  0  0  0  0  0  0
    0.7138    0.6773    6.4098 C   0  0  2  0  0  0  0  0  0  0  0  0
    0.3435    2.0594    5.6137 C   0  0  1  0  0  0  0  0  0  0  0  0
   -0.4392    1.8636    4.4472 O   0  0  0  0  0  0  0  0  0  0  0  0
   -0.3389    2.8583    6.7141 C   0  0  1  0  0  0  0  0  0  0  0  0
   -1.6093    1.7897    6.8315 C   0  0  0  0  0  0  0  0  0  0  0  0
   -2.0481    1.3917    8.0745 O   0  0  0  0  0  0  0  0  0  0  0  0
   -1.3885    2.1503    8.9463 C   0  0  1  0  0  0  0  0  0  0  0  0
   -0.0256    1.7000    8.9897 O   0  0  0  0  0  0  0  0  0  0  0  0
    0.7027    0.7429    8.0773 C   0  0  1  0  0  0  0  0  0  0  0  0
    0.4812   -0.6429    8.6932 C   0  0  0  0  0  0  0  0  0  0  0  0
    2.0678    1.2714    8.4550 C   0  0  0  0  0  0  0  0  0  0  0  0
    2.3358    2.5123    7.6205 C   0  0  0  0  0  0  0  0  0  0  0  0
    1.0796    3.4437    7.4409 C   0  0  2  0  0  0  0  0  0  0  0  0
    1.2430    4.5035    8.6344 C   0  0  1  0  0  0  0  0  0  0  0  0
    2.4153    5.4993    8.3680 C   0  0  0  0  0  0  0  0  0  0  0  0
    0.0979    5.4267    9.0935 C   0  0  0  0  0  0  0  0  0  0  0  0
   -1.1171    4.6527    9.5546 C   0  0  0  0  0  0  0  0  0  0  0  0
   -1.6612    3.7065    8.4749 C   0  0  2  0  0  0  0  0  0  0  0  0
   -3.0468    3.9785    8.5489 O   0  0  0  0  0  0  0  0  0  0  0  0
   -1.2320    4.0393    6.9476 C   0  0  0  0  0  0  0  0  0  0  0  0
    3.5912   -0.4858    4.2069 C   0  0  2  0  0  0  0  0  0  0  0  0
    4.4854    0.7631    4.1186 C   0  0  0  0  0  0  0  0  0  0  0  0
    4.1920   -1.5703    5.1683 C   0  0  1  0  0  0  0  0  0  0  0  0
    4.7956   -1.0598    6.4919 C   0  0  0  0  0  0  0  0  0  0  0  0
    3.2233   -2.7299    5.4507 C   0  0  0  0  0  0  0  0  0  0  0  0
    2.2998   -3.1124    4.2722 C   0  0  2  0  0  0  0  0  0  0  0  0
    2.4240   -4.5748    3.7425 C   0  0  1  0  0  0  0  0  0  0  0  0
    1.1688   -5.2234    3.7877 O   0  0  0  0  0  0  0  0  0  0  0  0
    3.0747   -4.8637    2.3692 C   0  0  1  0  0  0  0  0  0  0  0  0
    2.2253   -4.5963    1.2857 O   0  0  0  0  0  0  0  0  0  0  0  0
    4.4669   -4.2136    2.1640 C   0  0  1  0  0  0  0  0  0  0  0  0
    5.5543   -5.1140    1.5536 C   0  0  0  0  0  0  0  0  0  0  0  0
    6.1079   -6.1576    2.5472 C   0  0  0  0  0  0  0  0  0  0  0  0
    5.1226   -5.7881    0.2530 C   0  0  0  0  0  0  0  0  0  0  0  0
    6.6280   -4.2125    1.2961 O   0  0  0  0  0  0  0  0  0  0  0  0
    6.1755   -2.8614    1.1821 C   0  0  1  0  0  0  0  0  0  0  0  0
    6.2474   -2.4221   -0.2729 C   0  0  0  0  0  0  0  0  0  0  0  0
    7.3233   -2.2682   -0.8498 O   0  0  0  0  0  0  0  0  0  0  0  0
    5.2062   -2.4101   -2.9526 H   0  0  0  0  0  0  0  0  0  0  0  0
    5.1166   -0.7679   -2.3444 H   0  0  0  0  0  0  0  0  0  0  0  0
    3.6401   -1.7023   -2.5104 H   0  0  0  0  0  0  0  0  0  0  0  0
    2.9593   -2.4599   -0.0184 H   0  0  0  0  0  0  0  0  0  0  0  0
    2.3620    0.7244    2.0018 H   0  0  0  0  0  0  0  0  0  0  0  0
    2.3905   -0.5898    0.9063 H   0  0  0  0  0  0  0  0  0  0  0  0
    3.8738    0.2791    1.2436 H   0  0  0  0  0  0  0  0  0  0  0  0
    1.4847   -2.3105    2.3968 H   0  0  0  0  0  0  0  0  0  0  0  0
    1.9692    0.8352    4.0367 H   0  0  0  0  0  0  0  0  0  0  0  0
    0.0407   -0.1319    6.1221 H   0  0  0  0  0  0  0  0  0  0  0  0
    1.2194    2.5906    5.2398 H   0  0  0  0  0  0  0  0  0  0  0  0
    0.0870    1.4515    3.7734 H   0  0  0  0  0  0  0  0  0  0  0  0
   -2.5127    2.1884    6.3756 H   0  0  0  0  0  0  0  0  0  0  0  0
   -1.6641    0.8994    6.2240 H   0  0  0  0  0  0  0  0  0  0  0  0
   -1.7919    1.9837    9.9538 H   0  0  0  0  0  0  0  0  0  0  0  0
    1.1365   -1.3962    8.2492 H   0  0  0  0  0  0  0  0  0  0  0  0
   -0.5469   -0.9706    8.5415 H   0  0  0  0  0  0  0  0  0  0  0  0
    0.6612   -0.6338    9.7715 H   0  0  0  0  0  0  0  0  0  0  0  0
    2.1311    1.4974    9.5215 H   0  0  0  0  0  0  0  0  0  0  0  0
    2.8362    0.5354    8.2926 H   0  0  0  0  0  0  0  0  0  0  0  0
    3.1733    3.0060    8.1180 H   0  0  0  0  0  0  0  0  0  0  0  0
    2.7803    2.2546    6.6718 H   0  0  0  0  0  0  0  0  0  0  0  0
    1.4181    4.1153    6.6500 H   0  0  0  0  0  0  0  0  0  0  0  0
    1.5074    3.9345    9.5264 H   0  0  0  0  0  0  0  0  0  0  0  0
    2.1659    6.2027    7.5619 H   0  0  0  0  0  0  0  0  0  0  0  0
    3.3614    5.0389    8.0899 H   0  0  0  0  0  0  0  0  0  0  0  0
    2.6293    6.1025    9.2536 H   0  0  0  0  0  0  0  0  0  0  0  0
    0.4452    5.9992    9.9557 H   0  0  0  0  0  0  0  0  0  0  0  0
   -0.1532    6.1892    8.3579 H   0  0  0  0  0  0  0  0  0  0  0  0
   -0.9049    4.1192   10.4914 H   0  0  0  0  0  0  0  0  0  0  0  0
   -1.8492    5.4226    9.8301 H   0  0  0  0  0  0  0  0  0  0  0  0
   -3.3423    3.7615    9.4280 H   0  0  0  0  0  0  0  0  0  0  0  0
   -0.7377    4.9867    6.7777 H   0  0  0  0  0  0  0  0  0  0  0  0
   -2.0810    4.1139    6.2770 H   0  0  0  0  0  0  0  0  0  0  0  0
    4.5658    1.2893    5.0708 H   0  0  0  0  0  0  0  0  0  0  0  0
    4.0735    1.4868    3.4158 H   0  0  0  0  0  0  0  0  0  0  0  0
    5.4866    0.5047    3.7726 H   0  0  0  0  0  0  0  0  0  0  0  0
    5.0756   -1.9911    4.6918 H   0  0  0  0  0  0  0  0  0  0  0  0
    4.0049   -0.7186    7.1420 H   0  0  0  0  0  0  0  0  0  0  0  0
    5.5253   -0.2551    6.3757 H   0  0  0  0  0  0  0  0  0  0  0  0
    5.2881   -1.8731    7.0323 H   0  0  0  0  0  0  0  0  0  0  0  0
    3.8420   -3.5763    5.7370 H   0  0  0  0  0  0  0  0  0  0  0  0
    2.6262   -2.4981    6.3275 H   0  0  0  0  0  0  0  0  0  0  0  0
    1.3369   -3.1561    4.7832 H   0  0  0  0  0  0  0  0  0  0  0  0
    3.0080   -5.1118    4.4797 H   0  0  0  0  0  0  0  0  0  0  0  0
    1.3148   -6.1570    3.7220 H   0  0  0  0  0  0  0  0  0  0  0  0
    3.2122   -5.9401    2.3529 H   0  0  0  0  0  0  0  0  0  0  0  0
    2.1723   -3.6569    1.1981 H   0  0  0  0  0  0  0  0  0  0  0  0
    4.8326   -4.0620    3.1803 H   0  0  0  0  0  0  0  0  0  0  0  0
    5.3571   -6.8923    2.8358 H   0  0  0  0  0  0  0  0  0  0  0  0
    6.4855   -5.6938    3.4593 H   0  0  0  0  0  0  0  0  0  0  0  0
    6.9445   -6.7077    2.1046 H   0  0  0  0  0  0  0  0  0  0  0  0
    4.3730   -6.5643    0.4108 H   0  0  0  0  0  0  0  0  0  0  0  0
    5.9871   -6.2511   -0.2182 H   0  0  0  0  0  0  0  0  0  0  0  0
    4.7132   -5.0853   -0.4766 H   0  0  0  0  0  0  0  0  0  0  0  0
    6.7562   -2.2041    1.8155 H   0  0  0  0  0  0  0  0  0  0  0  0
  1  2  1  0
  1 50  1  0
  1 51  1  0
  1 52  1  0
  2 48  1  0
  2  3  2  0
  3  4  1  0
  3 53  1  0
  4 42  1  0
  4 47  1  0
  4  5  1  1
  5  6  1  0
  6 32  1  0
  6  7  1  6
  6  8  1  0
  7 54  1  0
  7 55  1  0
  7 56  1  0
  8 37  1  0
  8  9  1  0
  8 57  1  6
  9 10  1  0
 10 11  1  0
 10 32  1  0
 10 58  1  6
 11 12  1  0
 12 20  1  0
 12 13  1  0
 12 59  1  1
 13 14  1  0
 13 15  1  0
 13 60  1  6
 14 61  1  0
 15 24  1  0
 15 31  1  0
 15 16  1  1
 16 17  1  0
 16 62  1  0
 16 63  1  0
 17 18  1  0
 18 29  1  0
 18 19  1  0
 18 64  1  1
 19 20  1  0
 20 21  1  1
 20 22  1  0
 21 65  1  0
 21 66  1  0
 21 67  1  0
 22 23  1  0
 22 68  1  0
 22 69  1  0
 23 24  1  0
 23 70  1  0
 23 71  1  0
 24 25  1  0
 24 72  1  6
 25 26  1  0
 25 27  1  0
 25 73  1  1
 26 74  1  0
 26 75  1  0
 26 76  1  0
 27 28  1  0
 27 77  1  0
 27 78  1  0
 28 29  1  0
 28 79  1  0
 28 80  1  0
 29 30  1  6
 29 31  1  0
 30 81  1  0
 31 82  1  0
 31 83  1  0
 32 33  1  6
 32 34  1  0
 33 84  1  0
 33 85  1  0
 33 86  1  0
 34 35  1  0
 34 36  1  0
 34 87  1  6
 35 88  1  0
 35 89  1  0
 35 90  1  0
 36 37  1  0
 36 91  1  0
 36 92  1  0
 37 38  1  0
 37 93  1  1
 38 39  1  0
 38 40  1  0
 38 94  1  1
 39 95  1  0
 40 41  1  0
 40 42  1  0
 40 96  1  1
 41 97  1  0
 42 43  1  0
 42 98  1  1
 43 44  1  0
 43 45  1  0
 43 46  1  0
 44 99  1  0
 44100  1  0
 44101  1  0
 45102  1  0
 45103  1  0
 45104  1  0
 46 47  1  0
 47 48  1  0
 47105  1  1
 48 49  2  0
M  END
>  <i_m_ct_stereo_status>  (50) 
1

>  <s_m_source_file>  (50) 
/var/tmp/pbs.5076255.sched01/tmp9s019jnz/08u7fdliu.sdf

>  <i_m_source_file_index>  (50) 
22

>  <i_lp_mmshare_version>  (50) 
48012

>  <i_f3d_flags>  (50) 
0

>  <s_epik_input>  (50) 
W0NIM11DKD1bQ0hdMSlDKD1PKVtDQEBIXTJPQyhbQ0gzXSkoW0NIM10pW0NAQEhdKFtDQF0xMjMpW0NASF0oW09IXSlbQ0BIXShbT0hdKVtDQEBIXTRbQ0BASF01W0NAQF0oTzMpKFtDSDNdKVtDQF0oW0NIM10pKFtDQEBIXShbQ0gzXSlbQ0gyXTQpW0NAQEhdKE81KU9bQ0BIXShbQ0BIXTZbT0hdKVtDQEBdKFtDSDNdKShbQ0gyXVtDSDJdW0NASF03QzY4OSlPW0NASF0oT1tDSDJdOClbQ0BdKFtPSF0pKFtDSDJdOSlbQ0gyXVtDSDJdW0NAQEhdN1tDSDNd

>  <s_epik_cmdline>  (50) 
J2VwaWtfcHl0aG9uJywgJy1waHQnLCAnMi4wJywgJy1waCcsICc3LjAnLCAnLXRuJywgJzgnLCAnLW1hJywgJzIwMCcsICctaW1hZScsICc8aW5maWxlLm1hZT4nLCAnLW9tYWUnLCAnPG91dGZpbGUubWFlPic=

>  <r_lp_tautomer_probability>  (50) 
1

>  <r_epik_Ionization_Penalty>  (50) 
3.0406e-07

>  <r_epik_Ionization_Penalty_Charging>  (50) 
0

>  <r_epik_Ionization_Penalty_Neutral>  (50) 
3.0406e-07

>  <r_epik_State_Penalty>  (50) 
-0

>  <r_epik_Charging_Adjusted_Penalty>  (50) 
0

>  <i_epik_Tot_Q>  (50) 
0

>  <i_epik_Tot_abs_Q>  (50) 
0

>  <s_epik_Chemistry_Notes>  (50) 
This compound contains an acetal/aminal-like group ( X-CH(R)-Y where X, Y are N, S, or O) that may be acid/base labile, releasing an aldehyde.

>  <s_lp_Force_Field>  (50) 
OPLS3e

>  <r_lp_Energy>  (50) 
279.917

>  <b_lp_Chiralities_Consistent>  (50) 
1

>  <s_lp_Variant>  (50) 
14:0-1

>  <s_i_glide_gridfile>  (50) 
pfpi4k_grid

>  <i_i_glide_lignum>  (50) 
22

>  <i_i_glide_rotatable_bonds>  (50) 
6

>  <r_i_docking_score>  (50) 
-3.18886

>  <r_i_glide_ligand_efficiency>  (50) 
-0.0650788

>  <r_i_glide_ligand_efficiency_sa>  (50) 
-0.238143

>  <r_i_glide_ligand_efficiency_ln>  (50) 
-0.651876

>  <r_i_glide_gscore>  (50) 
-3.18886

>  <r_i_glide_lipo>  (50) 
-0.33792

>  <r_i_glide_hbond>  (50) 
-0.254974

>  <r_i_glide_metal>  (50) 
-0

>  <r_i_glide_rewards>  (50) 
0

>  <r_i_glide_evdw>  (50) 
-35.0641

>  <r_i_glide_ecoul>  (50) 
-5.95162

>  <r_i_glide_erotb>  (50) 
0.0901744

>  <r_i_glide_esite>  (50) 
-0.0401939

>  <r_i_glide_emodel>  (50) 
-48.1182

>  <r_i_glide_energy>  (50) 
-41.0157

>  <r_i_glide_einternal>  (50) 
2.84838

>  <r_i_glide_intrahb_reward>  (50) 
-0

>  <i_i_glide_confnum>  (50) 
1

>  <i_i_glide_posenum>  (50) 
40

>  <r_i_glide_eff_state_penalty>  (50) 
0

>  <ligand_id>  (50) 
14

>  <original_smiles>  (50) 
CC1=CC23OC4(C)C5OC(OC6C(O)C78COC9OC6(C)CCC7C(C)CCC9(O)C8)C4(C)C(C)CC5C(O)C(O)C2C(C)(C)OC3C1=O

>  <smiles>  (50) 
[H]OC1([H])C([H])(O[H])C2([H])C3(OC4(C([H])([H])[H])C5([H])OC([H])(OC6([H])C([H])(O[H])C78C([H])([H])OC9([H])OC6(C([H])([H])[H])C([H])([H])C([H])([H])C7([H])C([H])(C([H])([H])[H])C([H])([H])C([H])([H])C9(O[H])C8([H])[H])C4(C([H])([H])[H])C([H])(C([H])([H])[H])C([H])([H])C15[H])C([H])=C(C([H])([H])[H])C(=O)C3([H])OC2(C([H])([H])[H])C([H])([H])[H]

$$$$
14:0:1
     RDKit          3D

105113  0  0  1  0  0  0  0  0999 V2000
    4.6457   -1.8270   -2.1827 C   0  0  0  0  0  0  0  0  0  0  0  0
    4.8738   -2.2656   -0.7498 C   0  0  0  0  0  0  0  0  0  0  0  0
    3.9923   -2.5577    0.2179 C   0  0  0  0  0  0  0  0  0  0  0  0
    4.6313   -2.8016    1.6007 C   0  0  1  0  0  0  0  0  0  0  0  0
    4.4932   -1.7384    2.5194 O   0  0  0  0  0  0  0  0  0  0  0  0
    3.2708   -1.0974    2.8820 C   0  0  1  0  0  0  0  0  0  0  0  0
    2.9152   -0.1154    1.7241 C   0  0  0  0  0  0  0  0  0  0  0  0
    2.0464   -1.9390    3.3249 C   0  0  2  0  0  0  0  0  0  0  0  0
    1.2794   -0.9861    4.0688 O   0  0  0  0  0  0  0  0  0  0  0  0
    2.1080   -0.0030    4.6129 C   0  0  1  0  0  0  0  0  0  0  0  0
    1.9427    0.2068    5.9904 O   0  0  0  0  0  0  0  0  0  0  0  0
    0.6624    0.7322    6.4335 C   0  0  2  0  0  0  0  0  0  0  0  0
    0.2804    2.0986    5.6245 C   0  0  1  0  0  0  0  0  0  0  0  0
   -0.4941    1.8936    4.4456 O   0  0  0  0  0  0  0  0  0  0  0  0
   -0.4283    2.8970    6.7170 C   0  0  1  0  0  0  0  0  0  0  0  0
   -1.6876    1.7995    6.8335 C   0  0  0  0  0  0  0  0  0  0  0  0
   -2.1138    1.3656    8.0768 O   0  0  0  0  0  0  0  0  0  0  0  0
   -1.4912    2.1636    8.9501 C   0  0  1  0  0  0  0  0  0  0  0  0
   -0.1163    1.7469    9.0051 O   0  0  0  0  0  0  0  0  0  0  0  0
    0.6398    0.8034    8.1009 C   0  0  1  0  0  0  0  0  0  0  0  0
    0.4403   -0.5858    8.7133 C   0  0  0  0  0  0  0  0  0  0  0  0
    1.9967    1.3558    8.4855 C   0  0  0  0  0  0  0  0  0  0  0  0
    2.2381    2.6107    7.6541 C   0  0  0  0  0  0  0  0  0  0  0  0
    0.9686    3.5194    7.4645 C   0  0  2  0  0  0  0  0  0  0  0  0
    1.0932    4.5857    8.6576 C   0  0  1  0  0  0  0  0  0  0  0  0
    2.2424    5.6038    8.3988 C   0  0  0  0  0  0  0  0  0  0  0  0
   -0.0779    5.4744    9.1069 C   0  0  0  0  0  0  0  0  0  0  0  0
   -1.2795    4.6789    9.5644 C   0  0  0  0  0  0  0  0  0  0  0  0
   -1.7933    3.7202    8.4786 C   0  0  2  0  0  0  0  0  0  0  0  0
   -3.1927    3.9410    8.5525 O   0  0  0  0  0  0  0  0  0  0  0  0
   -1.3604    4.0563    6.9587 C   0  0  0  0  0  0  0  0  0  0  0  0
    3.5562   -0.4034    4.2441 C   0  0  2  0  0  0  0  0  0  0  0  0
    4.4298    0.8489    4.1226 C   0  0  0  0  0  0  0  0  0  0  0  0
    4.1791   -1.4585    5.2291 C   0  0  1  0  0  0  0  0  0  0  0  0
    4.7755   -0.9098    6.5463 C   0  0  0  0  0  0  0  0  0  0  0  0
    3.2314   -2.6319    5.5291 C   0  0  0  0  0  0  0  0  0  0  0  0
    2.2922   -3.0532    4.3743 C   0  0  2  0  0  0  0  0  0  0  0  0
    2.4357   -4.5244    3.8818 C   0  0  1  0  0  0  0  0  0  0  0  0
    1.1926   -5.2052    3.9560 O   0  0  0  0  0  0  0  0  0  0  0  0
    3.0871   -4.8313    2.5056 C   0  0  1  0  0  0  0  0  0  0  0  0
    2.2152   -4.6106    1.4156 O   0  0  0  0  0  0  0  0  0  0  0  0
    4.4673   -4.1812    2.2893 C   0  0  1  0  0  0  0  0  0  0  0  0
    5.5615   -5.0775    1.6878 C   0  0  0  0  0  0  0  0  0  0  0  0
    6.1344   -6.0928    2.6978 C   0  0  0  0  0  0  0  0  0  0  0  0
    5.1377   -5.7877    0.3945 C   0  0  0  0  0  0  0  0  0  0  0  0
    6.6138   -4.1657    1.3983 O   0  0  0  0  0  0  0  0  0  0  0  0
    6.1400   -2.8316    1.2541 C   0  0  1  0  0  0  0  0  0  0  0  0
    6.2115   -2.4081   -0.2144 C   0  0  0  0  0  0  0  0  0  0  0  0
    7.2788   -2.2471   -0.8087 O   0  0  0  0  0  0  0  0  0  0  0  0
    5.1572   -2.4818   -2.8848 H   0  0  0  0  0  0  0  0  0  0  0  0
    5.0523   -0.8290   -2.3193 H   0  0  0  0  0  0  0  0  0  0  0  0
    3.5890   -1.7825   -2.4540 H   0  0  0  0  0  0  0  0  0  0  0  0
    2.9240   -2.5035    0.0805 H   0  0  0  0  0  0  0  0  0  0  0  0
    2.3022    0.7282    2.0209 H   0  0  0  0  0  0  0  0  0  0  0  0
    2.3352   -0.6103    0.9488 H   0  0  0  0  0  0  0  0  0  0  0  0
    3.8134    0.2855    1.2551 H   0  0  0  0  0  0  0  0  0  0  0  0
    1.4684   -2.3119    2.4790 H   0  0  0  0  0  0  0  0  0  0  0  0
    1.8941    0.9170    4.0845 H   0  0  0  0  0  0  0  0  0  0  0  0
    0.0064   -0.0860    6.1493 H   0  0  0  0  0  0  0  0  0  0  0  0
    1.1558    2.6244    5.2502 H   0  0  0  0  0  0  0  0  0  0  0  0
    0.0449    1.4983    3.7841 H   0  0  0  0  0  0  0  0  0  0  0  0
   -2.6019    2.1847    6.3759 H   0  0  0  0  0  0  0  0  0  0  0  0
   -1.7210    0.9081    6.2136 H   0  0  0  0  0  0  0  0  0  0  0  0
   -1.8973    1.9801    9.9460 H   0  0  0  0  0  0  0  0  0  0  0  0
    1.1208   -1.3208    8.2807 H   0  0  0  0  0  0  0  0  0  0  0  0
   -0.5790   -0.9346    8.5570 H   0  0  0  0  0  0  0  0  0  0  0  0
    0.6172   -0.5734    9.7915 H   0  0  0  0  0  0  0  0  0  0  0  0
    2.0497    1.5887    9.5525 H   0  0  0  0  0  0  0  0  0  0  0  0
    2.7853    0.6414    8.3160 H   0  0  0  0  0  0  0  0  0  0  0  0
    3.0601    3.1268    8.1571 H   0  0  0  0  0  0  0  0  0  0  0  0
    2.6984    2.3637    6.7027 H   0  0  0  0  0  0  0  0  0  0  0  0
    1.2902    4.1882    6.6647 H   0  0  0  0  0  0  0  0  0  0  0  0
    1.3600    4.0191    9.5471 H   0  0  0  0  0  0  0  0  0  0  0  0
    1.9844    6.2987    7.5929 H   0  0  0  0  0  0  0  0  0  0  0  0
    3.1990    5.1639    8.1289 H   0  0  0  0  0  0  0  0  0  0  0  0
    2.4353    6.2096    9.2866 H   0  0  0  0  0  0  0  0  0  0  0  0
    0.2469    6.0551    9.9749 H   0  0  0  0  0  0  0  0  0  0  0  0
   -0.3427    6.2307    8.3742 H   0  0  0  0  0  0  0  0  0  0  0  0
   -1.0676    4.1503   10.4940 H   0  0  0  0  0  0  0  0  0  0  0  0
   -2.0338    5.4266    9.8268 H   0  0  0  0  0  0  0  0  0  0  0  0
   -3.4835    3.7335    9.4204 H   0  0  0  0  0  0  0  0  0  0  0  0
   -0.8840    5.0165    6.7904 H   0  0  0  0  0  0  0  0  0  0  0  0
   -2.2058    4.1241    6.2733 H   0  0  0  0  0  0  0  0  0  0  0  0
    4.5115    1.3956    5.0637 H   0  0  0  0  0  0  0  0  0  0  0  0
    4.0050    1.5535    3.4045 H   0  0  0  0  0  0  0  0  0  0  0  0
    5.4305    0.5884    3.7780 H   0  0  0  0  0  0  0  0  0  0  0  0
    5.0562   -1.8784    4.7507 H   0  0  0  0  0  0  0  0  0  0  0  0
    3.9835   -0.5550    7.1821 H   0  0  0  0  0  0  0  0  0  0  0  0
    5.5010   -0.1109    6.3924 H   0  0  0  0  0  0  0  0  0  0  0  0
    5.2801   -1.7144    7.0899 H   0  0  0  0  0  0  0  0  0  0  0  0
    3.8532   -3.4713    5.8458 H   0  0  0  0  0  0  0  0  0  0  0  0
    2.6314   -2.3886    6.4007 H   0  0  0  0  0  0  0  0  0  0  0  0
    1.3285   -3.0961    4.8946 H   0  0  0  0  0  0  0  0  0  0  0  0
    3.0339   -5.0452    4.6263 H   0  0  0  0  0  0  0  0  0  0  0  0
    1.3437   -6.1257    3.8964 H   0  0  0  0  0  0  0  0  0  0  0  0
    3.2397   -5.9114    2.5138 H   0  0  0  0  0  0  0  0  0  0  0  0
    2.6850   -4.7918    0.6268 H   0  0  0  0  0  0  0  0  0  0  0  0
    4.8418   -3.9869    3.3062 H   0  0  0  0  0  0  0  0  0  0  0  0
    5.3965   -6.8290    3.0076 H   0  0  0  0  0  0  0  0  0  0  0  0
    6.5117   -5.6036    3.5962 H   0  0  0  0  0  0  0  0  0  0  0  0
    6.9744   -6.6413    2.2619 H   0  0  0  0  0  0  0  0  0  0  0  0
    4.4079   -6.5749    0.5760 H   0  0  0  0  0  0  0  0  0  0  0  0
    6.0149   -6.2406   -0.0652 H   0  0  0  0  0  0  0  0  0  0  0  0
    4.7105   -5.1018   -0.3426 H   0  0  0  0  0  0  0  0  0  0  0  0
    6.7193   -2.1525    1.8703 H   0  0  0  0  0  0  0  0  0  0  0  0
  1  2  1  0
  1 50  1  0
  1 51  1  0
  1 52  1  0
  2 48  1  0
  2  3  2  0
  3  4  1  0
  3 53  1  0
  4 42  1  0
  4 47  1  0
  4  5  1  1
  5  6  1  0
  6 32  1  0
  6  7  1  6
  6  8  1  0
  7 54  1  0
  7 55  1  0
  7 56  1  0
  8 37  1  0
  8  9  1  0
  8 57  1  6
  9 10  1  0
 10 11  1  0
 10 32  1  0
 10 58  1  6
 11 12  1  0
 12 20  1  0
 12 13  1  0
 12 59  1  6
 13 14  1  0
 13 15  1  0
 13 60  1  6
 14 61  1  0
 15 24  1  0
 15 31  1  0
 15 16  1  1
 16 17  1  0
 16 62  1  0
 16 63  1  0
 17 18  1  0
 18 29  1  0
 18 19  1  0
 18 64  1  1
 19 20  1  0
 20 21  1  1
 20 22  1  0
 21 65  1  0
 21 66  1  0
 21 67  1  0
 22 23  1  0
 22 68  1  0
 22 69  1  0
 23 24  1  0
 23 70  1  0
 23 71  1  0
 24 25  1  0
 24 72  1  6
 25 26  1  0
 25 27  1  0
 25 73  1  1
 26 74  1  0
 26 75  1  0
 26 76  1  0
 27 28  1  0
 27 77  1  0
 27 78  1  0
 28 29  1  0
 28 79  1  0
 28 80  1  0
 29 30  1  6
 29 31  1  0
 30 81  1  0
 31 82  1  0
 31 83  1  0
 32 33  1  6
 32 34  1  0
 33 84  1  0
 33 85  1  0
 33 86  1  0
 34 35  1  0
 34 36  1  0
 34 87  1  6
 35 88  1  0
 35 89  1  0
 35 90  1  0
 36 37  1  0
 36 91  1  0
 36 92  1  0
 37 38  1  0
 37 93  1  1
 38 39  1  0
 38 40  1  0
 38 94  1  1
 39 95  1  0
 40 41  1  0
 40 42  1  0
 40 96  1  1
 41 97  1  0
 42 43  1  0
 42 98  1  1
 43 44  1  0
 43 45  1  0
 43 46  1  0
 44 99  1  0
 44100  1  0
 44101  1  0
 45102  1  0
 45103  1  0
 45104  1  0
 46 47  1  0
 47 48  1  0
 47105  1  1
 48 49  2  0
M  END
>  <i_m_ct_stereo_status>  (51) 
1

>  <s_m_source_file>  (51) 
/var/tmp/pbs.5076255.sched01/tmp9s019jnz/08u7fdliu.sdf

>  <i_m_source_file_index>  (51) 
22

>  <i_lp_mmshare_version>  (51) 
48012

>  <i_f3d_flags>  (51) 
0

>  <s_epik_input>  (51) 
W0NIM11DKD1bQ0hdMSlDKD1PKVtDQEBIXTJPQyhbQ0gzXSkoW0NIM10pW0NAQEhdKFtDQF0xMjMpW0NASF0oW09IXSlbQ0BIXShbT0hdKVtDQEBIXTRbQ0BASF01W0NAQF0oTzMpKFtDSDNdKVtDQF0oW0NIM10pKFtDQEBIXShbQ0gzXSlbQ0gyXTQpW0NAQEhdKE81KU9bQ0BIXShbQ0BIXTZbT0hdKVtDQEBdKFtDSDNdKShbQ0gyXVtDSDJdW0NASF03QzY4OSlPW0NASF0oT1tDSDJdOClbQ0BdKFtPSF0pKFtDSDJdOSlbQ0gyXVtDSDJdW0NAQEhdN1tDSDNd

>  <s_epik_cmdline>  (51) 
J2VwaWtfcHl0aG9uJywgJy1waHQnLCAnMi4wJywgJy1waCcsICc3LjAnLCAnLXRuJywgJzgnLCAnLW1hJywgJzIwMCcsICctaW1hZScsICc8aW5maWxlLm1hZT4nLCAnLW9tYWUnLCAnPG91dGZpbGUubWFlPic=

>  <r_lp_tautomer_probability>  (51) 
1

>  <r_epik_Ionization_Penalty>  (51) 
3.0406e-07

>  <r_epik_Ionization_Penalty_Charging>  (51) 
0

>  <r_epik_Ionization_Penalty_Neutral>  (51) 
3.0406e-07

>  <r_epik_State_Penalty>  (51) 
-0

>  <r_epik_Charging_Adjusted_Penalty>  (51) 
0

>  <i_epik_Tot_Q>  (51) 
0

>  <i_epik_Tot_abs_Q>  (51) 
0

>  <s_epik_Chemistry_Notes>  (51) 
This compound contains an acetal/aminal-like group ( X-CH(R)-Y where X, Y are N, S, or O) that may be acid/base labile, releasing an aldehyde.

>  <s_lp_Force_Field>  (51) 
OPLS3e

>  <r_lp_Energy>  (51) 
279.917

>  <b_lp_Chiralities_Consistent>  (51) 
1

>  <s_lp_Variant>  (51) 
14:0-1

>  <s_i_glide_gridfile>  (51) 
pfpi4k_grid

>  <i_i_glide_lignum>  (51) 
22

>  <i_i_glide_rotatable_bonds>  (51) 
6

>  <r_i_docking_score>  (51) 
-3.04728

>  <r_i_glide_ligand_efficiency>  (51) 
-0.0621893

>  <r_i_glide_ligand_efficiency_sa>  (51) 
-0.22757

>  <r_i_glide_ligand_efficiency_ln>  (51) 
-0.622933

>  <r_i_glide_gscore>  (51) 
-3.04728

>  <r_i_glide_lipo>  (51) 
-0.35184

>  <r_i_glide_hbond>  (51) 
-0.26457

>  <r_i_glide_metal>  (51) 
-0

>  <r_i_glide_rewards>  (51) 
0

>  <r_i_glide_evdw>  (51) 
-34.8114

>  <r_i_glide_ecoul>  (51) 
-4.93761

>  <r_i_glide_erotb>  (51) 
0.0901744

>  <r_i_glide_esite>  (51) 
-0.0398291

>  <r_i_glide_emodel>  (51) 
-46.6721

>  <r_i_glide_energy>  (51) 
-39.749

>  <r_i_glide_einternal>  (51) 
2.71286

>  <r_i_glide_intrahb_reward>  (51) 
-0

>  <i_i_glide_confnum>  (51) 
1

>  <i_i_glide_posenum>  (51) 
34

>  <r_i_glide_eff_state_penalty>  (51) 
0

>  <ligand_id>  (51) 
14

>  <original_smiles>  (51) 
CC1=CC23OC4(C)C5OC(OC6C(O)C78COC9OC6(C)CCC7C(C)CCC9(O)C8)C4(C)C(C)CC5C(O)C(O)C2C(C)(C)OC3C1=O

>  <smiles>  (51) 
[H]OC1([H])C([H])(O[H])C2([H])C3(OC4(C([H])([H])[H])C5([H])OC([H])(OC6([H])C([H])(O[H])C78C([H])([H])OC9([H])OC6(C([H])([H])[H])C([H])([H])C([H])([H])C7([H])C([H])(C([H])([H])[H])C([H])([H])C([H])([H])C9(O[H])C8([H])[H])C4(C([H])([H])[H])C([H])(C([H])([H])[H])C([H])([H])C15[H])C([H])=C(C([H])([H])[H])C(=O)C3([H])OC2(C([H])([H])[H])C([H])([H])[H]

$$$$
14:0:2
     RDKit          3D

105113  0  0  1  0  0  0  0  0999 V2000
    4.7837   -1.5389   -2.1616 C   0  0  0  0  0  0  0  0  0  0  0  0
    5.0253   -2.2038   -0.8187 C   0  0  0  0  0  0  0  0  0  0  0  0
    4.1959   -2.4506    0.2072 C   0  0  0  0  0  0  0  0  0  0  0  0
    4.8935   -3.0072    1.4658 C   0  0  1  0  0  0  0  0  0  0  0  0
    5.0979   -2.0648    2.4976 O   0  0  0  0  0  0  0  0  0  0  0  0
    4.0432   -1.3001    3.0710 C   0  0  1  0  0  0  0  0  0  0  0  0
    3.7214   -0.1125    2.0836 C   0  0  0  0  0  0  0  0  0  0  0  0
    2.7498   -2.0365    3.4991 C   0  0  2  0  0  0  0  0  0  0  0  0
    2.2990   -1.1078    4.4210 O   0  0  0  0  0  0  0  0  0  0  0  0
    3.2984   -0.3894    5.0341 C   0  0  1  0  0  0  0  0  0  0  0  0
    3.1588   -0.3057    6.4400 O   0  0  0  0  0  0  0  0  0  0  0  0
    1.9479    0.3006    7.0118 C   0  0  2  0  0  0  0  0  0  0  0  0
    0.5437   -0.4257    6.5730 C   0  0  1  0  0  0  0  0  0  0  0  0
    0.2158   -1.6140    7.3008 O   0  0  0  0  0  0  0  0  0  0  0  0
   -0.4478    0.7522    6.6766 C   0  0  1  0  0  0  0  0  0  0  0  0
   -0.2908    0.8175    8.3406 C   0  0  0  0  0  0  0  0  0  0  0  0
   -0.0848    2.0277    8.9683 O   0  0  0  0  0  0  0  0  0  0  0  0
   -0.3091    2.9533    8.0232 C   0  0  1  0  0  0  0  0  0  0  0  0
    0.8254    2.9456    7.1507 O   0  0  0  0  0  0  0  0  0  0  0  0
    1.9770    1.9718    7.0698 C   0  0  1  0  0  0  0  0  0  0  0  0
    3.0385    2.4605    8.0626 C   0  0  0  0  0  0  0  0  0  0  0  0
    2.3152    2.4351    5.6690 C   0  0  0  0  0  0  0  0  0  0  0  0
    1.2907    1.7951    4.6915 C   0  0  0  0  0  0  0  0  0  0  0  0
   -0.1397    1.5560    5.2014 C   0  0  2  0  0  0  0  0  0  0  0  0
   -0.8420    2.7973    4.4952 C   0  0  1  0  0  0  0  0  0  0  0  0
   -0.9908    2.5655    2.9600 C   0  0  0  0  0  0  0  0  0  0  0  0
   -2.1851    3.3399    4.9487 C   0  0  0  0  0  0  0  0  0  0  0  0
   -2.1786    3.7111    6.3998 C   0  0  0  0  0  0  0  0  0  0  0  0
   -1.7801    2.6161    7.3577 C   0  0  2  0  0  0  0  0  0  0  0  0
   -2.7537    2.7376    8.3817 O   0  0  0  0  0  0  0  0  0  0  0  0
   -1.9118    1.1449    6.7566 C   0  0  0  0  0  0  0  0  0  0  0  0
    4.5999   -0.8678    4.4718 C   0  0  2  0  0  0  0  0  0  0  0  0
    5.6338    0.2879    4.3709 C   0  0  0  0  0  0  0  0  0  0  0  0
    5.0749   -2.0898    5.2912 C   0  0  1  0  0  0  0  0  0  0  0  0
    5.8160   -1.7709    6.6128 C   0  0  0  0  0  0  0  0  0  0  0  0
    3.9519   -3.1284    5.5310 C   0  0  0  0  0  0  0  0  0  0  0  0
    2.8296   -3.2385    4.4592 C   0  0  2  0  0  0  0  0  0  0  0  0
    2.6405   -4.6323    3.8208 C   0  0  1  0  0  0  0  0  0  0  0  0
    1.2955   -5.0639    3.9614 O   0  0  0  0  0  0  0  0  0  0  0  0
    3.1182   -4.8370    2.3629 C   0  0  1  0  0  0  0  0  0  0  0  0
    2.2374   -4.3003    1.4057 O   0  0  0  0  0  0  0  0  0  0  0  0
    4.5600   -4.4011    2.0579 C   0  0  1  0  0  0  0  0  0  0  0  0
    5.4118   -5.3928    1.2469 C   0  0  0  0  0  0  0  0  0  0  0  0
    5.8902   -6.6158    2.0620 C   0  0  0  0  0  0  0  0  0  0  0  0
    4.7357   -5.8341   -0.0569 C   0  0  0  0  0  0  0  0  0  0  0  0
    6.5768   -4.6465    0.9138 O   0  0  0  0  0  0  0  0  0  0  0  0
    6.3237   -3.2457    0.9556 C   0  0  1  0  0  0  0  0  0  0  0  0
    6.3503   -2.6513   -0.4476 C   0  0  0  0  0  0  0  0  0  0  0  0
    7.3702   -2.5669   -1.1321 O   0  0  0  0  0  0  0  0  0  0  0  0
    5.1105   -2.2049   -2.9620 H   0  0  0  0  0  0  0  0  0  0  0  0
    5.3616   -0.6122   -2.2541 H   0  0  0  0  0  0  0  0  0  0  0  0
    3.7276   -1.2998   -2.3100 H   0  0  0  0  0  0  0  0  0  0  0  0
    3.1461   -2.1974    0.1659 H   0  0  0  0  0  0  0  0  0  0  0  0
    3.3158    0.7925    2.5372 H   0  0  0  0  0  0  0  0  0  0  0  0
    2.9775   -0.3685    1.3290 H   0  0  0  0  0  0  0  0  0  0  0  0
    4.6196    0.1960    1.5514 H   0  0  0  0  0  0  0  0  0  0  0  0
    1.9772   -2.1203    2.7390 H   0  0  0  0  0  0  0  0  0  0  0  0
    3.3501    0.5756    4.5846 H   0  0  0  0  0  0  0  0  0  0  0  0
    2.1540    0.0004    8.0434 H   0  0  0  0  0  0  0  0  0  0  0  0
    0.4976   -0.7972    5.5777 H   0  0  0  0  0  0  0  0  0  0  0  0
    0.9078   -2.2457    7.1595 H   0  0  0  0  0  0  0  0  0  0  0  0
   -1.1759    0.4384    8.8510 H   0  0  0  0  0  0  0  0  0  0  0  0
    0.3653    0.1332    8.8772 H   0  0  0  0  0  0  0  0  0  0  0  0
   -0.2993    3.9086    8.5293 H   0  0  0  0  0  0  0  0  0  0  0  0
    3.9906    1.9497    7.9196 H   0  0  0  0  0  0  0  0  0  0  0  0
    2.7136    2.2915    9.0885 H   0  0  0  0  0  0  0  0  0  0  0  0
    3.2138    3.5283    7.9358 H   0  0  0  0  0  0  0  0  0  0  0  0
    2.2812    3.5172    5.5317 H   0  0  0  0  0  0  0  0  0  0  0  0
    3.3894    2.2767    5.5022 H   0  0  0  0  0  0  0  0  0  0  0  0
    1.4613    2.2683    3.7250 H   0  0  0  0  0  0  0  0  0  0  0  0
    1.4203    0.8345    4.2736 H   0  0  0  0  0  0  0  0  0  0  0  0
   -0.5155    0.7672    4.5422 H   0  0  0  0  0  0  0  0  0  0  0  0
   -0.1461    3.6274    4.6131 H   0  0  0  0  0  0  0  0  0  0  0  0
   -1.7558    1.8262    2.7274 H   0  0  0  0  0  0  0  0  0  0  0  0
   -0.0936    2.2473    2.4255 H   0  0  0  0  0  0  0  0  0  0  0  0
   -1.2864    3.4930    2.4774 H   0  0  0  0  0  0  0  0  0  0  0  0
   -2.3741    4.2421    4.3636 H   0  0  0  0  0  0  0  0  0  0  0  0
   -2.9932    2.6746    4.6913 H   0  0  0  0  0  0  0  0  0  0  0  0
   -1.5488    4.6093    6.5639 H   0  0  0  0  0  0  0  0  0  0  0  0
   -3.1991    4.0674    6.5870 H   0  0  0  0  0  0  0  0  0  0  0  0
   -2.6015    3.5385    8.8580 H   0  0  0  0  0  0  0  0  0  0  0  0
   -2.4348    1.0174    5.8143 H   0  0  0  0  0  0  0  0  0  0  0  0
   -2.5455    0.5573    7.3845 H   0  0  0  0  0  0  0  0  0  0  0  0
    5.8805    0.7126    5.3441 H   0  0  0  0  0  0  0  0  0  0  0  0
    5.2885    1.1380    3.7781 H   0  0  0  0  0  0  0  0  0  0  0  0
    6.5443   -0.0576    3.8944 H   0  0  0  0  0  0  0  0  0  0  0  0
    5.8328   -2.5282    4.6577 H   0  0  0  0  0  0  0  0  0  0  0  0
    5.1784   -1.3369    7.3815 H   0  0  0  0  0  0  0  0  0  0  0  0
    6.6703   -1.1103    6.4760 H   0  0  0  0  0  0  0  0  0  0  0  0
    6.2035   -2.6990    7.0170 H   0  0  0  0  0  0  0  0  0  0  0  0
    4.4145   -4.0904    5.7282 H   0  0  0  0  0  0  0  0  0  0  0  0
    3.4715   -2.8439    6.4644 H   0  0  0  0  0  0  0  0  0  0  0  0
    1.9339   -3.1394    5.0902 H   0  0  0  0  0  0  0  0  0  0  0  0
    3.2046   -5.3294    4.4380 H   0  0  0  0  0  0  0  0  0  0  0  0
    1.1106   -5.1689    4.8822 H   0  0  0  0  0  0  0  0  0  0  0  0
    3.0446   -5.9097    2.2166 H   0  0  0  0  0  0  0  0  0  0  0  0
    2.2656   -3.3570    1.4545 H   0  0  0  0  0  0  0  0  0  0  0  0
    5.0536   -4.3942    3.0320 H   0  0  0  0  0  0  0  0  0  0  0  0
    5.0662   -7.2571    2.3738 H   0  0  0  0  0  0  0  0  0  0  0  0
    6.4310   -6.3148    2.9599 H   0  0  0  0  0  0  0  0  0  0  0  0
    6.5758   -7.2340    1.4770 H   0  0  0  0  0  0  0  0  0  0  0  0
    3.8981   -6.5098    0.0965 H   0  0  0  0  0  0  0  0  0  0  0  0
    5.4285   -6.3604   -0.6855 H   0  0  0  0  0  0  0  0  0  0  0  0
    4.3984   -5.0007   -0.6688 H   0  0  0  0  0  0  0  0  0  0  0  0
    7.0453   -2.7409    1.5939 H   0  0  0  0  0  0  0  0  0  0  0  0
  1  2  1  0
  1 50  1  0
  1 51  1  0
  1 52  1  0
  2 48  1  0
  2  3  2  0
  3  4  1  0
  3 53  1  0
  4 42  1  0
  4 47  1  0
  4  5  1  1
  5  6  1  0
  6 32  1  0
  6  7  1  6
  6  8  1  0
  7 54  1  0
  7 55  1  0
  7 56  1  0
  8 37  1  0
  8  9  1  0
  8 57  1  6
  9 10  1  0
 10 11  1  0
 10 32  1  0
 10 58  1  6
 11 12  1  0
 12 20  1  0
 12 13  1  0
 12 59  1  1
 13 14  1  0
 13 15  1  0
 13 60  1  6
 14 61  1  0
 15 24  1  0
 15 31  1  0
 15 16  1  1
 16 17  1  0
 16 62  1  0
 16 63  1  0
 17 18  1  0
 18 29  1  0
 18 19  1  0
 18 64  1  1
 19 20  1  0
 20 21  1  1
 20 22  1  0
 21 65  1  0
 21 66  1  0
 21 67  1  0
 22 23  1  0
 22 68  1  0
 22 69  1  0
 23 24  1  0
 23 70  1  0
 23 71  1  0
 24 25  1  0
 24 72  1  6
 25 26  1  0
 25 27  1  0
 25 73  1  6
 26 74  1  0
 26 75  1  0
 26 76  1  0
 27 28  1  0
 27 77  1  0
 27 78  1  0
 28 29  1  0
 28 79  1  0
 28 80  1  0
 29 30  1  1
 29 31  1  0
 30 81  1  0
 31 82  1  0
 31 83  1  0
 32 33  1  6
 32 34  1  0
 33 84  1  0
 33 85  1  0
 33 86  1  0
 34 35  1  0
 34 36  1  0
 34 87  1  6
 35 88  1  0
 35 89  1  0
 35 90  1  0
 36 37  1  0
 36 91  1  0
 36 92  1  0
 37 38  1  0
 37 93  1  1
 38 39  1  0
 38 40  1  0
 38 94  1  1
 39 95  1  0
 40 41  1  0
 40 42  1  0
 40 96  1  6
 41 97  1  0
 42 43  1  0
 42 98  1  1
 43 44  1  0
 43 45  1  0
 43 46  1  0
 44 99  1  0
 44100  1  0
 44101  1  0
 45102  1  0
 45103  1  0
 45104  1  0
 46 47  1  0
 47 48  1  0
 47105  1  1
 48 49  2  0
M  END
>  <i_m_ct_stereo_status>  (52) 
1

>  <s_m_source_file>  (52) 
/var/tmp/pbs.5076255.sched01/tmp9s019jnz/08u7fdliu.sdf

>  <i_m_source_file_index>  (52) 
22

>  <i_lp_mmshare_version>  (52) 
48012

>  <i_f3d_flags>  (52) 
0

>  <s_epik_input>  (52) 
W0NIM11DKD1bQ0hdMSlDKD1PKVtDQEBIXTJPQyhbQ0gzXSkoW0NIM10pW0NAQEhdKFtDQF0xMjMpW0NASF0oW09IXSlbQ0BIXShbT0hdKVtDQEBIXTRbQ0BASF01W0NAQF0oTzMpKFtDSDNdKVtDQF0oW0NIM10pKFtDQEBIXShbQ0gzXSlbQ0gyXTQpW0NAQEhdKE81KU9bQ0BIXShbQ0BIXTZbT0hdKVtDQEBdKFtDSDNdKShbQ0gyXVtDSDJdW0NASF03QzY4OSlPW0NASF0oT1tDSDJdOClbQ0BdKFtPSF0pKFtDSDJdOSlbQ0gyXVtDSDJdW0NAQEhdN1tDSDNd

>  <s_epik_cmdline>  (52) 
J2VwaWtfcHl0aG9uJywgJy1waHQnLCAnMi4wJywgJy1waCcsICc3LjAnLCAnLXRuJywgJzgnLCAnLW1hJywgJzIwMCcsICctaW1hZScsICc8aW5maWxlLm1hZT4nLCAnLW9tYWUnLCAnPG91dGZpbGUubWFlPic=

>  <r_lp_tautomer_probability>  (52) 
1

>  <r_epik_Ionization_Penalty>  (52) 
3.0406e-07

>  <r_epik_Ionization_Penalty_Charging>  (52) 
0

>  <r_epik_Ionization_Penalty_Neutral>  (52) 
3.0406e-07

>  <r_epik_State_Penalty>  (52) 
-0

>  <r_epik_Charging_Adjusted_Penalty>  (52) 
0

>  <i_epik_Tot_Q>  (52) 
0

>  <i_epik_Tot_abs_Q>  (52) 
0

>  <s_epik_Chemistry_Notes>  (52) 
This compound contains an acetal/aminal-like group ( X-CH(R)-Y where X, Y are N, S, or O) that may be acid/base labile, releasing an aldehyde.

>  <s_lp_Force_Field>  (52) 
OPLS3e

>  <r_lp_Energy>  (52) 
279.917

>  <b_lp_Chiralities_Consistent>  (52) 
1

>  <s_lp_Variant>  (52) 
14:0-1

>  <s_i_glide_gridfile>  (52) 
pfpi4k_grid

>  <i_i_glide_lignum>  (52) 
22

>  <i_i_glide_rotatable_bonds>  (52) 
6

>  <r_i_docking_score>  (52) 
-1.50988

>  <r_i_glide_ligand_efficiency>  (52) 
-0.0308139

>  <r_i_glide_ligand_efficiency_sa>  (52) 
-0.112758

>  <r_i_glide_ligand_efficiency_ln>  (52) 
-0.308654

>  <r_i_glide_gscore>  (52) 
-1.50988

>  <r_i_glide_lipo>  (52) 
-0.587161

>  <r_i_glide_hbond>  (52) 
-0.14733

>  <r_i_glide_metal>  (52) 
-0

>  <r_i_glide_rewards>  (52) 
0

>  <r_i_glide_evdw>  (52) 
-35.6534

>  <r_i_glide_ecoul>  (52) 
-3.24665

>  <r_i_glide_erotb>  (52) 
0.0901744

>  <r_i_glide_esite>  (52) 
-0.00594166

>  <r_i_glide_emodel>  (52) 
-19.9942

>  <r_i_glide_energy>  (52) 
-38.9

>  <r_i_glide_einternal>  (52) 
35.5565

>  <r_i_glide_intrahb_reward>  (52) 
-0

>  <i_i_glide_confnum>  (52) 
1

>  <i_i_glide_posenum>  (52) 
10

>  <r_i_glide_eff_state_penalty>  (52) 
0

>  <ligand_id>  (52) 
14

>  <original_smiles>  (52) 
CC1=CC23OC4(C)C5OC(OC6C(O)C78COC9OC6(C)CCC7C(C)CCC9(O)C8)C4(C)C(C)CC5C(O)C(O)C2C(C)(C)OC3C1=O

>  <smiles>  (52) 
[H]OC1([H])C([H])(O[H])C2([H])C3(OC4(C([H])([H])[H])C5([H])OC([H])(OC6([H])C([H])(O[H])C78C([H])([H])OC9([H])OC6(C([H])([H])[H])C([H])([H])C([H])([H])C7([H])C([H])(C([H])([H])[H])C([H])([H])C([H])([H])C9(O[H])C8([H])[H])C4(C([H])([H])[H])C([H])(C([H])([H])[H])C([H])([H])C15[H])C([H])=C(C([H])([H])[H])C(=O)C3([H])OC2(C([H])([H])[H])C([H])([H])[H]

$$$$
15:0:0
     RDKit          3D

 37 40  0  0  1  0  0  0  0  0999 V2000
    1.4307   -5.5640   -0.3089 O   0  0  0  0  0  0  0  0  0  0  0  0
    2.4522   -5.0484    0.1675 C   0  0  0  0  0  0  0  0  0  0  0  0
    3.0414   -5.6699    1.4658 C   0  0  2  0  0  0  0  0  0  0  0  0
    4.5751   -5.9582    1.3671 C   0  0  0  0  0  0  0  0  0  0  0  0
    4.8918   -7.5789    2.1499 S   0  0  0  0  0  0  0  0  0  0  0  0
    3.3048   -8.1600    1.6037 C   0  0  1  0  0  0  0  0  0  0  0  0
    2.6363   -9.1767    2.5083 C   0  0  0  0  0  0  0  0  0  0  0  0
    3.0197  -10.4841    2.8476 C   0  0  0  0  0  0  0  0  0  0  0  0
    2.1327  -11.2020    3.6898 C   0  0  0  0  0  0  0  0  0  0  0  0
    0.9298  -10.6123    4.1597 C   0  0  0  0  0  0  0  0  0  0  0  0
    0.5736   -9.2896    3.7954 C   0  0  0  0  0  0  0  0  0  0  0  0
    1.4584   -8.6040    2.9594 C   0  0  0  0  0  0  0  0  0  0  0  0
    1.3259   -7.2127    2.4610 C   0  0  0  0  0  0  0  0  0  0  0  0
    0.4210   -6.4240    2.7169 O   0  0  0  0  0  0  0  0  0  0  0  0
    2.4401   -6.9817    1.7320 N   0  0  0  0  0  0  0  0  0  0  0  0
    3.0094   -3.9349   -0.3901 N   0  0  0  0  0  0  0  0  0  0  0  0
    2.5459   -3.4217   -1.6888 C   0  0  0  0  0  0  0  0  0  0  0  0
    3.7079   -2.8504   -2.5396 C   0  0  0  0  0  0  0  0  0  0  0  0
    4.4671   -1.8970   -1.8081 O   0  0  0  0  0  0  0  0  0  0  0  0
    5.0212   -2.4733   -0.6412 C   0  0  0  0  0  0  0  0  0  0  0  0
    3.8978   -2.9720    0.2925 C   0  0  0  0  0  0  0  0  0  0  0  0
    2.7997   -4.9971    2.2850 H   0  0  0  0  0  0  0  0  0  0  0  0
    4.9148   -5.9488    0.3341 H   0  0  0  0  0  0  0  0  0  0  0  0
    5.1795   -5.2497    1.9247 H   0  0  0  0  0  0  0  0  0  0  0  0
    3.4064   -8.5120    0.5846 H   0  0  0  0  0  0  0  0  0  0  0  0
    3.9324  -10.9477    2.4622 H   0  0  0  0  0  0  0  0  0  0  0  0
    2.3585  -12.2175    3.9704 H   0  0  0  0  0  0  0  0  0  0  0  0
    0.2690  -11.1675    4.7986 H   0  0  0  0  0  0  0  0  0  0  0  0
   -0.3453   -8.8211    4.1500 H   0  0  0  0  0  0  0  0  0  0  0  0
    2.0101   -4.1586   -2.2904 H   0  0  0  0  0  0  0  0  0  0  0  0
    1.8135   -2.6582   -1.4883 H   0  0  0  0  0  0  0  0  0  0  0  0
    4.3669   -3.6466   -2.8907 H   0  0  0  0  0  0  0  0  0  0  0  0
    3.3037   -2.3546   -3.4221 H   0  0  0  0  0  0  0  0  0  0  0  0
    5.7247   -3.2663   -0.9144 H   0  0  0  0  0  0  0  0  0  0  0  0
    5.5993   -1.7200   -0.1093 H   0  0  0  0  0  0  0  0  0  0  0  0
    3.2736   -2.1443    0.6312 H   0  0  0  0  0  0  0  0  0  0  0  0
    4.3805   -3.3310    1.1977 H   0  0  0  0  0  0  0  0  0  0  0  0
  1  2  2  0
  2  3  1  0
  2 16  1  0
  3 15  1  0
  3  4  1  0
  3 22  1  1
  4  5  1  0
  4 23  1  0
  4 24  1  0
  5  6  1  0
  6 15  1  0
  6  7  1  0
  6 25  1  6
  7 12  2  0
  7  8  1  0
  8  9  2  0
  8 26  1  0
  9 10  1  0
  9 27  1  0
 10 11  2  0
 10 28  1  0
 11 12  1  0
 11 29  1  0
 12 13  1  0
 13 14  2  0
 13 15  1  0
 16 21  1  0
 16 17  1  0
 17 18  1  0
 17 30  1  0
 17 31  1  0
 18 19  1  0
 18 32  1  0
 18 33  1  0
 19 20  1  0
 20 21  1  0
 20 34  1  0
 20 35  1  0
 21 36  1  0
 21 37  1  0
M  END
>  <i_m_ct_stereo_status>  (53) 
1

>  <s_m_source_file>  (53) 
/var/tmp/pbs.5076255.sched01/tmp9s019jnz/08u7fdliu.sdf

>  <i_m_source_file_index>  (53) 
24

>  <i_lp_mmshare_version>  (53) 
48012

>  <i_f3d_flags>  (53) 
0

>  <s_epik_input>  (53) 
W0NIMl0xW0NIMl1PW0NIMl1bQ0gyXU4xQyg9TylbQ0BIXShbQ0gyXVMyKU4zQyg9TyljKGM0W0NASF0yMylbY0hdW2NIXVtjSF1bY0hdNA==

>  <s_epik_cmdline>  (53) 
J2VwaWtfcHl0aG9uJywgJy1waHQnLCAnMi4wJywgJy1waCcsICc3LjAnLCAnLXRuJywgJzgnLCAnLW1hJywgJzIwMCcsICctaW1hZScsICc8aW5maWxlLm1hZT4nLCAnLW9tYWUnLCAnPG91dGZpbGUubWFlPic=

>  <r_lp_tautomer_probability>  (53) 
1

>  <r_epik_Ionization_Penalty>  (53) 
4.36721e-12

>  <r_epik_Ionization_Penalty_Charging>  (53) 
0

>  <r_epik_Ionization_Penalty_Neutral>  (53) 
4.36721e-12

>  <r_epik_State_Penalty>  (53) 
-0

>  <r_epik_Charging_Adjusted_Penalty>  (53) 
0

>  <i_epik_Tot_Q>  (53) 
0

>  <i_epik_Tot_abs_Q>  (53) 
0

>  <s_epik_Chemistry_Notes>  (53) 
This compound contains an acetal/aminal-like group ( X-CH(R)-Y where X, Y are N, S, or O) that may be acid/base labile, releasing an aldehyde.

>  <s_lp_Force_Field>  (53) 
OPLS3e

>  <r_lp_Energy>  (53) 
13.2387

>  <b_lp_Chiralities_Consistent>  (53) 
1

>  <s_lp_Variant>  (53) 
15:0-1

>  <s_i_glide_gridfile>  (53) 
pfpi4k_grid

>  <i_i_glide_lignum>  (53) 
24

>  <i_i_glide_rotatable_bonds>  (53) 
2

>  <r_i_docking_score>  (53) 
-3.77759

>  <r_i_glide_ligand_efficiency>  (53) 
-0.179885

>  <r_i_glide_ligand_efficiency_sa>  (53) 
-0.496289

>  <r_i_glide_ligand_efficiency_ln>  (53) 
-0.934001

>  <r_i_glide_gscore>  (53) 
-3.77759

>  <r_i_glide_lipo>  (53) 
-0.263485

>  <r_i_glide_hbond>  (53) 
-0.362823

>  <r_i_glide_metal>  (53) 
-0

>  <r_i_glide_rewards>  (53) 
-1.33387

>  <r_i_glide_evdw>  (53) 
-24.8823

>  <r_i_glide_ecoul>  (53) 
-5.70334

>  <r_i_glide_erotb>  (53) 
0.398132

>  <r_i_glide_esite>  (53) 
-0.115919

>  <r_i_glide_emodel>  (53) 
-36.6675

>  <r_i_glide_energy>  (53) 
-30.5857

>  <r_i_glide_einternal>  (53) 
1.7348

>  <r_i_glide_intrahb_reward>  (53) 
-0

>  <i_i_glide_confnum>  (53) 
1

>  <i_i_glide_posenum>  (53) 
7

>  <r_i_glide_eff_state_penalty>  (53) 
0

>  <ligand_id>  (53) 
15

>  <original_smiles>  (53) 
O=C(C1CSC2c3ccccc3C(=O)N12)N1CCOCC1

>  <smiles>  (53) 
[H]c1c([H])c([H])c2c(c1[H])C(=O)N1C2([H])SC([H])([H])C1([H])C(=O)N1C([H])([H])C([H])([H])OC([H])([H])C1([H])[H]

$$$$
15:0:1
     RDKit          3D

 37 40  0  0  1  0  0  0  0  0999 V2000
    1.4047   -5.8755    0.1289 O   0  0  0  0  0  0  0  0  0  0  0  0
    2.5375   -5.5237    0.4746 C   0  0  0  0  0  0  0  0  0  0  0  0
    3.2978   -6.3683    1.5333 C   0  0  2  0  0  0  0  0  0  0  0  0
    4.5010   -7.1111    0.8806 C   0  0  0  0  0  0  0  0  0  0  0  0
    4.5513   -8.7890    1.6100 S   0  0  0  0  0  0  0  0  0  0  0  0
    2.7534   -8.8248    1.7553 C   0  0  1  0  0  0  0  0  0  0  0  0
    2.1642   -9.5979    2.9334 C   0  0  0  0  0  0  0  0  0  0  0  0
    2.1593  -10.9557    3.2022 C   0  0  0  0  0  0  0  0  0  0  0  0
    1.4578  -11.3620    4.3668 C   0  0  0  0  0  0  0  0  0  0  0  0
    0.7998  -10.4082    5.2041 C   0  0  0  0  0  0  0  0  0  0  0  0
    0.8229   -9.0300    4.8853 C   0  0  0  0  0  0  0  0  0  0  0  0
    1.5129   -8.6667    3.7319 C   0  0  0  0  0  0  0  0  0  0  0  0
    1.6921   -7.2947    3.1963 C   0  0  0  0  0  0  0  0  0  0  0  0
    1.2849   -6.2608    3.7185 O   0  0  0  0  0  0  0  0  0  0  0  0
    2.4428   -7.4217    2.0804 N   0  0  0  0  0  0  0  0  0  0  0  0
    3.1196   -4.4141   -0.0299 N   0  0  0  0  0  0  0  0  0  0  0  0
    2.4612   -3.6410   -1.0906 C   0  0  0  0  0  0  0  0  0  0  0  0
    3.4658   -3.0485   -2.1042 C   0  0  0  0  0  0  0  0  0  0  0  0
    4.4654   -2.3047   -1.4277 O   0  0  0  0  0  0  0  0  0  0  0  0
    5.2022   -3.1252   -0.5383 C   0  0  0  0  0  0  0  0  0  0  0  0
    4.2838   -3.7269    0.5410 C   0  0  0  0  0  0  0  0  0  0  0  0
    3.6274   -5.7481    2.3629 H   0  0  0  0  0  0  0  0  0  0  0  0
    4.3925   -7.1962   -0.1969 H   0  0  0  0  0  0  0  0  0  0  0  0
    5.4415   -6.5935    1.0504 H   0  0  0  0  0  0  0  0  0  0  0  0
    2.2925   -9.1204    0.8161 H   0  0  0  0  0  0  0  0  0  0  0  0
    2.6349  -11.6915    2.5752 H   0  0  0  0  0  0  0  0  0  0  0  0
    1.3962  -12.4114    4.6582 H   0  0  0  0  0  0  0  0  0  0  0  0
    0.2675  -10.7418    6.0900 H   0  0  0  0  0  0  0  0  0  0  0  0
    0.3302   -8.2927    5.5092 H   0  0  0  0  0  0  0  0  0  0  0  0
    1.7443   -4.2337   -1.6690 H   0  0  0  0  0  0  0  0  0  0  0  0
    1.9007   -2.8440   -0.6063 H   0  0  0  0  0  0  0  0  0  0  0  0
    3.9305   -3.8275   -2.7133 H   0  0  0  0  0  0  0  0  0  0  0  0
    2.9443   -2.3840   -2.7934 H   0  0  0  0  0  0  0  0  0  0  0  0
    5.7337   -3.8999   -1.0948 H   0  0  0  0  0  0  0  0  0  0  0  0
    5.9599   -2.5100   -0.0549 H   0  0  0  0  0  0  0  0  0  0  0  0
    3.8919   -2.9329    1.1774 H   0  0  0  0  0  0  0  0  0  0  0  0
    4.9042   -4.3531    1.1735 H   0  0  0  0  0  0  0  0  0  0  0  0
  1  2  2  0
  2  3  1  0
  2 16  1  0
  3 15  1  0
  3  4  1  0
  3 22  1  1
  4  5  1  0
  4 23  1  0
  4 24  1  0
  5  6  1  0
  6 15  1  0
  6  7  1  0
  6 25  1  6
  7 12  2  0
  7  8  1  0
  8  9  2  0
  8 26  1  0
  9 10  1  0
  9 27  1  0
 10 11  2  0
 10 28  1  0
 11 12  1  0
 11 29  1  0
 12 13  1  0
 13 14  2  0
 13 15  1  0
 16 21  1  0
 16 17  1  0
 17 18  1  0
 17 30  1  0
 17 31  1  0
 18 19  1  0
 18 32  1  0
 18 33  1  0
 19 20  1  0
 20 21  1  0
 20 34  1  0
 20 35  1  0
 21 36  1  0
 21 37  1  0
M  END
>  <i_m_ct_stereo_status>  (54) 
1

>  <s_m_source_file>  (54) 
/var/tmp/pbs.5076255.sched01/tmp9s019jnz/08u7fdliu.sdf

>  <i_m_source_file_index>  (54) 
24

>  <i_lp_mmshare_version>  (54) 
48012

>  <i_f3d_flags>  (54) 
0

>  <s_epik_input>  (54) 
W0NIMl0xW0NIMl1PW0NIMl1bQ0gyXU4xQyg9TylbQ0BIXShbQ0gyXVMyKU4zQyg9TyljKGM0W0NASF0yMylbY0hdW2NIXVtjSF1bY0hdNA==

>  <s_epik_cmdline>  (54) 
J2VwaWtfcHl0aG9uJywgJy1waHQnLCAnMi4wJywgJy1waCcsICc3LjAnLCAnLXRuJywgJzgnLCAnLW1hJywgJzIwMCcsICctaW1hZScsICc8aW5maWxlLm1hZT4nLCAnLW9tYWUnLCAnPG91dGZpbGUubWFlPic=

>  <r_lp_tautomer_probability>  (54) 
1

>  <r_epik_Ionization_Penalty>  (54) 
4.36721e-12

>  <r_epik_Ionization_Penalty_Charging>  (54) 
0

>  <r_epik_Ionization_Penalty_Neutral>  (54) 
4.36721e-12

>  <r_epik_State_Penalty>  (54) 
-0

>  <r_epik_Charging_Adjusted_Penalty>  (54) 
0

>  <i_epik_Tot_Q>  (54) 
0

>  <i_epik_Tot_abs_Q>  (54) 
0

>  <s_epik_Chemistry_Notes>  (54) 
This compound contains an acetal/aminal-like group ( X-CH(R)-Y where X, Y are N, S, or O) that may be acid/base labile, releasing an aldehyde.

>  <s_lp_Force_Field>  (54) 
OPLS3e

>  <r_lp_Energy>  (54) 
13.2387

>  <b_lp_Chiralities_Consistent>  (54) 
1

>  <s_lp_Variant>  (54) 
15:0-1

>  <s_i_glide_gridfile>  (54) 
pfpi4k_grid

>  <i_i_glide_lignum>  (54) 
24

>  <i_i_glide_rotatable_bonds>  (54) 
2

>  <r_i_docking_score>  (54) 
-3.63635

>  <r_i_glide_ligand_efficiency>  (54) 
-0.173159

>  <r_i_glide_ligand_efficiency_sa>  (54) 
-0.477734

>  <r_i_glide_ligand_efficiency_ln>  (54) 
-0.899079

>  <r_i_glide_gscore>  (54) 
-3.63635

>  <r_i_glide_lipo>  (54) 
-0.377199

>  <r_i_glide_hbond>  (54) 
-0.227078

>  <r_i_glide_metal>  (54) 
-0

>  <r_i_glide_rewards>  (54) 
-1.33387

>  <r_i_glide_evdw>  (54) 
-26.9469

>  <r_i_glide_ecoul>  (54) 
-4.37965

>  <r_i_glide_erotb>  (54) 
0.398132

>  <r_i_glide_esite>  (54) 
-0.0920381

>  <r_i_glide_emodel>  (54) 
-38.5485

>  <r_i_glide_energy>  (54) 
-31.3265

>  <r_i_glide_einternal>  (54) 
0.578869

>  <r_i_glide_intrahb_reward>  (54) 
-0

>  <i_i_glide_confnum>  (54) 
1

>  <i_i_glide_posenum>  (54) 
11

>  <r_i_glide_eff_state_penalty>  (54) 
0

>  <ligand_id>  (54) 
15

>  <original_smiles>  (54) 
O=C(C1CSC2c3ccccc3C(=O)N12)N1CCOCC1

>  <smiles>  (54) 
[H]c1c([H])c([H])c2c(c1[H])C(=O)N1C2([H])SC([H])([H])C1([H])C(=O)N1C([H])([H])C([H])([H])OC([H])([H])C1([H])[H]

$$$$
15:0:2
     RDKit          3D

 37 40  0  0  1  0  0  0  0  0999 V2000
    4.8689   -5.7662    0.7260 O   0  0  0  0  0  0  0  0  0  0  0  0
    4.2129   -4.7462    0.5204 C   0  0  0  0  0  0  0  0  0  0  0  0
    2.9492   -4.4987    1.3719 C   0  0  2  0  0  0  0  0  0  0  0  0
    3.3496   -3.6799    2.6290 C   0  0  0  0  0  0  0  0  0  0  0  0
    2.3295   -4.3228    3.9971 S   0  0  0  0  0  0  0  0  0  0  0  0
    2.4123   -5.9775    3.2936 C   0  0  1  0  0  0  0  0  0  0  0  0
    1.1641   -6.8275    3.5174 C   0  0  0  0  0  0  0  0  0  0  0  0
    0.6439   -7.3824    4.6943 C   0  0  0  0  0  0  0  0  0  0  0  0
   -0.5014   -8.1967    4.5465 C   0  0  0  0  0  0  0  0  0  0  0  0
   -1.1031   -8.4237    3.2710 C   0  0  0  0  0  0  0  0  0  0  0  0
   -0.5492   -7.8388    2.1042 C   0  0  0  0  0  0  0  0  0  0  0  0
    0.5922   -7.0631    2.2866 C   0  0  0  0  0  0  0  0  0  0  0  0
    1.3569   -6.3652    1.2488 C   0  0  0  0  0  0  0  0  0  0  0  0
    0.9943   -6.2377    0.0751 O   0  0  0  0  0  0  0  0  0  0  0  0
    2.3734   -5.7440    1.8459 N   0  0  0  0  0  0  0  0  0  0  0  0
    4.6311   -3.7946   -0.3386 N   0  0  0  0  0  0  0  0  0  0  0  0
    3.8691   -2.6380   -0.8243 C   0  0  0  0  0  0  0  0  0  0  0  0
    4.4283   -1.3965   -0.1098 C   0  0  0  0  0  0  0  0  0  0  0  0
    5.8115   -1.2564   -0.4361 O   0  0  0  0  0  0  0  0  0  0  0  0
    6.5836   -2.3859   -0.0218 C   0  0  0  0  0  0  0  0  0  0  0  0
    6.0498   -3.6682   -0.7001 C   0  0  0  0  0  0  0  0  0  0  0  0
    2.1461   -3.9882    0.8589 H   0  0  0  0  0  0  0  0  0  0  0  0
    4.4075   -3.7616    2.8644 H   0  0  0  0  0  0  0  0  0  0  0  0
    3.1521   -2.6241    2.5007 H   0  0  0  0  0  0  0  0  0  0  0  0
    3.3218   -6.4904    3.5801 H   0  0  0  0  0  0  0  0  0  0  0  0
    1.1254   -7.2239    5.6606 H   0  0  0  0  0  0  0  0  0  0  0  0
   -0.9322   -8.7007    5.4034 H   0  0  0  0  0  0  0  0  0  0  0  0
   -1.9601   -9.0647    3.1879 H   0  0  0  0  0  0  0  0  0  0  0  0
   -0.9741   -8.0106    1.1053 H   0  0  0  0  0  0  0  0  0  0  0  0
    3.9991   -2.5384   -1.9049 H   0  0  0  0  0  0  0  0  0  0  0  0
    2.7905   -2.6800   -0.6922 H   0  0  0  0  0  0  0  0  0  0  0  0
    3.8650   -0.5050   -0.3811 H   0  0  0  0  0  0  0  0  0  0  0  0
    4.3409   -1.4888    0.9718 H   0  0  0  0  0  0  0  0  0  0  0  0
    7.6307   -2.2128   -0.2762 H   0  0  0  0  0  0  0  0  0  0  0  0
    6.5289   -2.4982    1.0659 H   0  0  0  0  0  0  0  0  0  0  0  0
    6.6818   -4.4945   -0.3620 H   0  0  0  0  0  0  0  0  0  0  0  0
    6.1614   -3.6241   -1.7863 H   0  0  0  0  0  0  0  0  0  0  0  0
  1  2  2  0
  2  3  1  0
  2 16  1  0
  3 15  1  0
  3  4  1  0
  3 22  1  6
  4  5  1  0
  4 23  1  0
  4 24  1  0
  5  6  1  0
  6 15  1  0
  6  7  1  0
  6 25  1  6
  7 12  2  0
  7  8  1  0
  8  9  2  0
  8 26  1  0
  9 10  1  0
  9 27  1  0
 10 11  2  0
 10 28  1  0
 11 12  1  0
 11 29  1  0
 12 13  1  0
 13 14  2  0
 13 15  1  0
 16 21  1  0
 16 17  1  0
 17 18  1  0
 17 30  1  0
 17 31  1  0
 18 19  1  0
 18 32  1  0
 18 33  1  0
 19 20  1  0
 20 21  1  0
 20 34  1  0
 20 35  1  0
 21 36  1  0
 21 37  1  0
M  END
>  <i_m_ct_stereo_status>  (55) 
1

>  <s_m_source_file>  (55) 
/var/tmp/pbs.5076255.sched01/tmp9s019jnz/08u7fdliu.sdf

>  <i_m_source_file_index>  (55) 
24

>  <i_lp_mmshare_version>  (55) 
48012

>  <i_f3d_flags>  (55) 
0

>  <s_epik_input>  (55) 
W0NIMl0xW0NIMl1PW0NIMl1bQ0gyXU4xQyg9TylbQ0BIXShbQ0gyXVMyKU4zQyg9TyljKGM0W0NASF0yMylbY0hdW2NIXVtjSF1bY0hdNA==

>  <s_epik_cmdline>  (55) 
J2VwaWtfcHl0aG9uJywgJy1waHQnLCAnMi4wJywgJy1waCcsICc3LjAnLCAnLXRuJywgJzgnLCAnLW1hJywgJzIwMCcsICctaW1hZScsICc8aW5maWxlLm1hZT4nLCAnLW9tYWUnLCAnPG91dGZpbGUubWFlPic=

>  <r_lp_tautomer_probability>  (55) 
1

>  <r_epik_Ionization_Penalty>  (55) 
4.36721e-12

>  <r_epik_Ionization_Penalty_Charging>  (55) 
0

>  <r_epik_Ionization_Penalty_Neutral>  (55) 
4.36721e-12

>  <r_epik_State_Penalty>  (55) 
-0

>  <r_epik_Charging_Adjusted_Penalty>  (55) 
0

>  <i_epik_Tot_Q>  (55) 
0

>  <i_epik_Tot_abs_Q>  (55) 
0

>  <s_epik_Chemistry_Notes>  (55) 
This compound contains an acetal/aminal-like group ( X-CH(R)-Y where X, Y are N, S, or O) that may be acid/base labile, releasing an aldehyde.

>  <s_lp_Force_Field>  (55) 
OPLS3e

>  <r_lp_Energy>  (55) 
13.2387

>  <b_lp_Chiralities_Consistent>  (55) 
1

>  <s_lp_Variant>  (55) 
15:0-1

>  <s_i_glide_gridfile>  (55) 
pfpi4k_grid

>  <i_i_glide_lignum>  (55) 
24

>  <i_i_glide_rotatable_bonds>  (55) 
2

>  <r_i_docking_score>  (55) 
-3.54675

>  <r_i_glide_ligand_efficiency>  (55) 
-0.168893

>  <r_i_glide_ligand_efficiency_sa>  (55) 
-0.465963

>  <r_i_glide_ligand_efficiency_ln>  (55) 
-0.876927

>  <r_i_glide_gscore>  (55) 
-3.54675

>  <r_i_glide_lipo>  (55) 
-0.0773351

>  <r_i_glide_hbond>  (55) 
-0.422342

>  <r_i_glide_metal>  (55) 
-0

>  <r_i_glide_rewards>  (55) 
-1.41892

>  <r_i_glide_evdw>  (55) 
-26.4211

>  <r_i_glide_ecoul>  (55) 
-4.12645

>  <r_i_glide_erotb>  (55) 
0.398132

>  <r_i_glide_esite>  (55) 
-0.0862672

>  <r_i_glide_emodel>  (55) 
-35.5953

>  <r_i_glide_energy>  (55) 
-30.5476

>  <r_i_glide_einternal>  (55) 
4.30418

>  <r_i_glide_intrahb_reward>  (55) 
-0

>  <i_i_glide_confnum>  (55) 
6

>  <i_i_glide_posenum>  (55) 
26

>  <r_i_glide_eff_state_penalty>  (55) 
0

>  <ligand_id>  (55) 
15

>  <original_smiles>  (55) 
O=C(C1CSC2c3ccccc3C(=O)N12)N1CCOCC1

>  <smiles>  (55) 
[H]c1c([H])c([H])c2c(c1[H])C(=O)N1C2([H])SC([H])([H])C1([H])C(=O)N1C([H])([H])C([H])([H])OC([H])([H])C1([H])[H]

$$$$
16:0:0
     RDKit          3D

 25 26  0  0  1  0  0  0  0  0999 V2000
    1.4132    2.5417    2.0798 O   0  0  0  0  0  0  0  0  0  0  0  0
    0.7408    1.3255    1.8431 C   0  0  0  0  0  0  0  0  0  0  0  0
    1.4308    0.1733    2.5878 C   0  0  0  0  0  0  0  0  0  0  0  0
    2.8961   -0.0728    2.1849 C   0  0  0  0  0  0  0  0  0  0  0  0
    3.0067   -0.7268    0.8867 N   0  0  0  0  0  0  0  0  0  0  0  0
    4.2353   -1.1660    0.3858 C   0  0  0  0  0  0  0  0  0  0  0  0
    5.3787   -0.9001    1.0723 N   0  0  0  0  0  0  0  0  0  0  0  0
    6.5449   -1.3121    0.5791 C   0  0  0  0  0  0  0  0  0  0  0  0
    6.7807   -1.9650   -0.5615 N   0  0  0  0  0  0  0  0  0  0  0  0
    5.6237   -2.2630   -1.2231 C   0  0  0  0  0  0  0  0  0  0  0  0
    5.5872   -3.1701   -2.7250 S   0  0  0  0  0  0  0  0  0  0  0  0
    3.8532   -3.0581   -2.7942 C   0  0  0  0  0  0  0  0  0  0  0  0
    3.2894   -2.3839   -1.7432 C   0  0  0  0  0  0  0  0  0  0  0  0
    4.3024   -1.9001   -0.8208 C   0  0  0  0  0  0  0  0  0  0  0  0
    0.9526    3.2383    1.5922 H   0  0  0  0  0  0  0  0  0  0  0  0
   -0.2980    1.4241    2.1577 H   0  0  0  0  0  0  0  0  0  0  0  0
    0.6954    1.1141    0.7814 H   0  0  0  0  0  0  0  0  0  0  0  0
    1.3799    0.3859    3.6546 H   0  0  0  0  0  0  0  0  0  0  0  0
    0.8508   -0.7402    2.4353 H   0  0  0  0  0  0  0  0  0  0  0  0
    3.4474    0.8728    2.1664 H   0  0  0  0  0  0  0  0  0  0  0  0
    3.3502   -0.7250    2.9353 H   0  0  0  0  0  0  0  0  0  0  0  0
    7.4143   -1.0525    1.1610 H   0  0  0  0  0  0  0  0  0  0  0  0
    3.3218   -3.5391   -3.6022 H   0  0  0  0  0  0  0  0  0  0  0  0
    2.2186   -2.2558   -1.6175 H   0  0  0  0  0  0  0  0  0  0  0  0
    2.1603   -0.8681    0.3296 H   0  0  0  0  0  0  0  0  0  0  0  0
  1  2  1  0
  1 15  1  0
  2  3  1  0
  2 16  1  0
  2 17  1  0
  3  4  1  0
  3 18  1  0
  3 19  1  0
  4  5  1  0
  4 20  1  0
  4 21  1  0
  5  6  1  0
  5 25  1  0
  6 14  2  0
  6  7  1  0
  7  8  2  0
  8  9  1  0
  8 22  1  0
  9 10  2  0
 10 14  1  0
 10 11  1  0
 11 12  1  0
 12 13  2  0
 12 23  1  0
 13 14  1  0
 13 24  1  0
M  END
>  <i_m_ct_stereo_status>  (56) 
1

>  <s_m_source_file>  (56) 
/var/tmp/pbs.5076255.sched01/tmp9s019jnz/08u7fdliu.sdf

>  <i_m_source_file_index>  (56) 
25

>  <i_lp_mmshare_version>  (56) 
48012

>  <i_f3d_flags>  (56) 
0

>  <s_epik_input>  (56) 
W09IXVtDSDJdW0NIMl1bQ0gyXS9OPWMoL1tuSF1bY0hdbjEpYyhjMTIpW2NIXVtjSF1zMg==

>  <s_epik_cmdline>  (56) 
J2VwaWtfcHl0aG9uJywgJy1waHQnLCAnMi4wJywgJy1waCcsICc3LjAnLCAnLXRuJywgJzgnLCAnLW1hJywgJzIwMCcsICctaW1hZScsICc8aW5maWxlLm1hZT4nLCAnLW9tYWUnLCAnPG91dGZpbGUubWFlPic=

>  <r_lp_tautomer_probability>  (56) 
1

>  <r_epik_Ionization_Penalty>  (56) 
0.00015478

>  <r_epik_Ionization_Penalty_Charging>  (56) 
0

>  <r_epik_Ionization_Penalty_Neutral>  (56) 
0.00015478

>  <r_epik_State_Penalty>  (56) 
-0

>  <r_epik_Charging_Adjusted_Penalty>  (56) 
0

>  <i_epik_Tot_Q>  (56) 
0

>  <i_epik_Tot_abs_Q>  (56) 
0

>  <s_lp_Force_Field>  (56) 
OPLS3e

>  <r_lp_Energy>  (56) 
23.5517

>  <b_lp_Chiralities_Consistent>  (56) 
1

>  <s_lp_Variant>  (56) 
16:0-1

>  <s_i_glide_gridfile>  (56) 
pfpi4k_grid

>  <i_i_glide_lignum>  (56) 
25

>  <i_i_glide_rotatable_bonds>  (56) 
5

>  <r_i_docking_score>  (56) 
-4.21092

>  <r_i_glide_ligand_efficiency>  (56) 
-0.30078

>  <r_i_glide_ligand_efficiency_sa>  (56) 
-0.724923

>  <r_i_glide_ligand_efficiency_ln>  (56) 
-1.15715

>  <r_i_glide_gscore>  (56) 
-4.21092

>  <r_i_glide_lipo>  (56) 
-0.221391

>  <r_i_glide_hbond>  (56) 
-0.456

>  <r_i_glide_metal>  (56) 
-0

>  <r_i_glide_rewards>  (56) 
-1.99722

>  <r_i_glide_evdw>  (56) 
-19.903

>  <r_i_glide_ecoul>  (56) 
-10.7487

>  <r_i_glide_erotb>  (56) 
1.13565

>  <r_i_glide_esite>  (56) 
-0.0645005

>  <r_i_glide_emodel>  (56) 
-37.9192

>  <r_i_glide_energy>  (56) 
-30.6517

>  <r_i_glide_einternal>  (56) 
3.99514

>  <r_i_glide_intrahb_reward>  (56) 
-0

>  <i_i_glide_confnum>  (56) 
5

>  <i_i_glide_posenum>  (56) 
19

>  <r_i_glide_eff_state_penalty>  (56) 
0

>  <ligand_id>  (56) 
16

>  <original_smiles>  (56) 
OCCCN=c1[nH]cnc2sccc12

>  <smiles>  (56) 
[H]OC([H])([H])C([H])([H])C([H])([H])N([H])c1nc([H])nc2sc([H])c([H])c12

$$$$
16:0:1
     RDKit          3D

 25 26  0  0  1  0  0  0  0  0999 V2000
   -0.3447    1.7454    2.1784 O   0  0  0  0  0  0  0  0  0  0  0  0
    0.8891    1.2856    1.6792 C   0  0  0  0  0  0  0  0  0  0  0  0
    1.4453    0.1653    2.5637 C   0  0  0  0  0  0  0  0  0  0  0  0
    2.8948   -0.2220    2.2210 C   0  0  0  0  0  0  0  0  0  0  0  0
    3.0048   -0.8510    0.9111 N   0  0  0  0  0  0  0  0  0  0  0  0
    4.2310   -1.2638    0.3903 C   0  0  0  0  0  0  0  0  0  0  0  0
    5.3805   -0.9907    1.0516 N   0  0  0  0  0  0  0  0  0  0  0  0
    6.5425   -1.3754    0.5183 C   0  0  0  0  0  0  0  0  0  0  0  0
    6.7593   -2.0138   -0.6337 N   0  0  0  0  0  0  0  0  0  0  0  0
    5.5949   -2.3162   -1.2768 C   0  0  0  0  0  0  0  0  0  0  0  0
    5.5302   -3.2037   -2.7880 S   0  0  0  0  0  0  0  0  0  0  0  0
    3.7999   -3.0765   -2.8298 C   0  0  0  0  0  0  0  0  0  0  0  0
    3.2650   -2.4195   -1.7544 C   0  0  0  0  0  0  0  0  0  0  0  0
    4.2848   -1.9681   -0.8367 C   0  0  0  0  0  0  0  0  0  0  0  0
   -0.5211    2.5712    1.7389 H   0  0  0  0  0  0  0  0  0  0  0  0
    0.7613    0.9463    0.6510 H   0  0  0  0  0  0  0  0  0  0  0  0
    1.5661    2.1371    1.6664 H   0  0  0  0  0  0  0  0  0  0  0  0
    1.4184    0.5023    3.6005 H   0  0  0  0  0  0  0  0  0  0  0  0
    0.7908   -0.7056    2.5083 H   0  0  0  0  0  0  0  0  0  0  0  0
    3.5397    0.6592    2.2655 H   0  0  0  0  0  0  0  0  0  0  0  0
    3.2496   -0.9323    2.9700 H   0  0  0  0  0  0  0  0  0  0  0  0
    7.4216   -1.0964    1.0775 H   0  0  0  0  0  0  0  0  0  0  0  0
    3.2510   -3.5413   -3.6370 H   0  0  0  0  0  0  0  0  0  0  0  0
    2.2140   -2.2575   -1.5883 H   0  0  0  0  0  0  0  0  0  0  0  0
    2.1531   -0.9962    0.3596 H   0  0  0  0  0  0  0  0  0  0  0  0
  1  2  1  0
  1 15  1  0
  2  3  1  0
  2 16  1  0
  2 17  1  0
  3  4  1  0
  3 18  1  0
  3 19  1  0
  4  5  1  0
  4 20  1  0
  4 21  1  0
  5  6  1  0
  5 25  1  0
  6 14  2  0
  6  7  1  0
  7  8  2  0
  8  9  1  0
  8 22  1  0
  9 10  2  0
 10 14  1  0
 10 11  1  0
 11 12  1  0
 12 13  2  0
 12 23  1  0
 13 14  1  0
 13 24  1  0
M  END
>  <i_m_ct_stereo_status>  (57) 
1

>  <s_m_source_file>  (57) 
/var/tmp/pbs.5076255.sched01/tmp9s019jnz/08u7fdliu.sdf

>  <i_m_source_file_index>  (57) 
25

>  <i_lp_mmshare_version>  (57) 
48012

>  <i_f3d_flags>  (57) 
0

>  <s_epik_input>  (57) 
W09IXVtDSDJdW0NIMl1bQ0gyXS9OPWMoL1tuSF1bY0hdbjEpYyhjMTIpW2NIXVtjSF1zMg==

>  <s_epik_cmdline>  (57) 
J2VwaWtfcHl0aG9uJywgJy1waHQnLCAnMi4wJywgJy1waCcsICc3LjAnLCAnLXRuJywgJzgnLCAnLW1hJywgJzIwMCcsICctaW1hZScsICc8aW5maWxlLm1hZT4nLCAnLW9tYWUnLCAnPG91dGZpbGUubWFlPic=

>  <r_lp_tautomer_probability>  (57) 
1

>  <r_epik_Ionization_Penalty>  (57) 
0.00015478

>  <r_epik_Ionization_Penalty_Charging>  (57) 
0

>  <r_epik_Ionization_Penalty_Neutral>  (57) 
0.00015478

>  <r_epik_State_Penalty>  (57) 
-0

>  <r_epik_Charging_Adjusted_Penalty>  (57) 
0

>  <i_epik_Tot_Q>  (57) 
0

>  <i_epik_Tot_abs_Q>  (57) 
0

>  <s_lp_Force_Field>  (57) 
OPLS3e

>  <r_lp_Energy>  (57) 
23.5517

>  <b_lp_Chiralities_Consistent>  (57) 
1

>  <s_lp_Variant>  (57) 
16:0-1

>  <s_i_glide_gridfile>  (57) 
pfpi4k_grid

>  <i_i_glide_lignum>  (57) 
25

>  <i_i_glide_rotatable_bonds>  (57) 
5

>  <r_i_docking_score>  (57) 
-3.72394

>  <r_i_glide_ligand_efficiency>  (57) 
-0.265995

>  <r_i_glide_ligand_efficiency_sa>  (57) 
-0.641087

>  <r_i_glide_ligand_efficiency_ln>  (57) 
-1.02332

>  <r_i_glide_gscore>  (57) 
-3.72394

>  <r_i_glide_lipo>  (57) 
-0.218574

>  <r_i_glide_hbond>  (57) 
-0.436445

>  <r_i_glide_metal>  (57) 
-0

>  <r_i_glide_rewards>  (57) 
-1.9935

>  <r_i_glide_evdw>  (57) 
-21.5339

>  <r_i_glide_ecoul>  (57) 
-7.13916

>  <r_i_glide_erotb>  (57) 
1.13565

>  <r_i_glide_esite>  (57) 
-0.0635068

>  <r_i_glide_emodel>  (57) 
-35.3381

>  <r_i_glide_energy>  (57) 
-28.6731

>  <r_i_glide_einternal>  (57) 
3.01451

>  <r_i_glide_intrahb_reward>  (57) 
-0

>  <i_i_glide_confnum>  (57) 
5

>  <i_i_glide_posenum>  (57) 
9

>  <r_i_glide_eff_state_penalty>  (57) 
0

>  <ligand_id>  (57) 
16

>  <original_smiles>  (57) 
OCCCN=c1[nH]cnc2sccc12

>  <smiles>  (57) 
[H]OC([H])([H])C([H])([H])C([H])([H])N([H])c1nc([H])nc2sc([H])c([H])c12

$$$$
16:0:2
     RDKit          3D

 25 26  0  0  1  0  0  0  0  0999 V2000
   -5.5371    4.1540    2.4579 O   0  0  0  0  0  0  0  0  0  0  0  0
   -4.2600    3.8536    1.9615 C   0  0  0  0  0  0  0  0  0  0  0  0
   -3.2292    4.5352    2.8684 C   0  0  0  0  0  0  0  0  0  0  0  0
   -1.7669    4.3646    2.6825 C   0  0  0  0  0  0  0  0  0  0  0  0
   -1.3327    2.9802    2.7985 N   0  0  0  0  0  0  0  0  0  0  0  0
   -1.3202    2.2495    3.9948 C   0  0  0  0  0  0  0  0  0  0  0  0
   -1.9502    2.7098    5.1012 N   0  0  0  0  0  0  0  0  0  0  0  0
   -2.1058    1.9507    6.1706 C   0  0  0  0  0  0  0  0  0  0  0  0
   -1.6540    0.7189    6.3671 N   0  0  0  0  0  0  0  0  0  0  0  0
   -0.9027    0.2829    5.3053 C   0  0  0  0  0  0  0  0  0  0  0  0
   -0.0510   -1.2596    5.2903 S   0  0  0  0  0  0  0  0  0  0  0  0
    0.5392   -0.9407    3.6784 C   0  0  0  0  0  0  0  0  0  0  0  0
    0.1181    0.2478    3.1283 C   0  0  0  0  0  0  0  0  0  0  0  0
   -0.6945    0.9875    4.0736 C   0  0  0  0  0  0  0  0  0  0  0  0
   -6.1743    3.7529    1.8812 H   0  0  0  0  0  0  0  0  0  0  0  0
   -4.0687    2.7778    1.9219 H   0  0  0  0  0  0  0  0  0  0  0  0
   -4.3366    4.3002    0.9872 H   0  0  0  0  0  0  0  0  0  0  0  0
   -3.4085    5.6034    2.8885 H   0  0  0  0  0  0  0  0  0  0  0  0
   -3.3899    4.0677    3.8044 H   0  0  0  0  0  0  0  0  0  0  0  0
   -1.6840    4.7976    1.6954 H   0  0  0  0  0  0  0  0  0  0  0  0
   -1.1668    4.9926    3.3340 H   0  0  0  0  0  0  0  0  0  0  0  0
   -2.7499    2.3829    6.9108 H   0  0  0  0  0  0  0  0  0  0  0  0
    1.1648   -1.6833    3.2057 H   0  0  0  0  0  0  0  0  0  0  0  0
    0.3775    0.6030    2.1299 H   0  0  0  0  0  0  0  0  0  0  0  0
   -0.7419    2.6837    2.0283 H   0  0  0  0  0  0  0  0  0  0  0  0
  1  2  1  0
  1 15  1  0
  2  3  1  0
  2 16  1  0
  2 17  1  0
  3  4  1  0
  3 18  1  0
  3 19  1  0
  4  5  1  0
  4 20  1  0
  4 21  1  0
  5  6  1  0
  5 25  1  0
  6 14  2  0
  6  7  1  0
  7  8  2  0
  8  9  1  0
  8 22  1  0
  9 10  2  0
 10 14  1  0
 10 11  1  0
 11 12  1  0
 12 13  2  0
 12 23  1  0
 13 14  1  0
 13 24  1  0
M  END
>  <i_m_ct_stereo_status>  (58) 
1

>  <s_m_source_file>  (58) 
/var/tmp/pbs.5076255.sched01/tmp9s019jnz/08u7fdliu.sdf

>  <i_m_source_file_index>  (58) 
25

>  <i_lp_mmshare_version>  (58) 
48012

>  <i_f3d_flags>  (58) 
0

>  <s_epik_input>  (58) 
W09IXVtDSDJdW0NIMl1bQ0gyXS9OPWMoL1tuSF1bY0hdbjEpYyhjMTIpW2NIXVtjSF1zMg==

>  <s_epik_cmdline>  (58) 
J2VwaWtfcHl0aG9uJywgJy1waHQnLCAnMi4wJywgJy1waCcsICc3LjAnLCAnLXRuJywgJzgnLCAnLW1hJywgJzIwMCcsICctaW1hZScsICc8aW5maWxlLm1hZT4nLCAnLW9tYWUnLCAnPG91dGZpbGUubWFlPic=

>  <r_lp_tautomer_probability>  (58) 
1

>  <r_epik_Ionization_Penalty>  (58) 
0.00015478

>  <r_epik_Ionization_Penalty_Charging>  (58) 
0

>  <r_epik_Ionization_Penalty_Neutral>  (58) 
0.00015478

>  <r_epik_State_Penalty>  (58) 
-0

>  <r_epik_Charging_Adjusted_Penalty>  (58) 
0

>  <i_epik_Tot_Q>  (58) 
0

>  <i_epik_Tot_abs_Q>  (58) 
0

>  <s_lp_Force_Field>  (58) 
OPLS3e

>  <r_lp_Energy>  (58) 
23.5517

>  <b_lp_Chiralities_Consistent>  (58) 
1

>  <s_lp_Variant>  (58) 
16:0-1

>  <s_i_glide_gridfile>  (58) 
pfpi4k_grid

>  <i_i_glide_lignum>  (58) 
25

>  <i_i_glide_rotatable_bonds>  (58) 
5

>  <r_i_docking_score>  (58) 
-2.90071

>  <r_i_glide_ligand_efficiency>  (58) 
-0.207193

>  <r_i_glide_ligand_efficiency_sa>  (58) 
-0.499365

>  <r_i_glide_ligand_efficiency_ln>  (58) 
-0.797104

>  <r_i_glide_gscore>  (58) 
-2.90071

>  <r_i_glide_lipo>  (58) 
-0.196667

>  <r_i_glide_hbond>  (58) 
-0.445043

>  <r_i_glide_metal>  (58) 
-0

>  <r_i_glide_rewards>  (58) 
-1.98226

>  <r_i_glide_evdw>  (58) 
-6.45721

>  <r_i_glide_ecoul>  (58) 
-6.66253

>  <r_i_glide_erotb>  (58) 
1.13565

>  <r_i_glide_esite>  (58) 
-0.0901545

>  <r_i_glide_emodel>  (58) 
-17.3836

>  <r_i_glide_energy>  (58) 
-13.1197

>  <r_i_glide_einternal>  (58) 
2.70311

>  <r_i_glide_intrahb_reward>  (58) 
-0

>  <i_i_glide_confnum>  (58) 
4

>  <i_i_glide_posenum>  (58) 
11

>  <r_i_glide_eff_state_penalty>  (58) 
0

>  <ligand_id>  (58) 
16

>  <original_smiles>  (58) 
OCCCN=c1[nH]cnc2sccc12

>  <smiles>  (58) 
[H]OC([H])([H])C([H])([H])C([H])([H])N([H])c1nc([H])nc2sc([H])c([H])c12

$$$$
17:0:0
     RDKit          3D

 62 67  0  0  1  0  0  0  0  0999 V2000
    0.3884   -7.5757    1.6936 C   0  0  0  0  0  0  0  0  0  0  0  0
    1.7843   -7.9006    2.1771 C   0  0  0  0  0  0  0  0  0  0  0  0
    2.7672   -7.0697    2.5314 C   0  0  0  0  0  0  0  0  0  0  0  0
    3.9785   -7.8486    3.0773 C   0  0  1  0  0  0  0  0  0  0  0  0
    3.7482   -9.2763    2.5174 C   0  0  0  0  0  0  0  0  0  0  0  0
    2.2107   -9.3494    2.3291 C   0  0  1  0  0  0  0  0  0  0  0  0
    1.5570  -10.0354    3.5021 C   0  0  0  0  0  0  0  0  0  0  0  0
    1.1863  -11.3994    3.5979 C   0  0  0  0  0  0  0  0  0  0  0  0
    0.6208  -11.5538    4.8186 C   0  0  0  0  0  0  0  0  0  0  0  0
    0.6201  -10.3848    5.5176 O   0  0  0  0  0  0  0  0  0  0  0  0
    1.1942   -9.4743    4.7037 C   0  0  0  0  0  0  0  0  0  0  0  0
    5.2856   -7.1937    2.8561 O   0  0  0  0  0  0  0  0  0  0  0  0
    5.3852   -6.4785    1.6034 C   0  0  1  0  0  0  0  0  0  0  0  0
    5.3164   -7.3744    0.5423 O   0  0  0  0  0  0  0  0  0  0  0  0
    4.3093   -5.5377    1.9734 C   0  0  2  0  0  0  0  0  0  0  0  0
    5.4019   -4.5763    2.5223 C   0  0  0  0  0  0  0  0  0  0  0  0
    5.9524   -4.9511    1.1930 C   0  0  1  0  0  0  0  0  0  0  0  0
    7.4679   -4.9731    0.9616 C   0  0  0  0  0  0  0  0  0  0  0  0
    8.0643   -3.6386    0.5334 C   0  0  0  0  0  0  0  0  0  0  0  0
    7.3448   -3.0713   -0.6607 C   0  0  0  0  0  0  0  0  0  0  0  0
    7.9587   -2.8158   -1.6960 O   0  0  0  0  0  0  0  0  0  0  0  0
    5.8695   -2.7346   -0.4562 C   0  0  0  0  0  0  0  0  0  0  0  0
    5.8290   -1.5052    0.4963 C   0  0  0  0  0  0  0  0  0  0  0  0
    5.2919   -2.2877   -1.8217 C   0  0  0  0  0  0  0  0  0  0  0  0
    5.0970   -3.9997    0.1118 C   0  0  2  0  0  0  0  0  0  0  0  0
    3.5527   -3.5545    0.5631 C   0  0  0  0  0  0  0  0  0  0  0  0
    2.4472   -4.5642    1.2601 C   0  0  1  0  0  0  0  0  0  0  0  0
    1.8423   -5.3007    0.1967 O   0  0  0  0  0  0  0  0  0  0  0  0
    2.9561   -5.5566    2.4323 C   0  0  1  0  0  0  0  0  0  0  0  0
    2.7752   -4.9702    3.8380 C   0  0  0  0  0  0  0  0  0  0  0  0
   -0.3481   -8.1813    2.2329 H   0  0  0  0  0  0  0  0  0  0  0  0
    0.3106   -7.8229    0.6348 H   0  0  0  0  0  0  0  0  0  0  0  0
    0.1406   -6.5224    1.8343 H   0  0  0  0  0  0  0  0  0  0  0  0
    3.8394   -7.8895    4.1627 H   0  0  0  0  0  0  0  0  0  0  0  0
    4.2074   -9.4171    1.5358 H   0  0  0  0  0  0  0  0  0  0  0  0
    4.1578  -10.0713    3.1522 H   0  0  0  0  0  0  0  0  0  0  0  0
    1.9536   -9.9005    1.4243 H   0  0  0  0  0  0  0  0  0  0  0  0
    1.3074  -12.1959    2.8745 H   0  0  0  0  0  0  0  0  0  0  0  0
    0.1888  -12.4011    5.3248 H   0  0  0  0  0  0  0  0  0  0  0  0
    1.2698   -8.4900    5.1409 H   0  0  0  0  0  0  0  0  0  0  0  0
    4.4566   -7.7612    0.5982 H   0  0  0  0  0  0  0  0  0  0  0  0
    4.0416   -5.8249    0.9428 H   0  0  0  0  0  0  0  0  0  0  0  0
    5.1096   -3.5352    2.6498 H   0  0  0  0  0  0  0  0  0  0  0  0
    5.9345   -4.9410    3.4010 H   0  0  0  0  0  0  0  0  0  0  0  0
    7.9605   -5.2828    1.8820 H   0  0  0  0  0  0  0  0  0  0  0  0
    7.7144   -5.7300    0.2127 H   0  0  0  0  0  0  0  0  0  0  0  0
    7.9107   -2.8994    1.3066 H   0  0  0  0  0  0  0  0  0  0  0  0
    9.1366   -3.7203    0.3625 H   0  0  0  0  0  0  0  0  0  0  0  0
    4.8628   -0.9916    0.4627 H   0  0  0  0  0  0  0  0  0  0  0  0
    6.5800   -0.7587    0.2163 H   0  0  0  0  0  0  0  0  0  0  0  0
    6.0262   -1.7785    1.5348 H   0  0  0  0  0  0  0  0  0  0  0  0
    4.2692   -1.9182   -1.7443 H   0  0  0  0  0  0  0  0  0  0  0  0
    5.3091   -3.1067   -2.5423 H   0  0  0  0  0  0  0  0  0  0  0  0
    5.8709   -1.4733   -2.2596 H   0  0  0  0  0  0  0  0  0  0  0  0
    4.9595   -4.6290   -0.7696 H   0  0  0  0  0  0  0  0  0  0  0  0
    3.6473   -2.7135    1.2607 H   0  0  0  0  0  0  0  0  0  0  0  0
    3.0681   -3.1156   -0.3094 H   0  0  0  0  0  0  0  0  0  0  0  0
    1.7299   -3.9009    1.7344 H   0  0  0  0  0  0  0  0  0  0  0  0
    2.4990   -5.4751   -0.4805 H   0  0  0  0  0  0  0  0  0  0  0  0
    3.0373   -3.9046    3.8931 H   0  0  0  0  0  0  0  0  0  0  0  0
    3.4088   -5.5176    4.5470 H   0  0  0  0  0  0  0  0  0  0  0  0
    1.7338   -5.0970    4.1660 H   0  0  0  0  0  0  0  0  0  0  0  0
  1  2  1  0
  1 31  1  0
  1 32  1  0
  1 33  1  0
  2  6  1  0
  2  3  2  0
  3 29  1  0
  3  4  1  0
  4  5  1  0
  4 12  1  0
  4 34  1  1
  5  6  1  0
  5 35  1  0
  5 36  1  0
  6  7  1  0
  6 37  1  6
  7 11  2  0
  7  8  1  0
  8  9  2  0
  8 38  1  0
  9 10  1  0
  9 39  1  0
 10 11  1  0
 11 40  1  0
 12 13  1  0
 13 17  1  0
 13 14  1  6
 13 15  1  0
 14 41  1  0
 15 29  1  0
 15 16  1  0
 15 42  1  6
 16 17  1  0
 16 43  1  0
 16 44  1  0
 17 25  1  0
 17 18  1  1
 18 19  1  0
 18 45  1  0
 18 46  1  0
 19 20  1  0
 19 47  1  0
 19 48  1  0
 20 21  2  0
 20 22  1  0
 22 23  1  0
 22 24  1  0
 22 25  1  0
 23 49  1  0
 23 50  1  0
 23 51  1  0
 24 52  1  0
 24 53  1  0
 24 54  1  0
 25 26  1  0
 25 55  1  6
 26 27  1  0
 26 56  1  0
 26 57  1  0
 27 28  1  0
 27 29  1  0
 27 58  1  1
 28 59  1  0
 29 30  1  1
 30 60  1  0
 30 61  1  0
 30 62  1  0
M  END
>  <i_m_ct_stereo_status>  (59) 
1

>  <s_m_source_file>  (59) 
/var/tmp/pbs.5076255.sched01/tmp9s019jnz/08u7fdliu.sdf

>  <i_m_source_file_index>  (59) 
26

>  <i_lp_mmshare_version>  (59) 
48012

>  <i_f3d_flags>  (59) 
0

>  <s_epik_input>  (59) 
W2NIXTFvW2NIXVtjSF1jMVtDQEBIXShDPTJbQ0gzXSlbQ0gyXVtDQEBIXShPMylDMltDQEBdKFtDSDNdKShbQ0BASF0oW0NIMl00KVtDQF0zKFtDQEBdNDU2KVtPSF0pW0NASF0oW09IXSlbQ0gyXVtDQEhdNkMoW0NIM10pKFtDSDNdKUMoPU8pW0NIMl1bQ0gyXTU=

>  <s_epik_cmdline>  (59) 
J2VwaWtfcHl0aG9uJywgJy1waHQnLCAnMi4wJywgJy1waCcsICc3LjAnLCAnLXRuJywgJzgnLCAnLW1hJywgJzIwMCcsICctaW1hZScsICc8aW5maWxlLm1hZT4nLCAnLW9tYWUnLCAnPG91dGZpbGUubWFlPic=

>  <r_lp_tautomer_probability>  (59) 
1

>  <r_epik_Ionization_Penalty>  (59) 
3.20884e-07

>  <r_epik_Ionization_Penalty_Charging>  (59) 
0

>  <r_epik_Ionization_Penalty_Neutral>  (59) 
3.20884e-07

>  <r_epik_State_Penalty>  (59) 
-0

>  <r_epik_Charging_Adjusted_Penalty>  (59) 
0

>  <i_epik_Tot_Q>  (59) 
0

>  <i_epik_Tot_abs_Q>  (59) 
0

>  <s_lp_Force_Field>  (59) 
OPLS3e

>  <r_lp_Energy>  (59) 
199.316

>  <b_lp_Chiralities_Consistent>  (59) 
1

>  <s_lp_Variant>  (59) 
17:0-1

>  <s_i_glide_gridfile>  (59) 
pfpi4k_grid

>  <i_i_glide_lignum>  (59) 
26

>  <i_i_glide_rotatable_bonds>  (59) 
3

>  <r_i_docking_score>  (59) 
-3.79863

>  <r_i_glide_ligand_efficiency>  (59) 
-0.126621

>  <r_i_glide_ligand_efficiency_sa>  (59) 
-0.393441

>  <r_i_glide_ligand_efficiency_ln>  (59) 
-0.86309

>  <r_i_glide_gscore>  (59) 
-3.79863

>  <r_i_glide_lipo>  (59) 
-0.899448

>  <r_i_glide_hbond>  (59) 
-0.318681

>  <r_i_glide_metal>  (59) 
-0

>  <r_i_glide_rewards>  (59) 
-0.797312

>  <r_i_glide_evdw>  (59) 
-27.3439

>  <r_i_glide_ecoul>  (59) 
-3.54581

>  <r_i_glide_erotb>  (59) 
0.115881

>  <r_i_glide_esite>  (59) 
0

>  <r_i_glide_emodel>  (59) 
-36.2377

>  <r_i_glide_energy>  (59) 
-30.8898

>  <r_i_glide_einternal>  (59) 
0.44899

>  <r_i_glide_intrahb_reward>  (59) 
-0

>  <i_i_glide_confnum>  (59) 
2

>  <i_i_glide_posenum>  (59) 
40

>  <r_i_glide_eff_state_penalty>  (59) 
0

>  <ligand_id>  (59) 
17

>  <original_smiles>  (59) 
CC1=C2C(CC1c1ccoc1)OC1(O)C3CC14CCC(=O)C(C)(C)C4CC(O)C23C

>  <smiles>  (59) 
[H]OC1([H])C([H])([H])C2([H])C(C([H])([H])[H])(C([H])([H])[H])C(=O)C([H])([H])C([H])([H])C23C([H])([H])C2([H])C3(O[H])OC3([H])C(=C(C([H])([H])[H])C([H])(c4c([H])oc([H])c4[H])C3([H])[H])C12C([H])([H])[H]

$$$$
17:0:1
     RDKit          3D

 62 67  0  0  1  0  0  0  0  0999 V2000
    0.3930   -7.5260    1.7091 C   0  0  0  0  0  0  0  0  0  0  0  0
    1.7940   -7.8150    2.2129 C   0  0  0  0  0  0  0  0  0  0  0  0
    2.7542   -6.9591    2.5346 C   0  0  0  0  0  0  0  0  0  0  0  0
    3.9813   -7.6959    3.0996 C   0  0  1  0  0  0  0  0  0  0  0  0
    3.7549   -9.1558    2.6177 C   0  0  0  0  0  0  0  0  0  0  0  0
    2.2202   -9.2633    2.4225 C   0  0  1  0  0  0  0  0  0  0  0  0
    1.5563   -9.8843    3.6194 C   0  0  0  0  0  0  0  0  0  0  0  0
    1.1983   -9.2592    4.8524 C   0  0  0  0  0  0  0  0  0  0  0  0
    0.6376  -10.2320    5.6139 C   0  0  0  0  0  0  0  0  0  0  0  0
    0.6210  -11.4091    4.9501 O   0  0  0  0  0  0  0  0  0  0  0  0
    1.1914  -11.1954    3.7593 C   0  0  0  0  0  0  0  0  0  0  0  0
    5.2801   -7.0307    2.8299 O   0  0  0  0  0  0  0  0  0  0  0  0
    5.3468   -6.3464    1.5751 C   0  0  1  0  0  0  0  0  0  0  0  0
    5.2817   -7.2283    0.4758 O   0  0  0  0  0  0  0  0  0  0  0  0
    4.2767   -5.4303    1.9583 C   0  0  2  0  0  0  0  0  0  0  0  0
    5.3419   -4.4283    2.4646 C   0  0  0  0  0  0  0  0  0  0  0  0
    5.9074   -4.8374    1.1446 C   0  0  1  0  0  0  0  0  0  0  0  0
    7.4245   -4.8216    0.9302 C   0  0  0  0  0  0  0  0  0  0  0  0
    8.0096   -3.4826    0.4811 C   0  0  0  0  0  0  0  0  0  0  0  0
    7.2789   -3.0022   -0.7342 C   0  0  0  0  0  0  0  0  0  0  0  0
    7.8784   -2.7962   -1.7787 O   0  0  0  0  0  0  0  0  0  0  0  0
    5.8075   -2.6835   -0.5746 C   0  0  0  0  0  0  0  0  0  0  0  0
    5.7358   -1.4248    0.3235 C   0  0  0  0  0  0  0  0  0  0  0  0
    5.2201   -2.3033   -1.9554 C   0  0  0  0  0  0  0  0  0  0  0  0
    5.0611   -3.9434    0.0295 C   0  0  2  0  0  0  0  0  0  0  0  0
    3.5063   -3.5130    0.4668 C   0  0  0  0  0  0  0  0  0  0  0  0
    2.4075   -4.5216    1.1831 C   0  0  1  0  0  0  0  0  0  0  0  0
    1.8344   -5.2950    0.1349 O   0  0  0  0  0  0  0  0  0  0  0  0
    2.9124   -5.4475    2.3851 C   0  0  1  0  0  0  0  0  0  0  0  0
    2.7229   -4.8021    3.7628 C   0  0  0  0  0  0  0  0  0  0  0  0
   -0.3462   -8.1170    2.2670 H   0  0  0  0  0  0  0  0  0  0  0  0
    0.3191   -7.8139    0.6575 H   0  0  0  0  0  0  0  0  0  0  0  0
    0.1297   -6.4664    1.8088 H   0  0  0  0  0  0  0  0  0  0  0  0
    3.8393   -7.6744    4.1723 H   0  0  0  0  0  0  0  0  0  0  0  0
    4.2338   -9.3022    1.6454 H   0  0  0  0  0  0  0  0  0  0  0  0
    4.1860   -9.9116    3.2935 H   0  0  0  0  0  0  0  0  0  0  0  0
    1.9842   -9.8413    1.5197 H   0  0  0  0  0  0  0  0  0  0  0  0
    1.3321   -8.2290    5.1688 H   0  0  0  0  0  0  0  0  0  0  0  0
    0.2339  -10.2776    6.6148 H   0  0  0  0  0  0  0  0  0  0  0  0
    1.2727  -12.0763    3.1443 H   0  0  0  0  0  0  0  0  0  0  0  0
    6.0826   -7.7205    0.5447 H   0  0  0  0  0  0  0  0  0  0  0  0
    4.0176   -5.7350    0.9404 H   0  0  0  0  0  0  0  0  0  0  0  0
    5.0334   -3.3821    2.5409 H   0  0  0  0  0  0  0  0  0  0  0  0
    5.8842   -4.7643    3.3433 H   0  0  0  0  0  0  0  0  0  0  0  0
    7.9208   -5.1009    1.8613 H   0  0  0  0  0  0  0  0  0  0  0  0
    7.7052   -5.5935    0.2012 H   0  0  0  0  0  0  0  0  0  0  0  0
    7.8877   -2.7587    1.2835 H   0  0  0  0  0  0  0  0  0  0  0  0
    9.0787   -3.5818    0.2882 H   0  0  0  0  0  0  0  0  0  0  0  0
    4.7602   -0.9262    0.2575 H   0  0  0  0  0  0  0  0  0  0  0  0
    6.4773   -0.6822    0.0230 H   0  0  0  0  0  0  0  0  0  0  0  0
    5.9348   -1.6580    1.3709 H   0  0  0  0  0  0  0  0  0  0  0  0
    4.1902   -1.9489   -1.8980 H   0  0  0  0  0  0  0  0  0  0  0  0
    5.2625   -3.1371   -2.6505 H   0  0  0  0  0  0  0  0  0  0  0  0
    5.8015   -1.4938   -2.3862 H   0  0  0  0  0  0  0  0  0  0  0  0
    4.9211   -4.6022   -0.8354 H   0  0  0  0  0  0  0  0  0  0  0  0
    3.5742   -2.6350    1.1264 H   0  0  0  0  0  0  0  0  0  0  0  0
    3.0131   -3.1149   -0.4206 H   0  0  0  0  0  0  0  0  0  0  0  0
    1.7192   -3.8442    1.6533 H   0  0  0  0  0  0  0  0  0  0  0  0
    2.5103   -5.5302   -0.5218 H   0  0  0  0  0  0  0  0  0  0  0  0
    2.9753   -3.7281    3.7789 H   0  0  0  0  0  0  0  0  0  0  0  0
    3.3588   -5.3097    4.5053 H   0  0  0  0  0  0  0  0  0  0  0  0
    1.6878   -4.9238    4.0924 H   0  0  0  0  0  0  0  0  0  0  0  0
  1  2  1  0
  1 31  1  0
  1 32  1  0
  1 33  1  0
  2  6  1  0
  2  3  2  0
  3 29  1  0
  3  4  1  0
  4  5  1  0
  4 12  1  0
  4 34  1  1
  5  6  1  0
  5 35  1  0
  5 36  1  0
  6  7  1  0
  6 37  1  6
  7 11  2  0
  7  8  1  0
  8  9  2  0
  8 38  1  0
  9 10  1  0
  9 39  1  0
 10 11  1  0
 11 40  1  0
 12 13  1  0
 13 17  1  0
 13 14  1  6
 13 15  1  0
 14 41  1  0
 15 29  1  0
 15 16  1  0
 15 42  1  6
 16 17  1  0
 16 43  1  0
 16 44  1  0
 17 25  1  0
 17 18  1  1
 18 19  1  0
 18 45  1  0
 18 46  1  0
 19 20  1  0
 19 47  1  0
 19 48  1  0
 20 21  2  0
 20 22  1  0
 22 23  1  0
 22 24  1  0
 22 25  1  0
 23 49  1  0
 23 50  1  0
 23 51  1  0
 24 52  1  0
 24 53  1  0
 24 54  1  0
 25 26  1  0
 25 55  1  6
 26 27  1  0
 26 56  1  0
 26 57  1  0
 27 28  1  0
 27 29  1  0
 27 58  1  1
 28 59  1  0
 29 30  1  1
 30 60  1  0
 30 61  1  0
 30 62  1  0
M  END
>  <i_m_ct_stereo_status>  (60) 
1

>  <s_m_source_file>  (60) 
/var/tmp/pbs.5076255.sched01/tmp9s019jnz/08u7fdliu.sdf

>  <i_m_source_file_index>  (60) 
26

>  <i_lp_mmshare_version>  (60) 
48012

>  <i_f3d_flags>  (60) 
0

>  <s_epik_input>  (60) 
W2NIXTFvW2NIXVtjSF1jMVtDQEBIXShDPTJbQ0gzXSlbQ0gyXVtDQEBIXShPMylDMltDQEBdKFtDSDNdKShbQ0BASF0oW0NIMl00KVtDQF0zKFtDQEBdNDU2KVtPSF0pW0NASF0oW09IXSlbQ0gyXVtDQEhdNkMoW0NIM10pKFtDSDNdKUMoPU8pW0NIMl1bQ0gyXTU=

>  <s_epik_cmdline>  (60) 
J2VwaWtfcHl0aG9uJywgJy1waHQnLCAnMi4wJywgJy1waCcsICc3LjAnLCAnLXRuJywgJzgnLCAnLW1hJywgJzIwMCcsICctaW1hZScsICc8aW5maWxlLm1hZT4nLCAnLW9tYWUnLCAnPG91dGZpbGUubWFlPic=

>  <r_lp_tautomer_probability>  (60) 
1

>  <r_epik_Ionization_Penalty>  (60) 
3.20884e-07

>  <r_epik_Ionization_Penalty_Charging>  (60) 
0

>  <r_epik_Ionization_Penalty_Neutral>  (60) 
3.20884e-07

>  <r_epik_State_Penalty>  (60) 
-0

>  <r_epik_Charging_Adjusted_Penalty>  (60) 
0

>  <i_epik_Tot_Q>  (60) 
0

>  <i_epik_Tot_abs_Q>  (60) 
0

>  <s_lp_Force_Field>  (60) 
OPLS3e

>  <r_lp_Energy>  (60) 
199.316

>  <b_lp_Chiralities_Consistent>  (60) 
1

>  <s_lp_Variant>  (60) 
17:0-1

>  <s_i_glide_gridfile>  (60) 
pfpi4k_grid

>  <i_i_glide_lignum>  (60) 
26

>  <i_i_glide_rotatable_bonds>  (60) 
3

>  <r_i_docking_score>  (60) 
-3.75985

>  <r_i_glide_ligand_efficiency>  (60) 
-0.125328

>  <r_i_glide_ligand_efficiency_sa>  (60) 
-0.389424

>  <r_i_glide_ligand_efficiency_ln>  (60) 
-0.854278

>  <r_i_glide_gscore>  (60) 
-3.75985

>  <r_i_glide_lipo>  (60) 
-0.813335

>  <r_i_glide_hbond>  (60) 
-0.365337

>  <r_i_glide_metal>  (60) 
-0

>  <r_i_glide_rewards>  (60) 
-0.750236

>  <r_i_glide_evdw>  (60) 
-28.562

>  <r_i_glide_ecoul>  (60) 
-3.45812

>  <r_i_glide_erotb>  (60) 
0.115881

>  <r_i_glide_esite>  (60) 
0

>  <r_i_glide_emodel>  (60) 
-37.042

>  <r_i_glide_energy>  (60) 
-32.0202

>  <r_i_glide_einternal>  (60) 
0.857808

>  <r_i_glide_intrahb_reward>  (60) 
-0

>  <i_i_glide_confnum>  (60) 
1

>  <i_i_glide_posenum>  (60) 
30

>  <r_i_glide_eff_state_penalty>  (60) 
0

>  <ligand_id>  (60) 
17

>  <original_smiles>  (60) 
CC1=C2C(CC1c1ccoc1)OC1(O)C3CC14CCC(=O)C(C)(C)C4CC(O)C23C

>  <smiles>  (60) 
[H]OC1([H])C([H])([H])C2([H])C(C([H])([H])[H])(C([H])([H])[H])C(=O)C([H])([H])C([H])([H])C23C([H])([H])C2([H])C3(O[H])OC3([H])C(=C(C([H])([H])[H])C([H])(c4c([H])oc([H])c4[H])C3([H])[H])C12C([H])([H])[H]

$$$$
17:0:2
     RDKit          3D

 62 67  0  0  1  0  0  0  0  0999 V2000
    0.4087   -7.3058    1.9210 C   0  0  0  0  0  0  0  0  0  0  0  0
    1.7758   -7.6124    2.4871 C   0  0  0  0  0  0  0  0  0  0  0  0
    2.7849   -6.7735    2.7586 C   0  0  0  0  0  0  0  0  0  0  0  0
    3.9538   -7.5187    3.4390 C   0  0  1  0  0  0  0  0  0  0  0  0
    3.6638   -8.9944    3.0965 C   0  0  0  0  0  0  0  0  0  0  0  0
    2.1285   -9.0397    2.8654 C   0  0  1  0  0  0  0  0  0  0  0  0
    1.4063   -9.5013    4.1106 C   0  0  0  0  0  0  0  0  0  0  0  0
    0.9353   -8.7125    5.2025 C   0  0  0  0  0  0  0  0  0  0  0  0
    0.3608   -9.5810    6.0835 C   0  0  0  0  0  0  0  0  0  0  0  0
    0.4587  -10.8502    5.6304 O   0  0  0  0  0  0  0  0  0  0  0  0
    1.0810  -10.7919    4.4322 C   0  0  0  0  0  0  0  0  0  0  0  0
    5.2952   -6.9842    3.1444 O   0  0  0  0  0  0  0  0  0  0  0  0
    5.4363   -6.4159    1.8327 C   0  0  1  0  0  0  0  0  0  0  0  0
    5.3893   -7.4399    0.8602 O   0  0  0  0  0  0  0  0  0  0  0  0
    4.3851   -5.3959    2.0541 C   0  0  2  0  0  0  0  0  0  0  0  0
    5.5072   -4.4273    2.5184 C   0  0  0  0  0  0  0  0  0  0  0  0
    6.0826   -4.9858    1.2694 C   0  0  1  0  0  0  0  0  0  0  0  0
    7.6130   -5.0703    1.1199 C   0  0  0  0  0  0  0  0  0  0  0  0
    8.2839   -3.8097    0.5831 C   0  0  0  0  0  0  0  0  0  0  0  0
    7.6170   -3.4100   -0.7075 C   0  0  0  0  0  0  0  0  0  0  0  0
    8.2598   -3.4112   -1.7517 O   0  0  0  0  0  0  0  0  0  0  0  0
    6.1485   -2.9889   -0.6272 C   0  0  0  0  0  0  0  0  0  0  0  0
    6.1313   -1.6452    0.1460 C   0  0  0  0  0  0  0  0  0  0  0  0
    5.6240   -2.7310   -2.0610 C   0  0  0  0  0  0  0  0  0  0  0  0
    5.3047   -4.1350    0.0547 C   0  0  2  0  0  0  0  0  0  0  0  0
    3.7677   -3.5685    0.3937 C   0  0  0  0  0  0  0  0  0  0  0  0
    2.5836   -4.4058    1.1855 C   0  0  1  0  0  0  0  0  0  0  0  0
    1.8808   -5.1775    0.2180 O   0  0  0  0  0  0  0  0  0  0  0  0
    3.0232   -5.2821    2.4804 C   0  0  1  0  0  0  0  0  0  0  0  0
    2.8480   -4.5097    3.7977 C   0  0  0  0  0  0  0  0  0  0  0  0
   -0.3663   -7.7891    2.5251 H   0  0  0  0  0  0  0  0  0  0  0  0
    0.3338   -7.6905    0.9028 H   0  0  0  0  0  0  0  0  0  0  0  0
    0.2120   -6.2331    1.9210 H   0  0  0  0  0  0  0  0  0  0  0  0
    3.8078   -7.3840    4.5136 H   0  0  0  0  0  0  0  0  0  0  0  0
    4.1539   -9.2770    2.1637 H   0  0  0  0  0  0  0  0  0  0  0  0
    4.0253   -9.6963    3.8535 H   0  0  0  0  0  0  0  0  0  0  0  0
    1.8833   -9.7088    2.0351 H   0  0  0  0  0  0  0  0  0  0  0  0
    0.9992   -7.6453    5.3451 H   0  0  0  0  0  0  0  0  0  0  0  0
   -0.1347   -9.4885    7.0339 H   0  0  0  0  0  0  0  0  0  0  0  0
    1.2196  -11.7539    3.9578 H   0  0  0  0  0  0  0  0  0  0  0  0
    4.6092   -7.9326    1.0243 H   0  0  0  0  0  0  0  0  0  0  0  0
    4.1251   -5.7879    1.0561 H   0  0  0  0  0  0  0  0  0  0  0  0
    5.2746   -3.3626    2.5015 H   0  0  0  0  0  0  0  0  0  0  0  0
    6.0113   -4.7004    3.4487 H   0  0  0  0  0  0  0  0  0  0  0  0
    8.0618   -5.2881    2.0882 H   0  0  0  0  0  0  0  0  0  0  0  0
    7.8709   -5.9064    0.4713 H   0  0  0  0  0  0  0  0  0  0  0  0
    8.1959   -2.9790    1.2781 H   0  0  0  0  0  0  0  0  0  0  0  0
    9.3548   -3.9763    0.4245 H   0  0  0  0  0  0  0  0  0  0  0  0
    5.1944   -1.0998    0.0033 H   0  0  0  0  0  0  0  0  0  0  0  0
    6.9280   -0.9842   -0.1997 H   0  0  0  0  0  0  0  0  0  0  0  0
    6.2900   -1.7847    1.2162 H   0  0  0  0  0  0  0  0  0  0  0  0
    4.6191   -2.3084   -2.0772 H   0  0  0  0  0  0  0  0  0  0  0  0
    5.6267   -3.6387   -2.6699 H   0  0  0  0  0  0  0  0  0  0  0  0
    6.2491   -2.0152   -2.5820 H   0  0  0  0  0  0  0  0  0  0  0  0
    5.1653   -4.8673   -0.7426 H   0  0  0  0  0  0  0  0  0  0  0  0
    3.8824   -2.6504    0.9746 H   0  0  0  0  0  0  0  0  0  0  0  0
    3.3319   -3.2287   -0.5433 H   0  0  0  0  0  0  0  0  0  0  0  0
    1.8846   -3.6587    1.5561 H   0  0  0  0  0  0  0  0  0  0  0  0
    2.4953   -5.5053   -0.4308 H   0  0  0  0  0  0  0  0  0  0  0  0
    3.1545   -3.4636    3.7187 H   0  0  0  0  0  0  0  0  0  0  0  0
    3.4367   -4.9771    4.5902 H   0  0  0  0  0  0  0  0  0  0  0  0
    1.8022   -4.5441    4.1068 H   0  0  0  0  0  0  0  0  0  0  0  0
  1  2  1  0
  1 31  1  0
  1 32  1  0
  1 33  1  0
  2  6  1  0
  2  3  2  0
  3 29  1  0
  3  4  1  0
  4  5  1  0
  4 12  1  0
  4 34  1  1
  5  6  1  0
  5 35  1  0
  5 36  1  0
  6  7  1  0
  6 37  1  6
  7 11  2  0
  7  8  1  0
  8  9  2  0
  8 38  1  0
  9 10  1  0
  9 39  1  0
 10 11  1  0
 11 40  1  0
 12 13  1  0
 13 17  1  0
 13 14  1  6
 13 15  1  0
 14 41  1  0
 15 29  1  0
 15 16  1  0
 15 42  1  6
 16 17  1  0
 16 43  1  0
 16 44  1  0
 17 25  1  0
 17 18  1  1
 18 19  1  0
 18 45  1  0
 18 46  1  0
 19 20  1  0
 19 47  1  0
 19 48  1  0
 20 21  2  0
 20 22  1  0
 22 23  1  0
 22 24  1  0
 22 25  1  0
 23 49  1  0
 23 50  1  0
 23 51  1  0
 24 52  1  0
 24 53  1  0
 24 54  1  0
 25 26  1  0
 25 55  1  6
 26 27  1  0
 26 56  1  0
 26 57  1  0
 27 28  1  0
 27 29  1  0
 27 58  1  1
 28 59  1  0
 29 30  1  1
 30 60  1  0
 30 61  1  0
 30 62  1  0
M  END
>  <i_m_ct_stereo_status>  (61) 
1

>  <s_m_source_file>  (61) 
/var/tmp/pbs.5076255.sched01/tmp9s019jnz/08u7fdliu.sdf

>  <i_m_source_file_index>  (61) 
26

>  <i_lp_mmshare_version>  (61) 
48012

>  <i_f3d_flags>  (61) 
0

>  <s_epik_input>  (61) 
W2NIXTFvW2NIXVtjSF1jMVtDQEBIXShDPTJbQ0gzXSlbQ0gyXVtDQEBIXShPMylDMltDQEBdKFtDSDNdKShbQ0BASF0oW0NIMl00KVtDQF0zKFtDQEBdNDU2KVtPSF0pW0NASF0oW09IXSlbQ0gyXVtDQEhdNkMoW0NIM10pKFtDSDNdKUMoPU8pW0NIMl1bQ0gyXTU=

>  <s_epik_cmdline>  (61) 
J2VwaWtfcHl0aG9uJywgJy1waHQnLCAnMi4wJywgJy1waCcsICc3LjAnLCAnLXRuJywgJzgnLCAnLW1hJywgJzIwMCcsICctaW1hZScsICc8aW5maWxlLm1hZT4nLCAnLW9tYWUnLCAnPG91dGZpbGUubWFlPic=

>  <r_lp_tautomer_probability>  (61) 
1

>  <r_epik_Ionization_Penalty>  (61) 
3.20884e-07

>  <r_epik_Ionization_Penalty_Charging>  (61) 
0

>  <r_epik_Ionization_Penalty_Neutral>  (61) 
3.20884e-07

>  <r_epik_State_Penalty>  (61) 
-0

>  <r_epik_Charging_Adjusted_Penalty>  (61) 
0

>  <i_epik_Tot_Q>  (61) 
0

>  <i_epik_Tot_abs_Q>  (61) 
0

>  <s_lp_Force_Field>  (61) 
OPLS3e

>  <r_lp_Energy>  (61) 
199.316

>  <b_lp_Chiralities_Consistent>  (61) 
1

>  <s_lp_Variant>  (61) 
17:0-1

>  <s_i_glide_gridfile>  (61) 
pfpi4k_grid

>  <i_i_glide_lignum>  (61) 
26

>  <i_i_glide_rotatable_bonds>  (61) 
3

>  <r_i_docking_score>  (61) 
-3.18704

>  <r_i_glide_ligand_efficiency>  (61) 
-0.106235

>  <r_i_glide_ligand_efficiency_sa>  (61) 
-0.330095

>  <r_i_glide_ligand_efficiency_ln>  (61) 
-0.724129

>  <r_i_glide_gscore>  (61) 
-3.18704

>  <r_i_glide_lipo>  (61) 
-0.553364

>  <r_i_glide_hbond>  (61) 
-0.189596

>  <r_i_glide_metal>  (61) 
-0

>  <r_i_glide_rewards>  (61) 
-0.898379

>  <r_i_glide_evdw>  (61) 
-27.4268

>  <r_i_glide_ecoul>  (61) 
-1.93491

>  <r_i_glide_erotb>  (61) 
0.115881

>  <r_i_glide_esite>  (61) 
0

>  <r_i_glide_emodel>  (61) 
-33.6724

>  <r_i_glide_energy>  (61) 
-29.3617

>  <r_i_glide_einternal>  (61) 
0.753657

>  <r_i_glide_intrahb_reward>  (61) 
-0

>  <i_i_glide_confnum>  (61) 
2

>  <i_i_glide_posenum>  (61) 
4

>  <r_i_glide_eff_state_penalty>  (61) 
0

>  <ligand_id>  (61) 
17

>  <original_smiles>  (61) 
CC1=C2C(CC1c1ccoc1)OC1(O)C3CC14CCC(=O)C(C)(C)C4CC(O)C23C

>  <smiles>  (61) 
[H]OC1([H])C([H])([H])C2([H])C(C([H])([H])[H])(C([H])([H])[H])C(=O)C([H])([H])C([H])([H])C23C([H])([H])C2([H])C3(O[H])OC3([H])C(=C(C([H])([H])[H])C([H])(c4c([H])oc([H])c4[H])C3([H])[H])C12C([H])([H])[H]

$$$$
18:0:0
     RDKit          3D

100106  0  0  1  0  0  0  0  0999 V2000
    1.1499  -10.5979   10.6879 C   0  0  0  0  0  0  0  0  0  0  0  0
    2.3401   -9.8688   10.4708 O   0  0  0  0  0  0  0  0  0  0  0  0
    3.5326  -10.4272   10.7307 C   0  0  0  0  0  0  0  0  0  0  0  0
    3.7111  -11.5622   11.1729 O   0  0  0  0  0  0  0  0  0  0  0  0
    4.7221   -9.4845   10.4470 C   0  0  2  0  0  0  0  0  0  0  0  0
    4.5650   -8.1896   11.2561 C   0  0  0  0  0  0  0  0  0  0  0  0
    4.8423   -7.0698   10.2582 C   0  0  0  0  0  0  0  0  0  0  0  0
    4.4569   -7.5875    8.8460 C   0  0  1  0  0  0  0  0  0  0  0  0
    3.0596   -7.5490    9.0025 O   0  0  0  0  0  0  0  0  0  0  0  0
    4.8512   -6.7556    7.5236 C   0  0  2  0  0  0  0  0  0  0  0  0
    5.3904   -5.2624    7.8252 C   0  0  1  0  0  0  0  0  0  0  0  0
    6.5361   -5.1184    8.8538 C   0  0  0  0  0  0  0  0  0  0  0  0
    7.3902   -3.9140    8.4695 C   0  0  1  0  0  0  0  0  0  0  0  0
    8.8531   -4.2551    8.1440 C   0  0  0  0  0  0  0  0  0  0  0  0
    6.7368   -3.3940    7.3297 O   0  0  0  0  0  0  0  0  0  0  0  0
    6.0668   -4.4611    6.6787 C   0  0  2  0  0  0  0  0  0  0  0  0
    5.1430   -3.7793    5.6714 C   0  0  0  0  0  0  0  0  0  0  0  0
    4.6465   -4.7281    4.5896 C   0  0  0  0  0  0  0  0  0  0  0  0
    3.3630   -4.3635    4.1841 O   0  0  0  0  0  0  0  0  0  0  0  0
    3.2452   -4.5538    2.7803 C   0  0  0  0  0  0  0  0  0  0  0  0
    4.6405   -4.9944    2.3708 C   0  0  0  0  0  0  0  0  0  0  0  0
    5.4426   -4.5913    3.4619 O   0  0  0  0  0  0  0  0  0  0  0  0
    4.6425   -6.2778    4.9361 C   0  0  1  0  0  0  0  0  0  0  0  0
    5.9728   -6.8521    4.8423 O   0  0  0  0  0  0  0  0  0  0  0  0
    3.8670   -6.9376    6.2118 C   0  0  2  0  0  0  0  0  0  0  0  0
    2.4703   -6.2059    6.4207 C   0  0  1  0  0  0  0  0  0  0  0  0
    2.5146   -4.8412    6.7497 O   0  0  0  0  0  0  0  0  0  0  0  0
    1.4926   -6.4409    5.2570 C   0  0  0  0  0  0  0  0  0  0  0  0
    0.8855   -7.8375    5.3598 C   0  0  1  0  0  0  0  0  0  0  0  0
    0.1100   -8.3912    4.1123 C   0  0  0  0  0  0  0  0  0  0  0  0
   -1.3922   -8.4225    4.4325 C   0  0  0  0  0  0  0  0  0  0  0  0
    0.2507   -7.5610    2.8027 C   0  0  0  0  0  0  0  0  0  0  0  0
    0.5960   -9.8533    3.9504 C   0  0  1  0  0  0  0  0  0  0  0  0
    1.4266  -10.0580    2.8254 O   0  0  0  0  0  0  0  0  0  0  0  0
    1.2884  -10.1843    5.2919 C   0  0  1  0  0  0  0  0  0  0  0  0
    2.0912  -11.3520    5.2622 O   0  0  0  0  0  0  0  0  0  0  0  0
    1.8932   -8.8859    5.9243 C   0  0  2  0  0  0  0  0  0  0  0  0
    1.5683   -9.0238    7.2867 O   0  0  0  0  0  0  0  0  0  0  0  0
    3.4823   -8.5203    5.7721 C   0  0  1  0  0  0  0  0  0  0  0  0
    3.7615   -8.8592    4.2590 C   0  0  0  0  0  0  0  0  0  0  0  0
    4.4722   -9.5651    6.4239 C   0  0  0  0  0  0  0  0  0  0  0  0
    4.3754  -10.0247    7.8934 C   0  0  1  0  0  0  0  0  0  0  0  0
    5.0611  -11.2739    8.0389 O   0  0  0  0  0  0  0  0  0  0  0  0
    4.2631  -12.4482    7.9441 C   0  0  0  0  0  0  0  0  0  0  0  0
    4.9947   -9.0629    8.9463 C   0  0  2  0  0  0  0  0  0  0  0  0
    6.5562   -9.1141    8.7872 C   0  0  0  0  0  0  0  0  0  0  0  0
    0.3129   -9.9482   10.4415 H   0  0  0  0  0  0  0  0  0  0  0  0
    1.0555  -10.8996   11.7317 H   0  0  0  0  0  0  0  0  0  0  0  0
    1.1111  -11.4814   10.0489 H   0  0  0  0  0  0  0  0  0  0  0  0
    5.5931  -10.0177   10.8190 H   0  0  0  0  0  0  0  0  0  0  0  0
    3.5675   -8.0616   11.6717 H   0  0  0  0  0  0  0  0  0  0  0  0
    5.2625   -8.1553   12.0929 H   0  0  0  0  0  0  0  0  0  0  0  0
    4.3330   -6.1410   10.5421 H   0  0  0  0  0  0  0  0  0  0  0  0
    5.9076   -6.9192   10.3842 H   0  0  0  0  0  0  0  0  0  0  0  0
    2.6464   -8.0757    8.3205 H   0  0  0  0  0  0  0  0  0  0  0  0
    5.7885   -7.2137    7.2193 H   0  0  0  0  0  0  0  0  0  0  0  0
    4.5674   -4.6606    8.2067 H   0  0  0  0  0  0  0  0  0  0  0  0
    6.1484   -4.9076    9.8486 H   0  0  0  0  0  0  0  0  0  0  0  0
    7.1600   -6.0104    8.8917 H   0  0  0  0  0  0  0  0  0  0  0  0
    7.3693   -3.1648    9.2590 H   0  0  0  0  0  0  0  0  0  0  0  0
    9.3755   -4.6223    9.0281 H   0  0  0  0  0  0  0  0  0  0  0  0
    9.3832   -3.3687    7.7980 H   0  0  0  0  0  0  0  0  0  0  0  0
    8.9315   -5.0184    7.3698 H   0  0  0  0  0  0  0  0  0  0  0  0
    6.8591   -5.0292    6.1890 H   0  0  0  0  0  0  0  0  0  0  0  0
    4.3296   -3.2696    6.1854 H   0  0  0  0  0  0  0  0  0  0  0  0
    5.6796   -2.9820    5.1605 H   0  0  0  0  0  0  0  0  0  0  0  0
    2.5198   -5.3364    2.5490 H   0  0  0  0  0  0  0  0  0  0  0  0
    2.9174   -3.6334    2.2759 H   0  0  0  0  0  0  0  0  0  0  0  0
    4.6699   -6.0757    2.3271 H   0  0  0  0  0  0  0  0  0  0  0  0
    4.9362   -4.5817    1.3971 H   0  0  0  0  0  0  0  0  0  0  0  0
    4.1771   -6.5859    4.0167 H   0  0  0  0  0  0  0  0  0  0  0  0
    6.5413   -6.5031    5.5182 H   0  0  0  0  0  0  0  0  0  0  0  0
    1.9195   -6.5590    7.2825 H   0  0  0  0  0  0  0  0  0  0  0  0
    3.0044   -4.7436    7.5498 H   0  0  0  0  0  0  0  0  0  0  0  0
    0.6917   -5.6965    5.2753 H   0  0  0  0  0  0  0  0  0  0  0  0
    2.0016   -6.3344    4.2873 H   0  0  0  0  0  0  0  0  0  0  0  0
    0.1185   -7.7068    6.1358 H   0  0  0  0  0  0  0  0  0  0  0  0
   -1.9653   -8.8686    3.6186 H   0  0  0  0  0  0  0  0  0  0  0  0
   -1.7846   -7.4211    4.6180 H   0  0  0  0  0  0  0  0  0  0  0  0
   -1.5686   -9.0270    5.3217 H   0  0  0  0  0  0  0  0  0  0  0  0
   -0.3101   -8.0237    1.9868 H   0  0  0  0  0  0  0  0  0  0  0  0
    1.2792   -7.4715    2.4553 H   0  0  0  0  0  0  0  0  0  0  0  0
   -0.1474   -6.5552    2.9294 H   0  0  0  0  0  0  0  0  0  0  0  0
   -0.2358  -10.5449    3.7880 H   0  0  0  0  0  0  0  0  0  0  0  0
    1.7003  -10.9641    2.8340 H   0  0  0  0  0  0  0  0  0  0  0  0
    0.4398  -10.4854    5.9158 H   0  0  0  0  0  0  0  0  0  0  0  0
    1.8891  -11.8567    6.0465 H   0  0  0  0  0  0  0  0  0  0  0  0
    1.6721   -9.9424    7.4994 H   0  0  0  0  0  0  0  0  0  0  0  0
    3.6099   -9.9059    4.0085 H   0  0  0  0  0  0  0  0  0  0  0  0
    4.7887   -8.7213    3.9434 H   0  0  0  0  0  0  0  0  0  0  0  0
    3.1201   -8.3147    3.5762 H   0  0  0  0  0  0  0  0  0  0  0  0
    4.3787  -10.4983    5.8809 H   0  0  0  0  0  0  0  0  0  0  0  0
    5.5014   -9.2746    6.1902 H   0  0  0  0  0  0  0  0  0  0  0  0
    3.3387  -10.2245    8.1267 H   0  0  0  0  0  0  0  0  0  0  0  0
    4.8719  -13.3107    8.2100 H   0  0  0  0  0  0  0  0  0  0  0  0
    3.8807  -12.6002    6.9356 H   0  0  0  0  0  0  0  0  0  0  0  0
    3.4202  -12.4324    8.6356 H   0  0  0  0  0  0  0  0  0  0  0  0
    6.9068   -8.9087    7.7795 H   0  0  0  0  0  0  0  0  0  0  0  0
    6.9489  -10.1007    9.0356 H   0  0  0  0  0  0  0  0  0  0  0  0
    7.0781   -8.4218    9.4428 H   0  0  0  0  0  0  0  0  0  0  0  0
  1  2  1  0
  1 47  1  0
  1 48  1  0
  1 49  1  0
  2  3  1  0
  3  4  2  0
  3  5  1  0
  5 45  1  0
  5  6  1  0
  5 50  1  1
  6  7  1  0
  6 51  1  0
  6 52  1  0
  7  8  1  0
  7 53  1  0
  7 54  1  0
  8 45  1  0
  8  9  1  1
  8 10  1  0
  9 55  1  0
 10 25  1  0
 10 11  1  0
 10 56  1  6
 11 16  1  0
 11 12  1  0
 11 57  1  1
 12 13  1  0
 12 58  1  0
 12 59  1  0
 13 14  1  0
 13 15  1  0
 13 60  1  1
 14 61  1  0
 14 62  1  0
 14 63  1  0
 15 16  1  0
 16 17  1  0
 16 64  1  6
 17 18  1  0
 17 65  1  0
 17 66  1  0
 18 22  1  0
 18 19  1  0
 18 23  1  0
 19 20  1  0
 20 21  1  0
 20 67  1  0
 20 68  1  0
 21 22  1  0
 21 69  1  0
 21 70  1  0
 23 24  1  0
 23 25  1  0
 23 71  1  6
 24 72  1  0
 25 39  1  6
 25 26  1  0
 26 27  1  0
 26 28  1  0
 26 73  1  1
 27 74  1  0
 28 29  1  0
 28 75  1  0
 28 76  1  0
 29 37  1  0
 29 30  1  0
 29 77  1  1
 30 31  1  0
 30 32  1  0
 30 33  1  0
 31 78  1  0
 31 79  1  0
 31 80  1  0
 32 81  1  0
 32 82  1  0
 32 83  1  0
 33 34  1  0
 33 35  1  0
 33 84  1  6
 34 85  1  0
 35 36  1  0
 35 37  1  0
 35 86  1  1
 36 87  1  0
 37 38  1  1
 37 39  1  0
 38 88  1  0
 39 40  1  6
 39 41  1  0
 40 89  1  0
 40 90  1  0
 40 91  1  0
 41 42  1  0
 41 92  1  0
 41 93  1  0
 42 43  1  0
 42 45  1  0
 42 94  1  1
 43 44  1  0
 44 95  1  0
 44 96  1  0
 44 97  1  0
 45 46  1  1
 46 98  1  0
 46 99  1  0
 46100  1  0
M  END
>  <i_m_ct_stereo_status>  (62) 
1

>  <s_m_source_file>  (62) 
/var/tmp/pbs.5076255.sched01/tmp9s019jnz/08u7fdliu.sdf

>  <i_m_source_file_index>  (62) 
27

>  <i_lp_mmshare_version>  (62) 
48012

>  <i_f3d_flags>  (62) 
0

>  <s_epik_input>  (62) 
W0NIM11PQyg9TylbQ0BASF0xW0NIMl1bQ0gyXVtDQF0yKFtPSF0pW0NAXTEoW0NIM10pW0NASF0oT1tDSDNdKVtDSDJdW0NAQF0oW0NIM10pKFtDQEBdMyhbT0hdKVtDQEBIXShbQ0gyXVtDQEBIXTRbT0hdKUMoW0NIM10pKFtDSDNdKVtDQEBIXShbT0hdKVtDQEhdM1tPSF0pW0NAXTQoW0NAQEhdNVtPSF0pW0NASF0yW0NAQEhdKFtDSDJdW0NASF0oTzYpW0NIM10pW0NASF02W0NIMl1DNTdPW0NIMl1bQ0gyXU83

>  <s_epik_cmdline>  (62) 
J2VwaWtfcHl0aG9uJywgJy1waHQnLCAnMi4wJywgJy1waCcsICc3LjAnLCAnLXRuJywgJzgnLCAnLW1hJywgJzIwMCcsICctaW1hZScsICc8aW5maWxlLm1hZT4nLCAnLW9tYWUnLCAnPG91dGZpbGUubWFlPic=

>  <r_lp_tautomer_probability>  (62) 
1

>  <r_epik_Ionization_Penalty>  (62) 
1.23764e-06

>  <r_epik_Ionization_Penalty_Charging>  (62) 
0

>  <r_epik_Ionization_Penalty_Neutral>  (62) 
1.23764e-06

>  <r_epik_State_Penalty>  (62) 
-0

>  <r_epik_Charging_Adjusted_Penalty>  (62) 
0

>  <i_epik_Tot_Q>  (62) 
0

>  <i_epik_Tot_abs_Q>  (62) 
0

>  <s_epik_Chemistry_Notes>  (62) 
This compound has an ester and may undergo hydrolysis at high or low pH.

>  <s_lp_Force_Field>  (62) 
OPLS3e

>  <r_lp_Energy>  (62) 
148.617

>  <b_lp_Chiralities_Consistent>  (62) 
1

>  <s_lp_Variant>  (62) 
18:0-1

>  <s_i_glide_gridfile>  (62) 
pfpi4k_grid

>  <i_i_glide_lignum>  (62) 
27

>  <i_i_glide_rotatable_bonds>  (62) 
9

>  <r_i_docking_score>  (62) 
-2.34677

>  <r_i_glide_ligand_efficiency>  (62) 
-0.0510167

>  <r_i_glide_ligand_efficiency_sa>  (62) 
-0.182795

>  <r_i_glide_ligand_efficiency_ln>  (62) 
-0.48601

>  <r_i_glide_gscore>  (62) 
-2.34677

>  <r_i_glide_lipo>  (62) 
-0.0343381

>  <r_i_glide_hbond>  (62) 
0

>  <r_i_glide_metal>  (62) 
-0

>  <r_i_glide_rewards>  (62) 
-0.500309

>  <r_i_glide_evdw>  (62) 
-18.6944

>  <r_i_glide_ecoul>  (62) 
-6.12369

>  <r_i_glide_erotb>  (62) 
0.0495728

>  <r_i_glide_esite>  (62) 
-0.00841852

>  <r_i_glide_emodel>  (62) 
-30.3797

>  <r_i_glide_energy>  (62) 
-24.8181

>  <r_i_glide_einternal>  (62) 
2.88524

>  <r_i_glide_intrahb_reward>  (62) 
-0.5

>  <i_i_glide_confnum>  (62) 
4

>  <i_i_glide_posenum>  (62) 
2

>  <r_i_glide_eff_state_penalty>  (62) 
0

>  <ligand_id>  (62) 
18

>  <original_smiles>  (62) 
COC(=O)C1CCC2(O)C3C4CC(C)OC4CC4(OCCO4)C(O)C34C(O)CC3C(C)(C)C(O)C(O)C3(O)C4(C)CC(OC)C12C

>  <smiles>  (62) 
[H]OC1([H])C([H])(O[H])C(C([H])([H])[H])(C([H])([H])[H])C2([H])C([H])([H])C([H])(O[H])C34C([H])(O[H])C5(OC([H])([H])C([H])([H])O5)C([H])([H])C5([H])OC([H])(C([H])([H])[H])C([H])([H])C5([H])C3([H])C3(O[H])C([H])([H])C([H])([H])C([H])(C(=O)OC([H])([H])[H])C3(C([H])([H])[H])C([H])(OC([H])([H])[H])C([H])([H])C4(C([H])([H])[H])C12O[H]

$$$$
18:0:1
     RDKit          3D

100106  0  0  1  0  0  0  0  0999 V2000
    0.6859   -9.4652    9.7127 C   0  0  0  0  0  0  0  0  0  0  0  0
    1.7192   -8.5021    9.6671 O   0  0  0  0  0  0  0  0  0  0  0  0
    2.9292   -8.8053   10.1717 C   0  0  0  0  0  0  0  0  0  0  0  0
    3.2211   -9.8308   10.7740 O   0  0  0  0  0  0  0  0  0  0  0  0
    3.9681   -7.6868    9.9320 C   0  0  2  0  0  0  0  0  0  0  0  0
    3.4911   -6.3806   10.5839 C   0  0  0  0  0  0  0  0  0  0  0  0
    3.7059   -5.3105    9.5178 C   0  0  0  0  0  0  0  0  0  0  0  0
    3.5946   -5.9997    8.1309 C   0  0  1  0  0  0  0  0  0  0  0  0
    2.2000   -6.1883    8.1411 O   0  0  0  0  0  0  0  0  0  0  0  0
    3.9975   -5.2337    6.7765 C   0  0  2  0  0  0  0  0  0  0  0  0
    4.2344   -3.6508    6.9690 C   0  0  1  0  0  0  0  0  0  0  0  0
    5.2040   -3.2188    8.0950 C   0  0  0  0  0  0  0  0  0  0  0  0
    5.8868   -1.9196    7.6795 C   0  0  1  0  0  0  0  0  0  0  0  0
    7.4151   -2.0213    7.5515 C   0  0  0  0  0  0  0  0  0  0  0  0
    5.3050   -1.6250    6.4271 O   0  0  0  0  0  0  0  0  0  0  0  0
    4.9088   -2.8462    5.8260 C   0  0  2  0  0  0  0  0  0  0  0  0
    4.0197   -2.4264    4.6597 C   0  0  0  0  0  0  0  0  0  0  0  0
    3.8257   -3.5397    3.6405 C   0  0  0  0  0  0  0  0  0  0  0  0
    2.5527   -3.4535    3.0784 O   0  0  0  0  0  0  0  0  0  0  0  0
    2.6402   -3.7633    1.6913 C   0  0  0  0  0  0  0  0  0  0  0  0
    4.1285   -3.9828    1.4738 C   0  0  0  0  0  0  0  0  0  0  0  0
    4.7169   -3.3555    2.5941 O   0  0  0  0  0  0  0  0  0  0  0  0
    4.0393   -5.0280    4.1451 C   0  0  1  0  0  0  0  0  0  0  0  0
    5.4480   -5.3637    4.2544 O   0  0  0  0  0  0  0  0  0  0  0  0
    3.2238   -5.6983    5.3904 C   0  0  2  0  0  0  0  0  0  0  0  0
    1.7124   -5.2077    5.3705 C   0  0  1  0  0  0  0  0  0  0  0  0
    1.4745   -3.8243    5.5260 O   0  0  0  0  0  0  0  0  0  0  0  0
    0.9420   -5.7225    4.1409 C   0  0  0  0  0  0  0  0  0  0  0  0
    0.5636   -7.1928    4.3171 C   0  0  1  0  0  0  0  0  0  0  0  0
    0.0520   -7.9795    3.0593 C   0  0  0  0  0  0  0  0  0  0  0  0
   -1.4546   -8.2636    3.2206 C   0  0  0  0  0  0  0  0  0  0  0  0
    0.2161   -7.2401    1.6987 C   0  0  0  0  0  0  0  0  0  0  0  0
    0.8028   -9.3400    3.0944 C   0  0  1  0  0  0  0  0  0  0  0  0
    1.8063   -9.4776    2.0959 O   0  0  0  0  0  0  0  0  0  0  0  0
    1.3645   -9.4385    4.5332 C   0  0  1  0  0  0  0  0  0  0  0  0
    2.3580  -10.4414    4.6917 O   0  0  0  0  0  0  0  0  0  0  0  0
    1.6528   -7.9973    5.0857 C   0  0  2  0  0  0  0  0  0  0  0  0
    1.1629   -8.0764    6.4004 O   0  0  0  0  0  0  0  0  0  0  0  0
    3.1660   -7.3566    5.0775 C   0  0  1  0  0  0  0  0  0  0  0  0
    3.6891   -7.7671    3.6465 C   0  0  0  0  0  0  0  0  0  0  0  0
    4.2367   -8.1402    5.9319 C   0  0  0  0  0  0  0  0  0  0  0  0
    4.0326   -8.4907    7.4203 C   0  0  1  0  0  0  0  0  0  0  0  0
    4.8895   -9.5831    7.7775 O   0  0  0  0  0  0  0  0  0  0  0  0
    4.4098  -10.8926    7.4907 C   0  0  0  0  0  0  0  0  0  0  0  0
    4.3467   -7.3503    8.4352 C   0  0  2  0  0  0  0  0  0  0  0  0
    5.9011   -7.1378    8.4519 C   0  0  0  0  0  0  0  0  0  0  0  0
   -0.2003   -9.0454    9.2413 H   0  0  0  0  0  0  0  0  0  0  0  0
    0.4424   -9.7377   10.7405 H   0  0  0  0  0  0  0  0  0  0  0  0
    0.9751  -10.3613    9.1630 H   0  0  0  0  0  0  0  0  0  0  0  0
    4.8622   -8.0243   10.4523 H   0  0  0  0  0  0  0  0  0  0  0  0
    2.4416   -6.4069   10.8769 H   0  0  0  0  0  0  0  0  0  0  0  0
    4.0631   -6.1532   11.4835 H   0  0  0  0  0  0  0  0  0  0  0  0
    3.0213   -4.4633    9.6453 H   0  0  0  0  0  0  0  0  0  0  0  0
    4.7085   -4.9669    9.7374 H   0  0  0  0  0  0  0  0  0  0  0  0
    1.9832   -6.7610    8.8612 H   0  0  0  0  0  0  0  0  0  0  0  0
    5.0265   -5.5445    6.6245 H   0  0  0  0  0  0  0  0  0  0  0  0
    3.2742   -3.1842    7.1839 H   0  0  0  0  0  0  0  0  0  0  0  0
    4.6672   -2.9970    9.0150 H   0  0  0  0  0  0  0  0  0  0  0  0
    5.9592   -3.9784    8.2917 H   0  0  0  0  0  0  0  0  0  0  0  0
    5.6422   -1.1207    8.3771 H   0  0  0  0  0  0  0  0  0  0  0  0
    7.8781   -2.2076    8.5214 H   0  0  0  0  0  0  0  0  0  0  0  0
    7.8274   -1.0903    7.1645 H   0  0  0  0  0  0  0  0  0  0  0  0
    7.7134   -2.8271    6.8811 H   0  0  0  0  0  0  0  0  0  0  0  0
    5.8387   -3.3056    5.4876 H   0  0  0  0  0  0  0  0  0  0  0  0
    3.0796   -2.0201    5.0292 H   0  0  0  0  0  0  0  0  0  0  0  0
    4.4755   -1.5967    4.1248 H   0  0  0  0  0  0  0  0  0  0  0  0
    2.0968   -4.6795    1.4574 H   0  0  0  0  0  0  0  0  0  0  0  0
    2.2342   -2.9591    1.0609 H   0  0  0  0  0  0  0  0  0  0  0  0
    4.3419   -5.0423    1.5434 H   0  0  0  0  0  0  0  0  0  0  0  0
    4.4684   -3.6085    0.4969 H   0  0  0  0  0  0  0  0  0  0  0  0
    3.7546   -5.4889    3.2143 H   0  0  0  0  0  0  0  0  0  0  0  0
    5.8570   -4.8809    4.9636 H   0  0  0  0  0  0  0  0  0  0  0  0
    1.1388   -5.5869    6.2036 H   0  0  0  0  0  0  0  0  0  0  0  0
    1.8572   -3.3677    4.7916 H   0  0  0  0  0  0  0  0  0  0  0  0
    0.0337   -5.1366    4.0034 H   0  0  0  0  0  0  0  0  0  0  0  0
    1.5412   -5.6120    3.2238 H   0  0  0  0  0  0  0  0  0  0  0  0
   -0.3099   -7.1301    4.9830 H   0  0  0  0  0  0  0  0  0  0  0  0
   -1.8355   -8.8608    2.3913 H   0  0  0  0  0  0  0  0  0  0  0  0
   -2.0332   -7.3397    3.2628 H   0  0  0  0  0  0  0  0  0  0  0  0
   -1.6488   -8.8221    4.1370 H   0  0  0  0  0  0  0  0  0  0  0  0
   -0.1642   -7.8468    0.8778 H   0  0  0  0  0  0  0  0  0  0  0  0
    1.2537   -7.0080    1.4548 H   0  0  0  0  0  0  0  0  0  0  0  0
   -0.3539   -6.3130    1.6765 H   0  0  0  0  0  0  0  0  0  0  0  0
    0.1153  -10.1768    2.9190 H   0  0  0  0  0  0  0  0  0  0  0  0
    2.1105  -10.3723    2.1107 H   0  0  0  0  0  0  0  0  0  0  0  0
    0.5134   -9.8342    5.0943 H   0  0  0  0  0  0  0  0  0  0  0  0
    3.0886  -10.2283    4.1337 H   0  0  0  0  0  0  0  0  0  0  0  0
    1.6221   -8.7891    6.8131 H   0  0  0  0  0  0  0  0  0  0  0  0
    3.7560   -8.8394    3.4882 H   0  0  0  0  0  0  0  0  0  0  0  0
    4.7095   -7.4752    3.4330 H   0  0  0  0  0  0  0  0  0  0  0  0
    3.0556   -7.4070    2.8458 H   0  0  0  0  0  0  0  0  0  0  0  0
    4.3757   -9.1087    5.4703 H   0  0  0  0  0  0  0  0  0  0  0  0
    5.2229   -7.6872    5.7836 H   0  0  0  0  0  0  0  0  0  0  0  0
    3.0229   -8.8559    7.5451 H   0  0  0  0  0  0  0  0  0  0  0  0
    5.0847  -11.6217    7.9370 H   0  0  0  0  0  0  0  0  0  0  0  0
    4.3823  -11.0937    6.4211 H   0  0  0  0  0  0  0  0  0  0  0  0
    3.4166  -11.0676    7.9074 H   0  0  0  0  0  0  0  0  0  0  0  0
    6.3359   -6.9600    7.4730 H   0  0  0  0  0  0  0  0  0  0  0  0
    6.4184   -8.0139    8.8429 H   0  0  0  0  0  0  0  0  0  0  0  0
    6.2162   -6.3112    9.0834 H   0  0  0  0  0  0  0  0  0  0  0  0
  1  2  1  0
  1 47  1  0
  1 48  1  0
  1 49  1  0
  2  3  1  0
  3  4  2  0
  3  5  1  0
  5 45  1  0
  5  6  1  0
  5 50  1  1
  6  7  1  0
  6 51  1  0
  6 52  1  0
  7  8  1  0
  7 53  1  0
  7 54  1  0
  8 45  1  0
  8  9  1  6
  8 10  1  0
  9 55  1  0
 10 25  1  0
 10 11  1  0
 10 56  1  6
 11 16  1  0
 11 12  1  0
 11 57  1  1
 12 13  1  0
 12 58  1  0
 12 59  1  0
 13 14  1  0
 13 15  1  0
 13 60  1  1
 14 61  1  0
 14 62  1  0
 14 63  1  0
 15 16  1  0
 16 17  1  0
 16 64  1  6
 17 18  1  0
 17 65  1  0
 17 66  1  0
 18 22  1  0
 18 19  1  0
 18 23  1  0
 19 20  1  0
 20 21  1  0
 20 67  1  0
 20 68  1  0
 21 22  1  0
 21 69  1  0
 21 70  1  0
 23 24  1  0
 23 25  1  0
 23 71  1  6
 24 72  1  0
 25 39  1  6
 25 26  1  0
 26 27  1  0
 26 28  1  0
 26 73  1  1
 27 74  1  0
 28 29  1  0
 28 75  1  0
 28 76  1  0
 29 37  1  0
 29 30  1  0
 29 77  1  1
 30 31  1  0
 30 32  1  0
 30 33  1  0
 31 78  1  0
 31 79  1  0
 31 80  1  0
 32 81  1  0
 32 82  1  0
 32 83  1  0
 33 34  1  0
 33 35  1  0
 33 84  1  6
 34 85  1  0
 35 36  1  0
 35 37  1  0
 35 86  1  1
 36 87  1  0
 37 38  1  1
 37 39  1  0
 38 88  1  0
 39 40  1  6
 39 41  1  0
 40 89  1  0
 40 90  1  0
 40 91  1  0
 41 42  1  0
 41 92  1  0
 41 93  1  0
 42 43  1  0
 42 45  1  0
 42 94  1  6
 43 44  1  0
 44 95  1  0
 44 96  1  0
 44 97  1  0
 45 46  1  1
 46 98  1  0
 46 99  1  0
 46100  1  0
M  END
>  <i_m_ct_stereo_status>  (63) 
1

>  <s_m_source_file>  (63) 
/var/tmp/pbs.5076255.sched01/tmp9s019jnz/08u7fdliu.sdf

>  <i_m_source_file_index>  (63) 
27

>  <i_lp_mmshare_version>  (63) 
48012

>  <i_f3d_flags>  (63) 
0

>  <s_epik_input>  (63) 
W0NIM11PQyg9TylbQ0BASF0xW0NIMl1bQ0gyXVtDQF0yKFtPSF0pW0NAXTEoW0NIM10pW0NASF0oT1tDSDNdKVtDSDJdW0NAQF0oW0NIM10pKFtDQEBdMyhbT0hdKVtDQEBIXShbQ0gyXVtDQEBIXTRbT0hdKUMoW0NIM10pKFtDSDNdKVtDQEBIXShbT0hdKVtDQEhdM1tPSF0pW0NAXTQoW0NAQEhdNVtPSF0pW0NASF0yW0NAQEhdKFtDSDJdW0NASF0oTzYpW0NIM10pW0NASF02W0NIMl1DNTdPW0NIMl1bQ0gyXU83

>  <s_epik_cmdline>  (63) 
J2VwaWtfcHl0aG9uJywgJy1waHQnLCAnMi4wJywgJy1waCcsICc3LjAnLCAnLXRuJywgJzgnLCAnLW1hJywgJzIwMCcsICctaW1hZScsICc8aW5maWxlLm1hZT4nLCAnLW9tYWUnLCAnPG91dGZpbGUubWFlPic=

>  <r_lp_tautomer_probability>  (63) 
1

>  <r_epik_Ionization_Penalty>  (63) 
1.23764e-06

>  <r_epik_Ionization_Penalty_Charging>  (63) 
0

>  <r_epik_Ionization_Penalty_Neutral>  (63) 
1.23764e-06

>  <r_epik_State_Penalty>  (63) 
-0

>  <r_epik_Charging_Adjusted_Penalty>  (63) 
0

>  <i_epik_Tot_Q>  (63) 
0

>  <i_epik_Tot_abs_Q>  (63) 
0

>  <s_epik_Chemistry_Notes>  (63) 
This compound has an ester and may undergo hydrolysis at high or low pH.

>  <s_lp_Force_Field>  (63) 
OPLS3e

>  <r_lp_Energy>  (63) 
148.617

>  <b_lp_Chiralities_Consistent>  (63) 
1

>  <s_lp_Variant>  (63) 
18:0-1

>  <s_i_glide_gridfile>  (63) 
pfpi4k_grid

>  <i_i_glide_lignum>  (63) 
27

>  <i_i_glide_rotatable_bonds>  (63) 
9

>  <r_i_docking_score>  (63) 
-1.7121

>  <r_i_glide_ligand_efficiency>  (63) 
-0.0372197

>  <r_i_glide_ligand_efficiency_sa>  (63) 
-0.13336

>  <r_i_glide_ligand_efficiency_ln>  (63) 
-0.354573

>  <r_i_glide_gscore>  (63) 
-1.7121

>  <r_i_glide_lipo>  (63) 
-0.0795474

>  <r_i_glide_hbond>  (63) 
0

>  <r_i_glide_metal>  (63) 
-0

>  <r_i_glide_rewards>  (63) 
-0.5

>  <r_i_glide_evdw>  (63) 
-22.3252

>  <r_i_glide_ecoul>  (63) 
-0.419058

>  <r_i_glide_erotb>  (63) 
0.0495728

>  <r_i_glide_esite>  (63) 
-0.00301356

>  <r_i_glide_emodel>  (63) 
-28.8379

>  <r_i_glide_energy>  (63) 
-22.7442

>  <r_i_glide_einternal>  (63) 
0.743198

>  <r_i_glide_intrahb_reward>  (63) 
-0.5

>  <i_i_glide_confnum>  (63) 
4

>  <i_i_glide_posenum>  (63) 
8

>  <r_i_glide_eff_state_penalty>  (63) 
0

>  <ligand_id>  (63) 
18

>  <original_smiles>  (63) 
COC(=O)C1CCC2(O)C3C4CC(C)OC4CC4(OCCO4)C(O)C34C(O)CC3C(C)(C)C(O)C(O)C3(O)C4(C)CC(OC)C12C

>  <smiles>  (63) 
[H]OC1([H])C([H])(O[H])C(C([H])([H])[H])(C([H])([H])[H])C2([H])C([H])([H])C([H])(O[H])C34C([H])(O[H])C5(OC([H])([H])C([H])([H])O5)C([H])([H])C5([H])OC([H])(C([H])([H])[H])C([H])([H])C5([H])C3([H])C3(O[H])C([H])([H])C([H])([H])C([H])(C(=O)OC([H])([H])[H])C3(C([H])([H])[H])C([H])(OC([H])([H])[H])C([H])([H])C4(C([H])([H])[H])C12O[H]

$$$$
19:0:0
     RDKit          3D

 21 22  0  0  1  0  0  0  0  0999 V2000
    8.3047   -3.9155    0.4236 O   0  0  0  0  0  0  0  0  0  0  0  0
    7.4963   -3.0424    0.0371 C   0  0  0  0  0  0  0  0  0  0  0  0
    7.8216   -1.8846   -0.3220 O   0  0  0  0  0  0  0  0  0  0  0  0
    5.9870   -3.3632    0.0420 C   0  0  2  0  0  0  0  0  0  0  0  0
    5.7331   -4.7129    0.3611 O   0  0  0  0  0  0  0  0  0  0  0  0
    5.3535   -2.8789   -1.2709 C   0  0  0  0  0  0  0  0  0  0  0  0
    5.0178   -3.8048   -2.2930 C   0  0  0  0  0  0  0  0  0  0  0  0
    4.4413   -3.3822   -3.5106 C   0  0  0  0  0  0  0  0  0  0  0  0
    4.1823   -2.0186   -3.6639 C   0  0  0  0  0  0  0  0  0  0  0  0
    4.5039   -1.1132   -2.6838 C   0  0  0  0  0  0  0  0  0  0  0  0
    5.0970   -1.4976   -1.4711 C   0  0  0  0  0  0  0  0  0  0  0  0
    4.1700    0.1388   -3.0999 O   0  0  0  0  0  0  0  0  0  0  0  0
    3.4797   -0.0373   -4.3113 C   0  0  0  0  0  0  0  0  0  0  0  0
    3.6296   -1.3745   -4.7165 O   0  0  0  0  0  0  0  0  0  0  0  0
    5.5568   -2.7705    0.8424 H   0  0  0  0  0  0  0  0  0  0  0  0
    6.2903   -4.9177    1.1096 H   0  0  0  0  0  0  0  0  0  0  0  0
    5.1699   -4.8648   -2.1484 H   0  0  0  0  0  0  0  0  0  0  0  0
    4.1609   -4.0924   -4.2701 H   0  0  0  0  0  0  0  0  0  0  0  0
    5.3339   -0.7542   -0.7124 H   0  0  0  0  0  0  0  0  0  0  0  0
    2.4233    0.1642   -4.1209 H   0  0  0  0  0  0  0  0  0  0  0  0
    3.8479    0.6542   -5.0788 H   0  0  0  0  0  0  0  0  0  0  0  0
  1  2  2  0
  2  3  1  0
  2  4  1  0
  4  5  1  0
  4  6  1  0
  4 15  1  1
  5 16  1  0
  6 11  2  0
  6  7  1  0
  7  8  2  0
  7 17  1  0
  8  9  1  0
  8 18  1  0
  9 14  1  0
  9 10  2  0
 10 11  1  0
 10 12  1  0
 11 19  1  0
 12 13  1  0
 13 14  1  0
 13 20  1  0
 13 21  1  0
M  CHG  1   3  -1
M  END
>  <i_m_ct_stereo_status>  (64) 
1

>  <s_m_source_file>  (64) 
/var/tmp/pbs.5076255.sched01/tmp9s019jnz/08u7fdliu.sdf

>  <i_m_source_file_index>  (64) 
28

>  <i_lp_mmshare_version>  (64) 
48012

>  <i_f3d_flags>  (64) 
0

>  <s_epik_input>  (64) 
Tz1DKFtPSF0pW0NASF0oW09IXSljKFtjSF1bY0hdMSlbY0hdYyhjMTIpT1tDSDJdTzI=

>  <s_epik_cmdline>  (64) 
J2VwaWtfcHl0aG9uJywgJy1waHQnLCAnMi4wJywgJy1waCcsICc3LjAnLCAnLXRuJywgJzgnLCAnLW1hJywgJzIwMCcsICctaW1hZScsICc8aW5maWxlLm1hZT4nLCAnLW9tYWUnLCAnPG91dGZpbGUubWFlPic=

>  <r_lp_tautomer_probability>  (64) 
1

>  <r_epik_Ionization_Penalty>  (64) 
0.000238149

>  <r_epik_Ionization_Penalty_Charging>  (64) 
0.000232795

>  <r_epik_Ionization_Penalty_Neutral>  (64) 
5.35399e-06

>  <r_epik_State_Penalty>  (64) 
-0

>  <r_epik_Charging_Adjusted_Penalty>  (64) 
0.000232795

>  <i_epik_Tot_Q>  (64) 
-1

>  <i_epik_Tot_abs_Q>  (64) 
1

>  <s_epik_Chemistry_Notes>  (64) 
This compound contains an acetal/aminal-like group ( X-CH(R)-Y where X, Y are N, S, or O) that may be acid/base labile, releasing an aldehyde.

>  <s_lp_Force_Field>  (64) 
OPLS3e

>  <r_lp_Energy>  (64) 
30.2318

>  <b_lp_Chiralities_Consistent>  (64) 
1

>  <s_lp_Variant>  (64) 
19:0-1

>  <s_i_glide_gridfile>  (64) 
pfpi4k_grid

>  <i_i_glide_lignum>  (64) 
28

>  <i_i_glide_rotatable_bonds>  (64) 
3

>  <r_i_docking_score>  (64) 
-5.00321

>  <r_i_glide_ligand_efficiency>  (64) 
-0.357372

>  <r_i_glide_ligand_efficiency_sa>  (64) 
-0.861317

>  <r_i_glide_ligand_efficiency_ln>  (64) 
-1.37486

>  <r_i_glide_gscore>  (64) 
-5.00321

>  <r_i_glide_lipo>  (64) 
-0.478679

>  <r_i_glide_hbond>  (64) 
-0.492704

>  <r_i_glide_metal>  (64) 
-0

>  <r_i_glide_rewards>  (64) 
-2.53672

>  <r_i_glide_evdw>  (64) 
-21.788

>  <r_i_glide_ecoul>  (64) 
-2.70469

>  <r_i_glide_erotb>  (64) 
0

>  <r_i_glide_esite>  (64) 
0

>  <r_i_glide_emodel>  (64) 
-34.4992

>  <r_i_glide_energy>  (64) 
-24.4927

>  <r_i_glide_einternal>  (64) 
2.03459

>  <r_i_glide_intrahb_reward>  (64) 
-0

>  <i_i_glide_confnum>  (64) 
2

>  <i_i_glide_posenum>  (64) 
3

>  <r_i_glide_eff_state_penalty>  (64) 
0

>  <ligand_id>  (64) 
19

>  <original_smiles>  (64) 
O=C(O)C(O)c1ccc2c(c1)OCO2

>  <smiles>  (64) 
[H]OC([H])(C(=O)[O-])c1c([H])c([H])c2c(c1[H])OC([H])([H])O2

$$$$
19:0:1
     RDKit          3D

 21 22  0  0  1  0  0  0  0  0999 V2000
    1.9446   -4.6956   -0.2929 O   0  0  0  0  0  0  0  0  0  0  0  0
    2.6458   -4.3560    0.6900 C   0  0  0  0  0  0  0  0  0  0  0  0
    2.2987   -4.5449    1.8757 O   0  0  0  0  0  0  0  0  0  0  0  0
    4.0230   -3.6825    0.4663 C   0  0  2  0  0  0  0  0  0  0  0  0
    4.2698   -2.7010    1.4552 O   0  0  0  0  0  0  0  0  0  0  0  0
    4.1361   -3.1067   -0.9352 C   0  0  0  0  0  0  0  0  0  0  0  0
    4.8009   -3.8508   -1.9452 C   0  0  0  0  0  0  0  0  0  0  0  0
    4.8740   -3.3648   -3.2676 C   0  0  0  0  0  0  0  0  0  0  0  0
    4.2649   -2.1291   -3.5433 C   0  0  0  0  0  0  0  0  0  0  0  0
    3.6186   -1.3973   -2.5706 C   0  0  0  0  0  0  0  0  0  0  0  0
    3.5557   -1.8490   -1.2467 C   0  0  0  0  0  0  0  0  0  0  0  0
    3.1013   -0.2658   -3.1197 O   0  0  0  0  0  0  0  0  0  0  0  0
    3.3414   -0.3620   -4.4896 C   0  0  0  0  0  0  0  0  0  0  0  0
    4.1845   -1.4601   -4.7211 O   0  0  0  0  0  0  0  0  0  0  0  0
    4.7864   -4.4453    0.5951 H   0  0  0  0  0  0  0  0  0  0  0  0
    3.5952   -2.0426    1.3761 H   0  0  0  0  0  0  0  0  0  0  0  0
    5.2073   -4.8225   -1.7043 H   0  0  0  0  0  0  0  0  0  0  0  0
    5.3462   -3.9441   -4.0495 H   0  0  0  0  0  0  0  0  0  0  0  0
    3.0206   -1.2663   -0.5087 H   0  0  0  0  0  0  0  0  0  0  0  0
    2.3904   -0.5646   -4.9774 H   0  0  0  0  0  0  0  0  0  0  0  0
    3.7688    0.5564   -4.8909 H   0  0  0  0  0  0  0  0  0  0  0  0
  1  2  2  0
  2  3  1  0
  2  4  1  0
  4  5  1  0
  4  6  1  0
  4 15  1  6
  5 16  1  0
  6 11  2  0
  6  7  1  0
  7  8  2  0
  7 17  1  0
  8  9  1  0
  8 18  1  0
  9 14  1  0
  9 10  2  0
 10 11  1  0
 10 12  1  0
 11 19  1  0
 12 13  1  0
 13 14  1  0
 13 20  1  0
 13 21  1  0
M  CHG  1   3  -1
M  END
>  <i_m_ct_stereo_status>  (65) 
1

>  <s_m_source_file>  (65) 
/var/tmp/pbs.5076255.sched01/tmp9s019jnz/08u7fdliu.sdf

>  <i_m_source_file_index>  (65) 
28

>  <i_lp_mmshare_version>  (65) 
48012

>  <i_f3d_flags>  (65) 
0

>  <s_epik_input>  (65) 
Tz1DKFtPSF0pW0NASF0oW09IXSljKFtjSF1bY0hdMSlbY0hdYyhjMTIpT1tDSDJdTzI=

>  <s_epik_cmdline>  (65) 
J2VwaWtfcHl0aG9uJywgJy1waHQnLCAnMi4wJywgJy1waCcsICc3LjAnLCAnLXRuJywgJzgnLCAnLW1hJywgJzIwMCcsICctaW1hZScsICc8aW5maWxlLm1hZT4nLCAnLW9tYWUnLCAnPG91dGZpbGUubWFlPic=

>  <r_lp_tautomer_probability>  (65) 
1

>  <r_epik_Ionization_Penalty>  (65) 
0.000238149

>  <r_epik_Ionization_Penalty_Charging>  (65) 
0.000232795

>  <r_epik_Ionization_Penalty_Neutral>  (65) 
5.35399e-06

>  <r_epik_State_Penalty>  (65) 
-0

>  <r_epik_Charging_Adjusted_Penalty>  (65) 
0.000232795

>  <i_epik_Tot_Q>  (65) 
-1

>  <i_epik_Tot_abs_Q>  (65) 
1

>  <s_epik_Chemistry_Notes>  (65) 
This compound contains an acetal/aminal-like group ( X-CH(R)-Y where X, Y are N, S, or O) that may be acid/base labile, releasing an aldehyde.

>  <s_lp_Force_Field>  (65) 
OPLS3e

>  <r_lp_Energy>  (65) 
30.2318

>  <b_lp_Chiralities_Consistent>  (65) 
1

>  <s_lp_Variant>  (65) 
19:0-1

>  <s_i_glide_gridfile>  (65) 
pfpi4k_grid

>  <i_i_glide_lignum>  (65) 
28

>  <i_i_glide_rotatable_bonds>  (65) 
3

>  <r_i_docking_score>  (65) 
-4.36111

>  <r_i_glide_ligand_efficiency>  (65) 
-0.311508

>  <r_i_glide_ligand_efficiency_sa>  (65) 
-0.750779

>  <r_i_glide_ligand_efficiency_ln>  (65) 
-1.19842

>  <r_i_glide_gscore>  (65) 
-4.36111

>  <r_i_glide_lipo>  (65) 
-0.410836

>  <r_i_glide_hbond>  (65) 
-0.34219

>  <r_i_glide_metal>  (65) 
-0

>  <r_i_glide_rewards>  (65) 
-2.52853

>  <r_i_glide_evdw>  (65) 
-17.4761

>  <r_i_glide_ecoul>  (65) 
-1.18226

>  <r_i_glide_erotb>  (65) 
0

>  <r_i_glide_esite>  (65) 
-0.0284126

>  <r_i_glide_emodel>  (65) 
-27.6214

>  <r_i_glide_energy>  (65) 
-18.6584

>  <r_i_glide_einternal>  (65) 
1.7795

>  <r_i_glide_intrahb_reward>  (65) 
-0

>  <i_i_glide_confnum>  (65) 
1

>  <i_i_glide_posenum>  (65) 
14

>  <r_i_glide_eff_state_penalty>  (65) 
0

>  <ligand_id>  (65) 
19

>  <original_smiles>  (65) 
O=C(O)C(O)c1ccc2c(c1)OCO2

>  <smiles>  (65) 
[H]OC([H])(C(=O)[O-])c1c([H])c([H])c2c(c1[H])OC([H])([H])O2

$$$$
19:0:2
     RDKit          3D

 21 22  0  0  1  0  0  0  0  0999 V2000
   -2.1883   -1.6082    5.6773 O   0  0  0  0  0  0  0  0  0  0  0  0
   -1.7552   -0.4346    5.5974 C   0  0  0  0  0  0  0  0  0  0  0  0
   -1.9653    0.4221    6.4800 O   0  0  0  0  0  0  0  0  0  0  0  0
   -0.9365   -0.0495    4.3396 C   0  0  2  0  0  0  0  0  0  0  0  0
    0.0381   -1.0393    4.0813 O   0  0  0  0  0  0  0  0  0  0  0  0
   -0.3264    1.3420    4.4767 C   0  0  0  0  0  0  0  0  0  0  0  0
    0.9197    1.5144    5.1460 C   0  0  0  0  0  0  0  0  0  0  0  0
    1.4936    2.7947    5.2939 C   0  0  0  0  0  0  0  0  0  0  0  0
    0.8018    3.8851    4.7346 C   0  0  0  0  0  0  0  0  0  0  0  0
   -0.4097    3.7310    4.0927 C   0  0  0  0  0  0  0  0  0  0  0  0
   -1.0052    2.4674    3.9354 C   0  0  0  0  0  0  0  0  0  0  0  0
   -0.8438    4.9434    3.6577 O   0  0  0  0  0  0  0  0  0  0  0  0
    0.2199    5.8309    3.8888 C   0  0  0  0  0  0  0  0  0  0  0  0
    1.1817    5.1863    4.6904 O   0  0  0  0  0  0  0  0  0  0  0  0
   -1.6246   -0.0265    3.4933 H   0  0  0  0  0  0  0  0  0  0  0  0
    0.4781   -0.8090    3.2783 H   0  0  0  0  0  0  0  0  0  0  0  0
    1.4279    0.6521    5.5552 H   0  0  0  0  0  0  0  0  0  0  0  0
    2.4416    2.9426    5.7959 H   0  0  0  0  0  0  0  0  0  0  0  0
   -1.9436    2.3620    3.4086 H   0  0  0  0  0  0  0  0  0  0  0  0
    0.6846    6.0791    2.9326 H   0  0  0  0  0  0  0  0  0  0  0  0
   -0.1233    6.7496    4.3642 H   0  0  0  0  0  0  0  0  0  0  0  0
  1  2  2  0
  2  3  1  0
  2  4  1  0
  4  5  1  0
  4  6  1  0
  4 15  1  6
  5 16  1  0
  6 11  2  0
  6  7  1  0
  7  8  2  0
  7 17  1  0
  8  9  1  0
  8 18  1  0
  9 14  1  0
  9 10  2  0
 10 11  1  0
 10 12  1  0
 11 19  1  0
 12 13  1  0
 13 14  1  0
 13 20  1  0
 13 21  1  0
M  CHG  1   3  -1
M  END
>  <i_m_ct_stereo_status>  (66) 
1

>  <s_m_source_file>  (66) 
/var/tmp/pbs.5076255.sched01/tmp9s019jnz/08u7fdliu.sdf

>  <i_m_source_file_index>  (66) 
28

>  <i_lp_mmshare_version>  (66) 
48012

>  <i_f3d_flags>  (66) 
0

>  <s_epik_input>  (66) 
Tz1DKFtPSF0pW0NASF0oW09IXSljKFtjSF1bY0hdMSlbY0hdYyhjMTIpT1tDSDJdTzI=

>  <s_epik_cmdline>  (66) 
J2VwaWtfcHl0aG9uJywgJy1waHQnLCAnMi4wJywgJy1waCcsICc3LjAnLCAnLXRuJywgJzgnLCAnLW1hJywgJzIwMCcsICctaW1hZScsICc8aW5maWxlLm1hZT4nLCAnLW9tYWUnLCAnPG91dGZpbGUubWFlPic=

>  <r_lp_tautomer_probability>  (66) 
1

>  <r_epik_Ionization_Penalty>  (66) 
0.000238149

>  <r_epik_Ionization_Penalty_Charging>  (66) 
0.000232795

>  <r_epik_Ionization_Penalty_Neutral>  (66) 
5.35399e-06

>  <r_epik_State_Penalty>  (66) 
-0

>  <r_epik_Charging_Adjusted_Penalty>  (66) 
0.000232795

>  <i_epik_Tot_Q>  (66) 
-1

>  <i_epik_Tot_abs_Q>  (66) 
1

>  <s_epik_Chemistry_Notes>  (66) 
This compound contains an acetal/aminal-like group ( X-CH(R)-Y where X, Y are N, S, or O) that may be acid/base labile, releasing an aldehyde.

>  <s_lp_Force_Field>  (66) 
OPLS3e

>  <r_lp_Energy>  (66) 
30.2318

>  <b_lp_Chiralities_Consistent>  (66) 
1

>  <s_lp_Variant>  (66) 
19:0-1

>  <s_i_glide_gridfile>  (66) 
pfpi4k_grid

>  <i_i_glide_lignum>  (66) 
28

>  <i_i_glide_rotatable_bonds>  (66) 
3

>  <r_i_docking_score>  (66) 
-4.04197

>  <r_i_glide_ligand_efficiency>  (66) 
-0.288712

>  <r_i_glide_ligand_efficiency_sa>  (66) 
-0.695837

>  <r_i_glide_ligand_efficiency_ln>  (66) 
-1.11072

>  <r_i_glide_gscore>  (66) 
-4.04197

>  <r_i_glide_lipo>  (66) 
0

>  <r_i_glide_hbond>  (66) 
-0.314033

>  <r_i_glide_metal>  (66) 
-0

>  <r_i_glide_rewards>  (66) 
-2.07853

>  <r_i_glide_evdw>  (66) 
-11.9797

>  <r_i_glide_ecoul>  (66) 
-5.85913

>  <r_i_glide_erotb>  (66) 
0

>  <r_i_glide_esite>  (66) 
-0.171555

>  <r_i_glide_emodel>  (66) 
-26.7968

>  <r_i_glide_energy>  (66) 
-17.8388

>  <r_i_glide_einternal>  (66) 
0.376241

>  <r_i_glide_intrahb_reward>  (66) 
-0

>  <i_i_glide_confnum>  (66) 
2

>  <i_i_glide_posenum>  (66) 
11

>  <r_i_glide_eff_state_penalty>  (66) 
0

>  <ligand_id>  (66) 
19

>  <original_smiles>  (66) 
O=C(O)C(O)c1ccc2c(c1)OCO2

>  <smiles>  (66) 
[H]OC([H])(C(=O)[O-])c1c([H])c([H])c2c(c1[H])OC([H])([H])O2

$$$$
20:0:0
     RDKit          3D

 49 53  0  0  1  0  0  0  0  0999 V2000
    3.6468   -1.6659   -3.8668 O   0  0  0  0  0  0  0  0  0  0  0  0
    4.4265   -1.1559   -2.8060 C   0  0  0  0  0  0  0  0  0  0  0  0
    3.7082   -1.3367   -1.4646 C   0  0  2  0  0  0  0  0  0  0  0  0
    4.4242   -0.6603   -0.4279 O   0  0  0  0  0  0  0  0  0  0  0  0
    4.5046   -1.4741    0.7005 C   0  0  1  0  0  0  0  0  0  0  0  0
    4.3008   -0.6729    1.9628 N   0  0  0  0  0  0  0  0  0  0  0  0
    5.1111   -0.7061    3.0732 C   0  0  0  0  0  0  0  0  0  0  0  0
    4.7596    0.0560    4.0745 N   0  0  0  0  0  0  0  0  0  0  0  0
    3.6051    0.6629    3.6173 C   0  0  0  0  0  0  0  0  0  0  0  0
    2.7220    1.6067    4.1869 C   0  0  0  0  0  0  0  0  0  0  0  0
    2.9706    2.0998    5.4171 N   0  0  0  0  0  0  0  0  0  0  0  0
    1.9377    2.8147    6.1460 C   0  0  2  0  0  0  0  0  0  0  0  0
    2.2076    3.1236    7.6044 C   0  0  0  0  0  0  0  0  0  0  0  0
    1.1861    2.0788    7.2358 C   0  0  1  0  0  0  0  0  0  0  0  0
   -0.2730    2.3216    7.4569 C   0  0  0  0  0  0  0  0  0  0  0  0
   -1.1319    2.5028    6.3507 C   0  0  0  0  0  0  0  0  0  0  0  0
   -2.4940    2.7893    6.5472 C   0  0  0  0  0  0  0  0  0  0  0  0
   -3.0119    2.8751    7.8551 C   0  0  0  0  0  0  0  0  0  0  0  0
   -2.1668    2.6750    8.9639 C   0  0  0  0  0  0  0  0  0  0  0  0
   -0.8006    2.3999    8.7656 C   0  0  0  0  0  0  0  0  0  0  0  0
    1.6465    2.0047    3.4613 N   0  0  0  0  0  0  0  0  0  0  0  0
    1.4747    1.5119    2.2241 C   0  0  0  0  0  0  0  0  0  0  0  0
    2.2295    0.6364    1.5638 N   0  0  0  0  0  0  0  0  0  0  0  0
    3.3026    0.2214    2.2960 C   0  0  0  0  0  0  0  0  0  0  0  0
    3.5195   -2.6295    0.5161 C   0  0  1  0  0  0  0  0  0  0  0  0
    2.2129   -2.3087    0.9452 O   0  0  0  0  0  0  0  0  0  0  0  0
    3.5955   -2.7917   -0.9911 C   0  0  1  0  0  0  0  0  0  0  0  0
    2.4609   -3.4538   -1.5263 O   0  0  0  0  0  0  0  0  0  0  0  0
    3.7619    1.7811    5.9545 H   0  0  0  0  0  0  0  0  0  0  0  0
    2.7566   -1.3630   -3.7440 H   0  0  0  0  0  0  0  0  0  0  0  0
    5.3865   -1.6671   -2.7822 H   0  0  0  0  0  0  0  0  0  0  0  0
    4.6042   -0.0947   -2.9868 H   0  0  0  0  0  0  0  0  0  0  0  0
    2.7242   -0.8750   -1.5160 H   0  0  0  0  0  0  0  0  0  0  0  0
    5.5233   -1.8479    0.7666 H   0  0  0  0  0  0  0  0  0  0  0  0
    5.9857   -1.3274    3.1241 H   0  0  0  0  0  0  0  0  0  0  0  0
    1.3898    3.5837    5.5965 H   0  0  0  0  0  0  0  0  0  0  0  0
    3.1477    2.7848    8.0362 H   0  0  0  0  0  0  0  0  0  0  0  0
    1.8245    4.0594    8.0094 H   0  0  0  0  0  0  0  0  0  0  0  0
    1.4282    1.0392    7.4319 H   0  0  0  0  0  0  0  0  0  0  0  0
   -0.7294    2.4504    5.3471 H   0  0  0  0  0  0  0  0  0  0  0  0
   -3.1292    2.9523    5.6892 H   0  0  0  0  0  0  0  0  0  0  0  0
   -4.0602    3.0808    8.0122 H   0  0  0  0  0  0  0  0  0  0  0  0
   -2.5622    2.7504    9.9665 H   0  0  0  0  0  0  0  0  0  0  0  0
   -0.1494    2.2745    9.6211 H   0  0  0  0  0  0  0  0  0  0  0  0
    0.6128    1.8816    1.6903 H   0  0  0  0  0  0  0  0  0  0  0  0
    3.8486   -3.5082    1.0718 H   0  0  0  0  0  0  0  0  0  0  0  0
    1.8380   -1.6839    0.3204 H   0  0  0  0  0  0  0  0  0  0  0  0
    4.5060   -3.3418   -1.2283 H   0  0  0  0  0  0  0  0  0  0  0  0
    2.7452   -4.0965   -2.1676 H   0  0  0  0  0  0  0  0  0  0  0  0
  1  2  1  0
  1 30  1  0
  2  3  1  0
  2 31  1  0
  2 32  1  0
  3 27  1  0
  3  4  1  0
  3 33  1  6
  4  5  1  0
  5 25  1  0
  5 34  1  1
  5  6  1  0
  6  7  1  0
  6 24  1  0
  7  8  2  0
  7 35  1  0
  8  9  1  0
  9 10  1  0
  9 24  2  0
 10 21  2  0
 10 11  1  0
 11 12  1  0
 11 29  1  0
 12 14  1  0
 12 13  1  0
 12 36  1  6
 13 14  1  0
 13 37  1  0
 13 38  1  0
 14 15  1  0
 14 39  1  1
 15 20  1  0
 15 16  2  0
 16 17  1  0
 16 40  1  0
 17 18  2  0
 17 41  1  0
 18 19  1  0
 18 42  1  0
 19 20  2  0
 19 43  1  0
 20 44  1  0
 21 22  1  0
 22 45  1  0
 22 23  2  0
 23 24  1  0
 25 26  1  0
 25 27  1  0
 25 46  1  1
 26 47  1  0
 27 28  1  0
 27 48  1  1
 28 49  1  0
M  END
>  <i_m_ct_stereo_status>  (67) 
1

>  <s_m_source_file>  (67) 
/var/tmp/pbs.5076255.sched01/tmp9s019jnz/08u7fdliu.sdf

>  <i_m_source_file_index>  (67) 
29

>  <i_lp_mmshare_version>  (67) 
48012

>  <i_f3d_flags>  (67) 
0

>  <s_epik_input>  (67) 
W09IXVtDSDJdW0NAQEhdMU9bQ0BIXShbQ0BASF0oW09IXSlbQ0BIXTFbT0hdKW4oW2NIXW4yKWMoYzIzKW5bY0hdW25IXWNcMz1OL1tDQEBIXTRbQ0gyXVtDQEhdNGM1W2NIXVtjSF1bY0hdW2NIXVtjSF01

>  <s_epik_cmdline>  (67) 
J2VwaWtfcHl0aG9uJywgJy1waHQnLCAnMi4wJywgJy1waCcsICc3LjAnLCAnLXRuJywgJzgnLCAnLW1hJywgJzIwMCcsICctaW1hZScsICc8aW5maWxlLm1hZT4nLCAnLW9tYWUnLCAnPG91dGZpbGUubWFlPic=

>  <r_lp_tautomer_probability>  (67) 
1

>  <r_epik_Ionization_Penalty>  (67) 
0.000701726

>  <r_epik_Ionization_Penalty_Charging>  (67) 
0

>  <r_epik_Ionization_Penalty_Neutral>  (67) 
0.000701726

>  <r_epik_State_Penalty>  (67) 
-0

>  <r_epik_Charging_Adjusted_Penalty>  (67) 
0

>  <i_epik_Tot_Q>  (67) 
0

>  <i_epik_Tot_abs_Q>  (67) 
0

>  <s_epik_Chemistry_Notes>  (67) 
This compound contains an acetal/aminal-like group ( X-CH(R)-Y where X, Y are N, S, or O) that may be acid/base labile, releasing an aldehyde.

>  <s_lp_Force_Field>  (67) 
OPLS3e

>  <r_lp_Energy>  (67) 
32.0401

>  <b_lp_Chiralities_Consistent>  (67) 
1

>  <s_lp_Variant>  (67) 
20:0-1

>  <s_i_glide_gridfile>  (67) 
pfpi4k_grid

>  <i_i_glide_lignum>  (67) 
29

>  <i_i_glide_rotatable_bonds>  (67) 
8

>  <r_i_docking_score>  (67) 
-3.32829

>  <r_i_glide_ligand_efficiency>  (67) 
-0.118867

>  <r_i_glide_ligand_efficiency_sa>  (67) 
-0.360952

>  <r_i_glide_ligand_efficiency_ln>  (67) 
-0.768267

>  <r_i_glide_gscore>  (67) 
-3.32829

>  <r_i_glide_lipo>  (67) 
-0.288987

>  <r_i_glide_hbond>  (67) 
0

>  <r_i_glide_metal>  (67) 
-0

>  <r_i_glide_rewards>  (67) 
-1.12133

>  <r_i_glide_evdw>  (67) 
-26.763

>  <r_i_glide_ecoul>  (67) 
-6.76138

>  <r_i_glide_erotb>  (67) 
0.462672

>  <r_i_glide_esite>  (67) 
-0.0282867

>  <r_i_glide_emodel>  (67) 
-40.3875

>  <r_i_glide_energy>  (67) 
-33.5244

>  <r_i_glide_einternal>  (67) 
2.61959

>  <r_i_glide_intrahb_reward>  (67) 
-0

>  <i_i_glide_confnum>  (67) 
5

>  <i_i_glide_posenum>  (67) 
33

>  <r_i_glide_eff_state_penalty>  (67) 
0

>  <ligand_id>  (67) 
20

>  <original_smiles>  (67) 
OCC1OC(n2cnc3c(=NC4CC4c4ccccc4)[nH]cnc32)C(O)C1O

>  <smiles>  (67) 
[H]OC([H])([H])C1([H])OC([H])(n2c([H])nc3c(N([H])C4([H])C([H])([H])C4([H])c4c([H])c([H])c([H])c([H])c4[H])nc([H])nc32)C([H])(O[H])C1([H])O[H]

$$$$
20:0:1
     RDKit          3D

 49 53  0  0  1  0  0  0  0  0999 V2000
    3.2168   -3.3970   -3.4680 O   0  0  0  0  0  0  0  0  0  0  0  0
    3.1603   -2.2183   -2.6877 C   0  0  0  0  0  0  0  0  0  0  0  0
    3.5077   -2.4954   -1.2139 C   0  0  2  0  0  0  0  0  0  0  0  0
    3.7029   -1.2599   -0.5227 O   0  0  0  0  0  0  0  0  0  0  0  0
    4.8353   -1.3147    0.2899 C   0  0  1  0  0  0  0  0  0  0  0  0
    4.5855   -0.7137    1.6436 N   0  0  0  0  0  0  0  0  0  0  0  0
    5.5071   -0.6581    2.6676 C   0  0  0  0  0  0  0  0  0  0  0  0
    5.1158   -0.0491    3.7584 N   0  0  0  0  0  0  0  0  0  0  0  0
    3.8245    0.3545    3.4573 C   0  0  0  0  0  0  0  0  0  0  0  0
    2.8429    1.0758    4.1768 C   0  0  0  0  0  0  0  0  0  0  0  0
    3.0976    1.4907    5.4352 N   0  0  0  0  0  0  0  0  0  0  0  0
    2.0983    2.2227    6.1888 C   0  0  2  0  0  0  0  0  0  0  0  0
    2.2953    2.3056    7.6907 C   0  0  0  0  0  0  0  0  0  0  0  0
    1.1903    1.4537    7.1235 C   0  0  1  0  0  0  0  0  0  0  0  0
   -0.2416    1.8479    7.2830 C   0  0  0  0  0  0  0  0  0  0  0  0
   -1.0301    2.1235    6.1457 C   0  0  0  0  0  0  0  0  0  0  0  0
   -2.3645    2.5421    6.2928 C   0  0  0  0  0  0  0  0  0  0  0  0
   -2.9246    2.6687    7.5794 C   0  0  0  0  0  0  0  0  0  0  0  0
   -2.1451    2.3881    8.7185 C   0  0  0  0  0  0  0  0  0  0  0  0
   -0.8090    1.9744    8.5688 C   0  0  0  0  0  0  0  0  0  0  0  0
    1.6524    1.3256    3.5703 N   0  0  0  0  0  0  0  0  0  0  0  0
    1.4509    0.8856    2.3210 C   0  0  0  0  0  0  0  0  0  0  0  0
    2.2798    0.1938    1.5396 N   0  0  0  0  0  0  0  0  0  0  0  0
    3.4762   -0.0540    2.1415 C   0  0  0  0  0  0  0  0  0  0  0  0
    5.2336   -2.7892    0.3824 C   0  0  1  0  0  0  0  0  0  0  0  0
    4.5336   -3.4619    1.4165 O   0  0  0  0  0  0  0  0  0  0  0  0
    4.8217   -3.2560   -0.9997 C   0  0  1  0  0  0  0  0  0  0  0  0
    4.6793   -4.6624   -1.0604 O   0  0  0  0  0  0  0  0  0  0  0  0
    3.9207    1.1896    5.9358 H   0  0  0  0  0  0  0  0  0  0  0  0
    2.6775   -4.0656   -3.0632 H   0  0  0  0  0  0  0  0  0  0  0  0
    3.8574   -1.4991   -3.1128 H   0  0  0  0  0  0  0  0  0  0  0  0
    2.1681   -1.7770   -2.7564 H   0  0  0  0  0  0  0  0  0  0  0  0
    2.6953   -3.0289   -0.7189 H   0  0  0  0  0  0  0  0  0  0  0  0
    5.6030   -0.6833   -0.1536 H   0  0  0  0  0  0  0  0  0  0  0  0
    6.5038   -1.0514    2.5524 H   0  0  0  0  0  0  0  0  0  0  0  0
    1.6881    3.1212    5.7162 H   0  0  0  0  0  0  0  0  0  0  0  0
    3.1562    1.7963    8.1209 H   0  0  0  0  0  0  0  0  0  0  0  0
    1.9985    3.2216    8.2006 H   0  0  0  0  0  0  0  0  0  0  0  0
    1.2955    0.3740    7.1661 H   0  0  0  0  0  0  0  0  0  0  0  0
   -0.5950    2.0381    5.1586 H   0  0  0  0  0  0  0  0  0  0  0  0
   -2.9445    2.7717    5.4140 H   0  0  0  0  0  0  0  0  0  0  0  0
   -3.9513    2.9718    7.6951 H   0  0  0  0  0  0  0  0  0  0  0  0
   -2.5600    2.5043    9.7071 H   0  0  0  0  0  0  0  0  0  0  0  0
   -0.2035    1.7769    9.4421 H   0  0  0  0  0  0  0  0  0  0  0  0
    0.4925    1.1163    1.8813 H   0  0  0  0  0  0  0  0  0  0  0  0
    6.3028   -2.8879    0.5673 H   0  0  0  0  0  0  0  0  0  0  0  0
    3.6057   -3.4006    1.2363 H   0  0  0  0  0  0  0  0  0  0  0  0
    5.5615   -2.9116   -1.7252 H   0  0  0  0  0  0  0  0  0  0  0  0
    4.1735   -4.9101   -1.8325 H   0  0  0  0  0  0  0  0  0  0  0  0
  1  2  1  0
  1 30  1  0
  2  3  1  0
  2 31  1  0
  2 32  1  0
  3 27  1  0
  3  4  1  0
  3 33  1  1
  4  5  1  0
  5 25  1  0
  5 34  1  6
  5  6  1  0
  6  7  1  0
  6 24  1  0
  7  8  2  0
  7 35  1  0
  8  9  1  0
  9 10  1  0
  9 24  2  0
 10 21  2  0
 10 11  1  0
 11 12  1  0
 11 29  1  0
 12 14  1  0
 12 13  1  0
 12 36  1  6
 13 14  1  0
 13 37  1  0
 13 38  1  0
 14 15  1  0
 14 39  1  6
 15 20  1  0
 15 16  2  0
 16 17  1  0
 16 40  1  0
 17 18  2  0
 17 41  1  0
 18 19  1  0
 18 42  1  0
 19 20  2  0
 19 43  1  0
 20 44  1  0
 21 22  1  0
 22 45  1  0
 22 23  2  0
 23 24  1  0
 25 26  1  0
 25 27  1  0
 25 46  1  1
 26 47  1  0
 27 28  1  0
 27 48  1  6
 28 49  1  0
M  END
>  <i_m_ct_stereo_status>  (68) 
1

>  <s_m_source_file>  (68) 
/var/tmp/pbs.5076255.sched01/tmp9s019jnz/08u7fdliu.sdf

>  <i_m_source_file_index>  (68) 
29

>  <i_lp_mmshare_version>  (68) 
48012

>  <i_f3d_flags>  (68) 
0

>  <s_epik_input>  (68) 
W09IXVtDSDJdW0NAQEhdMU9bQ0BIXShbQ0BASF0oW09IXSlbQ0BIXTFbT0hdKW4oW2NIXW4yKWMoYzIzKW5bY0hdW25IXWNcMz1OL1tDQEBIXTRbQ0gyXVtDQEhdNGM1W2NIXVtjSF1bY0hdW2NIXVtjSF01

>  <s_epik_cmdline>  (68) 
J2VwaWtfcHl0aG9uJywgJy1waHQnLCAnMi4wJywgJy1waCcsICc3LjAnLCAnLXRuJywgJzgnLCAnLW1hJywgJzIwMCcsICctaW1hZScsICc8aW5maWxlLm1hZT4nLCAnLW9tYWUnLCAnPG91dGZpbGUubWFlPic=

>  <r_lp_tautomer_probability>  (68) 
1

>  <r_epik_Ionization_Penalty>  (68) 
0.000701726

>  <r_epik_Ionization_Penalty_Charging>  (68) 
0

>  <r_epik_Ionization_Penalty_Neutral>  (68) 
0.000701726

>  <r_epik_State_Penalty>  (68) 
-0

>  <r_epik_Charging_Adjusted_Penalty>  (68) 
0

>  <i_epik_Tot_Q>  (68) 
0

>  <i_epik_Tot_abs_Q>  (68) 
0

>  <s_epik_Chemistry_Notes>  (68) 
This compound contains an acetal/aminal-like group ( X-CH(R)-Y where X, Y are N, S, or O) that may be acid/base labile, releasing an aldehyde.

>  <s_lp_Force_Field>  (68) 
OPLS3e

>  <r_lp_Energy>  (68) 
32.0401

>  <b_lp_Chiralities_Consistent>  (68) 
1

>  <s_lp_Variant>  (68) 
20:0-1

>  <s_i_glide_gridfile>  (68) 
pfpi4k_grid

>  <i_i_glide_lignum>  (68) 
29

>  <i_i_glide_rotatable_bonds>  (68) 
8

>  <r_i_docking_score>  (68) 
-3.17785

>  <r_i_glide_ligand_efficiency>  (68) 
-0.113495

>  <r_i_glide_ligand_efficiency_sa>  (68) 
-0.344636

>  <r_i_glide_ligand_efficiency_ln>  (68) 
-0.73354

>  <r_i_glide_gscore>  (68) 
-3.17785

>  <r_i_glide_lipo>  (68) 
-0.364024

>  <r_i_glide_hbond>  (68) 
0

>  <r_i_glide_metal>  (68) 
-0

>  <r_i_glide_rewards>  (68) 
-1.10939

>  <r_i_glide_evdw>  (68) 
-26.9578

>  <r_i_glide_ecoul>  (68) 
-6.58604

>  <r_i_glide_erotb>  (68) 
0.66096

>  <r_i_glide_esite>  (68) 
-0.0296

>  <r_i_glide_emodel>  (68) 
-40.5413

>  <r_i_glide_energy>  (68) 
-33.5438

>  <r_i_glide_einternal>  (68) 
2.16063

>  <r_i_glide_intrahb_reward>  (68) 
-0

>  <i_i_glide_confnum>  (68) 
5

>  <i_i_glide_posenum>  (68) 
20

>  <r_i_glide_eff_state_penalty>  (68) 
0

>  <ligand_id>  (68) 
20

>  <original_smiles>  (68) 
OCC1OC(n2cnc3c(=NC4CC4c4ccccc4)[nH]cnc32)C(O)C1O

>  <smiles>  (68) 
[H]OC([H])([H])C1([H])OC([H])(n2c([H])nc3c(N([H])C4([H])C([H])([H])C4([H])c4c([H])c([H])c([H])c([H])c4[H])nc([H])nc32)C([H])(O[H])C1([H])O[H]

$$$$
20:0:2
     RDKit          3D

 49 53  0  0  1  0  0  0  0  0999 V2000
    3.1219   -3.4304   -3.4498 O   0  0  0  0  0  0  0  0  0  0  0  0
    2.9794   -2.2539   -2.6707 C   0  0  0  0  0  0  0  0  0  0  0  0
    3.3807   -2.5033   -1.2037 C   0  0  2  0  0  0  0  0  0  0  0  0
    3.5289   -1.2574   -0.5170 O   0  0  0  0  0  0  0  0  0  0  0  0
    4.6902   -1.2471    0.2569 C   0  0  1  0  0  0  0  0  0  0  0  0
    4.4546   -0.6440    1.6137 N   0  0  0  0  0  0  0  0  0  0  0  0
    5.3346   -0.6732    2.6745 C   0  0  0  0  0  0  0  0  0  0  0  0
    4.9566   -0.0410    3.7531 N   0  0  0  0  0  0  0  0  0  0  0  0
    3.7342    0.4992    3.3928 C   0  0  0  0  0  0  0  0  0  0  0  0
    2.8076    1.3189    4.0791 C   0  0  0  0  0  0  0  0  0  0  0  0
    3.0573    1.6993    5.3474 N   0  0  0  0  0  0  0  0  0  0  0  0
    2.0423    2.3804    6.1316 C   0  0  2  0  0  0  0  0  0  0  0  0
    2.2390    2.4199    7.6347 C   0  0  0  0  0  0  0  0  0  0  0  0
    1.1563    1.5568    7.0404 C   0  0  1  0  0  0  0  0  0  0  0  0
   -0.2821    1.9163    7.2168 C   0  0  0  0  0  0  0  0  0  0  0  0
   -1.0750    2.2271    6.0919 C   0  0  0  0  0  0  0  0  0  0  0  0
   -2.4174    2.6089    6.2539 C   0  0  0  0  0  0  0  0  0  0  0  0
   -2.9829    2.6665    7.5425 C   0  0  0  0  0  0  0  0  0  0  0  0
   -2.1978    2.3523    8.6686 C   0  0  0  0  0  0  0  0  0  0  0  0
   -0.8535    1.9744    8.5056 C   0  0  0  0  0  0  0  0  0  0  0  0
    1.6805    1.7034    3.4223 N   0  0  0  0  0  0  0  0  0  0  0  0
    1.4960    1.3065    2.1557 C   0  0  0  0  0  0  0  0  0  0  0  0
    2.2823    0.5397    1.3986 N   0  0  0  0  0  0  0  0  0  0  0  0
    3.4087    0.1439    2.0568 C   0  0  0  0  0  0  0  0  0  0  0  0
    5.1704   -2.7028    0.3389 C   0  0  1  0  0  0  0  0  0  0  0  0
    4.5577   -3.4389    1.3948 O   0  0  0  0  0  0  0  0  0  0  0  0
    4.7416   -3.1914   -1.0315 C   0  0  1  0  0  0  0  0  0  0  0  0
    4.6895   -4.6119   -1.0997 O   0  0  0  0  0  0  0  0  0  0  0  0
    3.8569    1.3453    5.8528 H   0  0  0  0  0  0  0  0  0  0  0  0
    2.6398   -4.1312   -3.0327 H   0  0  0  0  0  0  0  0  0  0  0  0
    3.6050   -1.4762   -3.1046 H   0  0  0  0  0  0  0  0  0  0  0  0
    1.9496   -1.9042   -2.7275 H   0  0  0  0  0  0  0  0  0  0  0  0
    2.6151   -3.0786   -0.6821 H   0  0  0  0  0  0  0  0  0  0  0  0
    5.4087   -0.5764   -0.2178 H   0  0  0  0  0  0  0  0  0  0  0  0
    6.2829   -1.1772    2.6202 H   0  0  0  0  0  0  0  0  0  0  0  0
    1.6026    3.2771    5.6857 H   0  0  0  0  0  0  0  0  0  0  0  0
    3.1128    1.9204    8.0501 H   0  0  0  0  0  0  0  0  0  0  0  0
    1.9172    3.3109    8.1721 H   0  0  0  0  0  0  0  0  0  0  0  0
    1.2938    0.4779    7.0555 H   0  0  0  0  0  0  0  0  0  0  0  0
   -0.6391    2.1914    5.1026 H   0  0  0  0  0  0  0  0  0  0  0  0
   -3.0017    2.8635    5.3848 H   0  0  0  0  0  0  0  0  0  0  0  0
   -4.0153    2.9455    7.6688 H   0  0  0  0  0  0  0  0  0  0  0  0
   -2.6209    2.4120    9.6586 H   0  0  0  0  0  0  0  0  0  0  0  0
   -0.2489    1.7487    9.3726 H   0  0  0  0  0  0  0  0  0  0  0  0
    0.5894    1.6567    1.6787 H   0  0  0  0  0  0  0  0  0  0  0  0
    6.2490   -2.7363    0.4714 H   0  0  0  0  0  0  0  0  0  0  0  0
    4.6884   -3.0043    2.2252 H   0  0  0  0  0  0  0  0  0  0  0  0
    5.4384   -2.8177   -1.7836 H   0  0  0  0  0  0  0  0  0  0  0  0
    4.1375   -4.8800   -1.8250 H   0  0  0  0  0  0  0  0  0  0  0  0
  1  2  1  0
  1 30  1  0
  2  3  1  0
  2 31  1  0
  2 32  1  0
  3 27  1  0
  3  4  1  0
  3 33  1  1
  4  5  1  0
  5 25  1  0
  5 34  1  6
  5  6  1  0
  6  7  1  0
  6 24  1  0
  7  8  2  0
  7 35  1  0
  8  9  1  0
  9 10  1  0
  9 24  2  0
 10 21  2  0
 10 11  1  0
 11 12  1  0
 11 29  1  0
 12 14  1  0
 12 13  1  0
 12 36  1  6
 13 14  1  0
 13 37  1  0
 13 38  1  0
 14 15  1  0
 14 39  1  6
 15 20  1  0
 15 16  2  0
 16 17  1  0
 16 40  1  0
 17 18  2  0
 17 41  1  0
 18 19  1  0
 18 42  1  0
 19 20  2  0
 19 43  1  0
 20 44  1  0
 21 22  1  0
 22 45  1  0
 22 23  2  0
 23 24  1  0
 25 26  1  0
 25 27  1  0
 25 46  1  6
 26 47  1  0
 27 28  1  0
 27 48  1  6
 28 49  1  0
M  END
>  <i_m_ct_stereo_status>  (69) 
1

>  <s_m_source_file>  (69) 
/var/tmp/pbs.5076255.sched01/tmp9s019jnz/08u7fdliu.sdf

>  <i_m_source_file_index>  (69) 
29

>  <i_lp_mmshare_version>  (69) 
48012

>  <i_f3d_flags>  (69) 
0

>  <s_epik_input>  (69) 
W09IXVtDSDJdW0NAQEhdMU9bQ0BIXShbQ0BASF0oW09IXSlbQ0BIXTFbT0hdKW4oW2NIXW4yKWMoYzIzKW5bY0hdW25IXWNcMz1OL1tDQEBIXTRbQ0gyXVtDQEhdNGM1W2NIXVtjSF1bY0hdW2NIXVtjSF01

>  <s_epik_cmdline>  (69) 
J2VwaWtfcHl0aG9uJywgJy1waHQnLCAnMi4wJywgJy1waCcsICc3LjAnLCAnLXRuJywgJzgnLCAnLW1hJywgJzIwMCcsICctaW1hZScsICc8aW5maWxlLm1hZT4nLCAnLW9tYWUnLCAnPG91dGZpbGUubWFlPic=

>  <r_lp_tautomer_probability>  (69) 
1

>  <r_epik_Ionization_Penalty>  (69) 
0.000701726

>  <r_epik_Ionization_Penalty_Charging>  (69) 
0

>  <r_epik_Ionization_Penalty_Neutral>  (69) 
0.000701726

>  <r_epik_State_Penalty>  (69) 
-0

>  <r_epik_Charging_Adjusted_Penalty>  (69) 
0

>  <i_epik_Tot_Q>  (69) 
0

>  <i_epik_Tot_abs_Q>  (69) 
0

>  <s_epik_Chemistry_Notes>  (69) 
This compound contains an acetal/aminal-like group ( X-CH(R)-Y where X, Y are N, S, or O) that may be acid/base labile, releasing an aldehyde.

>  <s_lp_Force_Field>  (69) 
OPLS3e

>  <r_lp_Energy>  (69) 
32.0401

>  <b_lp_Chiralities_Consistent>  (69) 
1

>  <s_lp_Variant>  (69) 
20:0-1

>  <s_i_glide_gridfile>  (69) 
pfpi4k_grid

>  <i_i_glide_lignum>  (69) 
29

>  <i_i_glide_rotatable_bonds>  (69) 
8

>  <r_i_docking_score>  (69) 
-3.15298

>  <r_i_glide_ligand_efficiency>  (69) 
-0.112606

>  <r_i_glide_ligand_efficiency_sa>  (69) 
-0.341939

>  <r_i_glide_ligand_efficiency_ln>  (69) 
-0.7278

>  <r_i_glide_gscore>  (69) 
-3.15298

>  <r_i_glide_lipo>  (69) 
-0.357996

>  <r_i_glide_hbond>  (69) 
0

>  <r_i_glide_metal>  (69) 
-0

>  <r_i_glide_rewards>  (69) 
-1.12616

>  <r_i_glide_evdw>  (69) 
-27.0528

>  <r_i_glide_ecoul>  (69) 
-6.31877

>  <r_i_glide_erotb>  (69) 
0.66096

>  <r_i_glide_esite>  (69) 
-0.0293221

>  <r_i_glide_emodel>  (69) 
-40.0214

>  <r_i_glide_energy>  (69) 
-33.3716

>  <r_i_glide_einternal>  (69) 
2.60758

>  <r_i_glide_intrahb_reward>  (69) 
-0

>  <i_i_glide_confnum>  (69) 
5

>  <i_i_glide_posenum>  (69) 
27

>  <r_i_glide_eff_state_penalty>  (69) 
0

>  <ligand_id>  (69) 
20

>  <original_smiles>  (69) 
OCC1OC(n2cnc3c(=NC4CC4c4ccccc4)[nH]cnc32)C(O)C1O

>  <smiles>  (69) 
[H]OC([H])([H])C1([H])OC([H])(n2c([H])nc3c(N([H])C4([H])C([H])([H])C4([H])c4c([H])c([H])c([H])c([H])c4[H])nc([H])nc32)C([H])(O[H])C1([H])O[H]

$$$$
21:0:0
     RDKit          3D

 44 47  0  0  1  0  0  0  0  0999 V2000
    5.3488   -1.5522    0.9746 N   0  0  0  0  0  0  0  0  0  0  0  0
    5.1734   -2.2629    0.0869 C   0  0  0  0  0  0  0  0  0  0  0  0
    4.9610   -3.1548   -1.0435 C   0  0  0  0  0  0  0  0  0  0  0  0
    4.5591   -4.4867   -0.6881 N   0  0  0  0  0  0  0  0  0  0  0  0
    5.0045   -5.1930    0.3641 C   0  0  0  0  0  0  0  0  0  0  0  0
    5.8646   -4.7449    1.1342 O   0  0  0  0  0  0  0  0  0  0  0  0
    4.4103   -6.5952    0.6066 C   0  0  2  0  0  0  0  0  0  0  0  0
    3.0081   -6.5604    1.0885 N   0  0  0  0  0  0  0  0  0  0  0  0
    2.9700   -6.6286    2.5567 C   0  0  1  0  0  0  0  0  0  0  0  0
    3.0944   -5.1812    3.1020 C   0  0  0  0  0  0  0  0  0  0  0  0
    3.0147   -5.1471    4.4364 F   0  0  0  0  0  0  0  0  0  0  0  0
    1.6584   -7.2470    3.1527 C   0  0  0  0  0  0  0  0  0  0  0  0
    1.6949   -7.7508    4.4704 C   0  0  0  0  0  0  0  0  0  0  0  0
    0.5730   -8.3198    5.0955 C   0  0  0  0  0  0  0  0  0  0  0  0
   -0.6591   -8.3353    4.4327 C   0  0  0  0  0  0  0  0  0  0  0  0
   -0.7504   -7.8060    3.1267 C   0  0  0  0  0  0  0  0  0  0  0  0
    0.3931   -7.2878    2.4870 C   0  0  0  0  0  0  0  0  0  0  0  0
    0.1261   -6.7038    0.8878 Cl  0  0  0  0  0  0  0  0  0  0  0  0
    4.2542   -7.4815    2.8736 C   0  0  1  0  0  0  0  0  0  0  0  0
    4.0868   -9.0136    3.0721 C   0  0  0  0  0  0  0  0  0  0  0  0
    5.2352   -9.5828    2.4873 O   0  0  0  0  0  0  0  0  0  0  0  0
    5.4313   -8.8845    1.2852 C   0  0  0  0  0  0  0  0  0  0  0  0
    5.1820   -7.4098    1.6701 C   0  0  1  0  0  0  0  0  0  0  0  0
    4.3939   -2.5446   -2.3102 C   0  0  0  0  0  0  0  0  0  0  0  0
    5.8379   -2.9821   -2.2674 C   0  0  0  0  0  0  0  0  0  0  0  0
    3.8948   -4.9430   -1.3182 H   0  0  0  0  0  0  0  0  0  0  0  0
    4.4461   -7.1258   -0.3552 H   0  0  0  0  0  0  0  0  0  0  0  0
    2.5209   -7.3920    0.7983 H   0  0  0  0  0  0  0  0  0  0  0  0
    4.0401   -4.7029    2.8608 H   0  0  0  0  0  0  0  0  0  0  0  0
    2.2915   -4.5513    2.7085 H   0  0  0  0  0  0  0  0  0  0  0  0
    2.6130   -7.6921    5.0432 H   0  0  0  0  0  0  0  0  0  0  0  0
    0.6716   -8.7542    6.0818 H   0  0  0  0  0  0  0  0  0  0  0  0
   -1.5284   -8.7728    4.8991 H   0  0  0  0  0  0  0  0  0  0  0  0
   -1.7015   -7.8137    2.6154 H   0  0  0  0  0  0  0  0  0  0  0  0
    4.7761   -7.0958    3.7541 H   0  0  0  0  0  0  0  0  0  0  0  0
    4.0622   -9.3070    4.1258 H   0  0  0  0  0  0  0  0  0  0  0  0
    3.1888   -9.4070    2.5605 H   0  0  0  0  0  0  0  0  0  0  0  0
    6.4640   -9.0492    0.9596 H   0  0  0  0  0  0  0  0  0  0  0  0
    4.7173   -9.2483    0.5229 H   0  0  0  0  0  0  0  0  0  0  0  0
    6.1518   -6.9839    1.9748 H   0  0  0  0  0  0  0  0  0  0  0  0
    3.7044   -3.1446   -2.9038 H   0  0  0  0  0  0  0  0  0  0  0  0
    4.1885   -1.4754   -2.2934 H   0  0  0  0  0  0  0  0  0  0  0  0
    6.6049   -2.2159   -2.2249 H   0  0  0  0  0  0  0  0  0  0  0  0
    6.1124   -3.8631   -2.8422 H   0  0  0  0  0  0  0  0  0  0  0  0
  1  2  3  0
  2  3  1  0
  3 25  1  0
  3  4  1  0
  3 24  1  0
  4  5  1  0
  4 26  1  0
  5  6  2  0
  5  7  1  0
  7 23  1  0
  7  8  1  0
  7 27  1  6
  8  9  1  0
  8 28  1  0
  9 10  1  1
  9 12  1  0
  9 19  1  0
 10 11  1  0
 10 29  1  0
 10 30  1  0
 12 17  1  0
 12 13  2  0
 13 14  1  0
 13 31  1  0
 14 15  2  0
 14 32  1  0
 15 16  1  0
 15 33  1  0
 16 17  2  0
 16 34  1  0
 17 18  1  0
 19 23  1  0
 19 20  1  0
 19 35  1  1
 20 21  1  0
 20 36  1  0
 20 37  1  0
 21 22  1  0
 22 23  1  0
 22 38  1  0
 22 39  1  0
 23 40  1  1
 24 25  1  0
 24 41  1  0
 24 42  1  0
 25 43  1  0
 25 44  1  0
M  END
>  <i_m_ct_stereo_status>  (70) 
1

>  <s_m_source_file>  (70) 
/var/tmp/pbs.5076255.sched01/tmp9s019jnz/08u7fdliu.sdf

>  <i_m_source_file_index>  (70) 
30

>  <i_lp_mmshare_version>  (70) 
48012

>  <i_f3d_flags>  (70) 
0

>  <s_epik_input>  (70) 
TiNDQzEoW0NIMl1bQ0gyXTEpW05IXUMoPU8pW0NAQEhdKFtDQEBIXShbQ0BASF0yMylbQ0gyXU9bQ0gyXTMpW05IXVtDQEBdMihbQ0gyXUYpYzRbY0hdW2NIXVtjSF1bY0hdYzRDbA==

>  <s_epik_cmdline>  (70) 
J2VwaWtfcHl0aG9uJywgJy1waHQnLCAnMi4wJywgJy1waCcsICc3LjAnLCAnLXRuJywgJzgnLCAnLW1hJywgJzIwMCcsICctaW1hZScsICc8aW5maWxlLm1hZT4nLCAnLW9tYWUnLCAnPG91dGZpbGUubWFlPic=

>  <r_epik_Ionization_Penalty>  (70) 
0.00567543

>  <r_epik_Ionization_Penalty_Charging>  (70) 
0

>  <r_epik_Ionization_Penalty_Neutral>  (70) 
0.00567543

>  <r_epik_State_Penalty>  (70) 
0.00415994

>  <r_epik_Charging_Adjusted_Penalty>  (70) 
0.00415994

>  <i_epik_Tot_Q>  (70) 
0

>  <i_epik_Tot_abs_Q>  (70) 
0

>  <s_lp_Force_Field>  (70) 
OPLS3e

>  <r_lp_Energy>  (70) 
30.5225

>  <b_lp_Chiralities_Consistent>  (70) 
1

>  <s_lp_Variant>  (70) 
21:0-1

>  <s_i_glide_gridfile>  (70) 
pfpi4k_grid

>  <i_i_glide_lignum>  (70) 
30

>  <i_i_glide_rotatable_bonds>  (70) 
6

>  <r_i_docking_score>  (70) 
-3.03558

>  <r_i_glide_ligand_efficiency>  (70) 
-0.121423

>  <r_i_glide_ligand_efficiency_sa>  (70) 
-0.355044

>  <r_i_glide_ligand_efficiency_ln>  (70) 
-0.719524

>  <r_i_glide_gscore>  (70) 
-3.03558

>  <r_i_glide_lipo>  (70) 
-0.426908

>  <r_i_glide_hbond>  (70) 
-0.32

>  <r_i_glide_metal>  (70) 
-0

>  <r_i_glide_rewards>  (70) 
-1.05127

>  <r_i_glide_evdw>  (70) 
-25.5949

>  <r_i_glide_ecoul>  (70) 
-3.48536

>  <r_i_glide_erotb>  (70) 
0.58077

>  <r_i_glide_esite>  (70) 
-0.0156307

>  <r_i_glide_emodel>  (70) 
-31.7157

>  <r_i_glide_energy>  (70) 
-29.0803

>  <r_i_glide_einternal>  (70) 
5.23995

>  <r_i_glide_intrahb_reward>  (70) 
-0

>  <i_i_glide_confnum>  (70) 
3

>  <i_i_glide_posenum>  (70) 
25

>  <r_i_glide_eff_state_penalty>  (70) 
0

>  <ligand_id>  (70) 
21

>  <original_smiles>  (70) 
N#CC1(NC(=O)C2NC(CF)(c3ccccc3Cl)C3COCC23)CC1

>  <smiles>  (70) 
[H]c1c([H])c([H])c(C2(C([H])([H])F)N([H])C([H])(C(=O)N([H])C3(C#N)C([H])([H])C3([H])[H])C3([H])C([H])([H])OC([H])([H])C23[H])c(Cl)c1[H]

$$$$
21:0:1
     RDKit          3D

 44 47  0  0  1  0  0  0  0  0999 V2000
    0.2004   -6.2337    4.5389 N   0  0  0  0  0  0  0  0  0  0  0  0
    0.1937   -5.1202    4.8553 C   0  0  0  0  0  0  0  0  0  0  0  0
    0.1732   -3.7355    5.2558 C   0  0  0  0  0  0  0  0  0  0  0  0
    0.6221   -2.8511    4.2126 N   0  0  0  0  0  0  0  0  0  0  0  0
    1.8805   -2.8963    3.6915 C   0  0  0  0  0  0  0  0  0  0  0  0
    2.7521   -3.5890    4.1844 O   0  0  0  0  0  0  0  0  0  0  0  0
    2.2106   -1.9626    2.5095 C   0  0  2  0  0  0  0  0  0  0  0  0
    2.3244   -2.6533    1.2077 N   0  0  0  0  0  0  0  0  0  0  0  0
    3.7315   -3.0618    0.9540 C   0  0  1  0  0  0  0  0  0  0  0  0
    3.9335   -4.4957    1.5443 C   0  0  0  0  0  0  0  0  0  0  0  0
    3.0287   -5.3235    1.0074 F   0  0  0  0  0  0  0  0  0  0  0  0
    4.1031   -3.0978   -0.5607 C   0  0  0  0  0  0  0  0  0  0  0  0
    3.1203   -2.8945   -1.5584 C   0  0  0  0  0  0  0  0  0  0  0  0
    3.4294   -2.9344   -2.9344 C   0  0  0  0  0  0  0  0  0  0  0  0
    4.7438   -3.2233   -3.3372 C   0  0  0  0  0  0  0  0  0  0  0  0
    5.7395   -3.4474   -2.3760 C   0  0  0  0  0  0  0  0  0  0  0  0
    5.4342   -3.3774   -0.9990 C   0  0  0  0  0  0  0  0  0  0  0  0
    6.7679   -3.6577    0.0708 Cl  0  0  0  0  0  0  0  0  0  0  0  0
    4.5377   -1.9747    1.7446 C   0  0  1  0  0  0  0  0  0  0  0  0
    5.2067   -0.8133    0.9613 C   0  0  0  0  0  0  0  0  0  0  0  0
    4.1791    0.1743    0.8989 O   0  0  0  0  0  0  0  0  0  0  0  0
    3.5834    0.2049    2.2021 C   0  0  0  0  0  0  0  0  0  0  0  0
    3.5632   -1.2513    2.6906 C   0  0  1  0  0  0  0  0  0  0  0  0
   -0.9125   -3.2386    6.1846 C   0  0  0  0  0  0  0  0  0  0  0  0
    0.5023   -3.3837    6.6988 C   0  0  0  0  0  0  0  0  0  0  0  0
   -0.0373   -2.1701    3.8682 H   0  0  0  0  0  0  0  0  0  0  0  0
    1.4197   -1.2130    2.4398 H   0  0  0  0  0  0  0  0  0  0  0  0
    2.0690   -2.0069    0.4680 H   0  0  0  0  0  0  0  0  0  0  0  0
    4.8954   -4.9142    1.2383 H   0  0  0  0  0  0  0  0  0  0  0  0
    3.9197   -4.5458    2.6056 H   0  0  0  0  0  0  0  0  0  0  0  0
    2.0838   -2.7140   -1.3098 H   0  0  0  0  0  0  0  0  0  0  0  0
    2.6510   -2.7676   -3.6770 H   0  0  0  0  0  0  0  0  0  0  0  0
    5.0058   -3.2987   -4.3764 H   0  0  0  0  0  0  0  0  0  0  0  0
    6.7599   -3.6755   -2.6715 H   0  0  0  0  0  0  0  0  0  0  0  0
    5.3165   -2.4682    2.3211 H   0  0  0  0  0  0  0  0  0  0  0  0
    6.0762   -0.4319    1.5112 H   0  0  0  0  0  0  0  0  0  0  0  0
    5.5062   -1.0038   -0.0660 H   0  0  0  0  0  0  0  0  0  0  0  0
    4.2186    0.8137    2.8418 H   0  0  0  0  0  0  0  0  0  0  0  0
    2.6102    0.6720    2.0930 H   0  0  0  0  0  0  0  0  0  0  0  0
    3.9125   -1.2745    3.7326 H   0  0  0  0  0  0  0  0  0  0  0  0
   -1.2864   -2.2357    6.0020 H   0  0  0  0  0  0  0  0  0  0  0  0
   -1.6490   -3.9852    6.4949 H   0  0  0  0  0  0  0  0  0  0  0  0
    0.7086   -4.2121    7.3774 H   0  0  0  0  0  0  0  0  0  0  0  0
    1.0795   -2.4826    6.8922 H   0  0  0  0  0  0  0  0  0  0  0  0
  1  2  3  0
  2  3  1  0
  3 25  1  0
  3  4  1  0
  3 24  1  0
  4  5  1  0
  4 26  1  0
  5  6  2  0
  5  7  1  0
  7 23  1  0
  7  8  1  0
  7 27  1  6
  8  9  1  0
  8 28  1  0
  9 10  1  1
  9 12  1  0
  9 19  1  0
 10 11  1  0
 10 29  1  0
 10 30  1  0
 12 17  1  0
 12 13  2  0
 13 14  1  0
 13 31  1  0
 14 15  2  0
 14 32  1  0
 15 16  1  0
 15 33  1  0
 16 17  2  0
 16 34  1  0
 17 18  1  0
 19 23  1  0
 19 20  1  0
 19 35  1  1
 20 21  1  0
 20 36  1  0
 20 37  1  0
 21 22  1  0
 22 23  1  0
 22 38  1  0
 22 39  1  0
 23 40  1  1
 24 25  1  0
 24 41  1  0
 24 42  1  0
 25 43  1  0
 25 44  1  0
M  END
>  <i_m_ct_stereo_status>  (71) 
1

>  <s_m_source_file>  (71) 
/var/tmp/pbs.5076255.sched01/tmp9s019jnz/08u7fdliu.sdf

>  <i_m_source_file_index>  (71) 
30

>  <i_lp_mmshare_version>  (71) 
48012

>  <i_f3d_flags>  (71) 
0

>  <s_epik_input>  (71) 
TiNDQzEoW0NIMl1bQ0gyXTEpW05IXUMoPU8pW0NAQEhdKFtDQEBIXShbQ0BASF0yMylbQ0gyXU9bQ0gyXTMpW05IXVtDQEBdMihbQ0gyXUYpYzRbY0hdW2NIXVtjSF1bY0hdYzRDbA==

>  <s_epik_cmdline>  (71) 
J2VwaWtfcHl0aG9uJywgJy1waHQnLCAnMi4wJywgJy1waCcsICc3LjAnLCAnLXRuJywgJzgnLCAnLW1hJywgJzIwMCcsICctaW1hZScsICc8aW5maWxlLm1hZT4nLCAnLW9tYWUnLCAnPG91dGZpbGUubWFlPic=

>  <r_epik_Ionization_Penalty>  (71) 
0.00567543

>  <r_epik_Ionization_Penalty_Charging>  (71) 
0

>  <r_epik_Ionization_Penalty_Neutral>  (71) 
0.00567543

>  <r_epik_State_Penalty>  (71) 
0.00415994

>  <r_epik_Charging_Adjusted_Penalty>  (71) 
0.00415994

>  <i_epik_Tot_Q>  (71) 
0

>  <i_epik_Tot_abs_Q>  (71) 
0

>  <s_lp_Force_Field>  (71) 
OPLS3e

>  <r_lp_Energy>  (71) 
30.5225

>  <b_lp_Chiralities_Consistent>  (71) 
1

>  <s_lp_Variant>  (71) 
21:0-1

>  <s_i_glide_gridfile>  (71) 
pfpi4k_grid

>  <i_i_glide_lignum>  (71) 
30

>  <i_i_glide_rotatable_bonds>  (71) 
6

>  <r_i_docking_score>  (71) 
-2.95931

>  <r_i_glide_ligand_efficiency>  (71) 
-0.118372

>  <r_i_glide_ligand_efficiency_sa>  (71) 
-0.346122

>  <r_i_glide_ligand_efficiency_ln>  (71) 
-0.701444

>  <r_i_glide_gscore>  (71) 
-2.95931

>  <r_i_glide_lipo>  (71) 
-0.84793

>  <r_i_glide_hbond>  (71) 
-0.132082

>  <r_i_glide_metal>  (71) 
-0

>  <r_i_glide_rewards>  (71) 
-0.945776

>  <r_i_glide_evdw>  (71) 
-24.0862

>  <r_i_glide_ecoul>  (71) 
-2.56135

>  <r_i_glide_erotb>  (71) 
0.58077

>  <r_i_glide_esite>  (71) 
-0.0257751

>  <r_i_glide_emodel>  (71) 
-30.1466

>  <r_i_glide_energy>  (71) 
-26.6475

>  <r_i_glide_einternal>  (71) 
2.64904

>  <r_i_glide_intrahb_reward>  (71) 
-0

>  <i_i_glide_confnum>  (71) 
4

>  <i_i_glide_posenum>  (71) 
14

>  <r_i_glide_eff_state_penalty>  (71) 
0

>  <ligand_id>  (71) 
21

>  <original_smiles>  (71) 
N#CC1(NC(=O)C2NC(CF)(c3ccccc3Cl)C3COCC23)CC1

>  <smiles>  (71) 
[H]c1c([H])c([H])c(C2(C([H])([H])F)N([H])C([H])(C(=O)N([H])C3(C#N)C([H])([H])C3([H])[H])C3([H])C([H])([H])OC([H])([H])C23[H])c(Cl)c1[H]

$$$$
21:0:2
     RDKit          3D

 44 47  0  0  1  0  0  0  0  0999 V2000
    3.7846   -0.4881    0.9341 N   0  0  0  0  0  0  0  0  0  0  0  0
    3.7807   -1.2159    0.0429 C   0  0  0  0  0  0  0  0  0  0  0  0
    3.7872   -2.1280   -1.0908 C   0  0  0  0  0  0  0  0  0  0  0  0
    3.7360   -3.5216   -0.7243 N   0  0  0  0  0  0  0  0  0  0  0  0
    4.3715   -4.0860    0.3143 C   0  0  0  0  0  0  0  0  0  0  0  0
    5.1141   -3.4329    1.0579 O   0  0  0  0  0  0  0  0  0  0  0  0
    4.1545   -5.5929    0.5772 C   0  0  2  0  0  0  0  0  0  0  0  0
    2.7904   -5.9017    1.0581 N   0  0  0  0  0  0  0  0  0  0  0  0
    2.7732   -5.9445    2.5352 C   0  0  1  0  0  0  0  0  0  0  0  0
    2.5504   -4.4964    3.0463 C   0  0  0  0  0  0  0  0  0  0  0  0
    2.4658   -4.4466    4.3808 F   0  0  0  0  0  0  0  0  0  0  0  0
    1.6535   -6.8385    3.1492 C   0  0  0  0  0  0  0  0  0  0  0  0
    1.8146   -7.2942    4.4792 C   0  0  0  0  0  0  0  0  0  0  0  0
    0.8600   -8.1055    5.1211 C   0  0  0  0  0  0  0  0  0  0  0  0
   -0.3279   -8.4420    4.4531 C   0  0  0  0  0  0  0  0  0  0  0  0
   -0.5426   -7.9788    3.1490 C   0  0  0  0  0  0  0  0  0  0  0  0
    0.4301   -7.1901    2.4945 C   0  0  0  0  0  0  0  0  0  0  0  0
   -0.0016   -6.6560    0.9067 Cl  0  0  0  0  0  0  0  0  0  0  0  0
    4.2199   -6.4482    2.8613 C   0  0  1  0  0  0  0  0  0  0  0  0
    4.4239   -7.9642    3.0910 C   0  0  0  0  0  0  0  0  0  0  0  0
    5.6684   -8.2677    2.5023 O   0  0  0  0  0  0  0  0  0  0  0  0
    5.7000   -7.5467    1.2931 C   0  0  0  0  0  0  0  0  0  0  0  0
    5.1028   -6.1756    1.6480 C   0  0  1  0  0  0  0  0  0  0  0  0
    3.0827   -1.6948   -2.3562 C   0  0  0  0  0  0  0  0  0  0  0  0
    4.5890   -1.7492   -2.3171 C   0  0  0  0  0  0  0  0  0  0  0  0
    3.1843   -4.1292   -1.3282 H   0  0  0  0  0  0  0  0  0  0  0  0
    4.3184   -6.1069   -0.3805 H   0  0  0  0  0  0  0  0  0  0  0  0
    2.5222   -6.8327    0.7714 H   0  0  0  0  0  0  0  0  0  0  0  0
    3.3571   -3.8126    2.7971 H   0  0  0  0  0  0  0  0  0  0  0  0
    1.6236   -4.0749    2.6444 H   0  0  0  0  0  0  0  0  0  0  0  0
    2.6887   -7.0105    5.0442 H   0  0  0  0  0  0  0  0  0  0  0  0
    1.0531   -8.4736    6.1204 H   0  0  0  0  0  0  0  0  0  0  0  0
   -1.0663   -9.0612    4.9389 H   0  0  0  0  0  0  0  0  0  0  0  0
   -1.4594   -8.2237    2.6340 H   0  0  0  0  0  0  0  0  0  0  0  0
    4.6325   -5.9305    3.7295 H   0  0  0  0  0  0  0  0  0  0  0  0
    4.4609   -8.2381    4.1491 H   0  0  0  0  0  0  0  0  0  0  0  0
    3.6373   -8.5724    2.5932 H   0  0  0  0  0  0  0  0  0  0  0  0
    6.7392   -7.4618    0.9633 H   0  0  0  0  0  0  0  0  0  0  0  0
    5.0980   -8.0823    0.5336 H   0  0  0  0  0  0  0  0  0  0  0  0
    5.9340   -5.5202    1.9396 H   0  0  0  0  0  0  0  0  0  0  0  0
    2.5624   -2.4498   -2.9416 H   0  0  0  0  0  0  0  0  0  0  0  0
    2.6142   -0.7109   -2.3421 H   0  0  0  0  0  0  0  0  0  0  0  0
    5.1214   -0.8002   -2.2896 H   0  0  0  0  0  0  0  0  0  0  0  0
    5.0825   -2.5376   -2.8821 H   0  0  0  0  0  0  0  0  0  0  0  0
  1  2  3  0
  2  3  1  0
  3 25  1  0
  3  4  1  0
  3 24  1  0
  4  5  1  0
  4 26  1  0
  5  6  2  0
  5  7  1  0
  7 23  1  0
  7  8  1  0
  7 27  1  6
  8  9  1  0
  8 28  1  0
  9 10  1  1
  9 12  1  0
  9 19  1  0
 10 11  1  0
 10 29  1  0
 10 30  1  0
 12 17  1  0
 12 13  2  0
 13 14  1  0
 13 31  1  0
 14 15  2  0
 14 32  1  0
 15 16  1  0
 15 33  1  0
 16 17  2  0
 16 34  1  0
 17 18  1  0
 19 23  1  0
 19 20  1  0
 19 35  1  1
 20 21  1  0
 20 36  1  0
 20 37  1  0
 21 22  1  0
 22 23  1  0
 22 38  1  0
 22 39  1  0
 23 40  1  1
 24 25  1  0
 24 41  1  0
 24 42  1  0
 25 43  1  0
 25 44  1  0
M  END
>  <i_m_ct_stereo_status>  (72) 
1

>  <s_m_source_file>  (72) 
/var/tmp/pbs.5076255.sched01/tmp9s019jnz/08u7fdliu.sdf

>  <i_m_source_file_index>  (72) 
30

>  <i_lp_mmshare_version>  (72) 
48012

>  <i_f3d_flags>  (72) 
0

>  <s_epik_input>  (72) 
TiNDQzEoW0NIMl1bQ0gyXTEpW05IXUMoPU8pW0NAQEhdKFtDQEBIXShbQ0BASF0yMylbQ0gyXU9bQ0gyXTMpW05IXVtDQEBdMihbQ0gyXUYpYzRbY0hdW2NIXVtjSF1bY0hdYzRDbA==

>  <s_epik_cmdline>  (72) 
J2VwaWtfcHl0aG9uJywgJy1waHQnLCAnMi4wJywgJy1waCcsICc3LjAnLCAnLXRuJywgJzgnLCAnLW1hJywgJzIwMCcsICctaW1hZScsICc8aW5maWxlLm1hZT4nLCAnLW9tYWUnLCAnPG91dGZpbGUubWFlPic=

>  <r_epik_Ionization_Penalty>  (72) 
0.00567543

>  <r_epik_Ionization_Penalty_Charging>  (72) 
0

>  <r_epik_Ionization_Penalty_Neutral>  (72) 
0.00567543

>  <r_epik_State_Penalty>  (72) 
0.00415994

>  <r_epik_Charging_Adjusted_Penalty>  (72) 
0.00415994

>  <i_epik_Tot_Q>  (72) 
0

>  <i_epik_Tot_abs_Q>  (72) 
0

>  <s_lp_Force_Field>  (72) 
OPLS3e

>  <r_lp_Energy>  (72) 
30.5225

>  <b_lp_Chiralities_Consistent>  (72) 
1

>  <s_lp_Variant>  (72) 
21:0-1

>  <s_i_glide_gridfile>  (72) 
pfpi4k_grid

>  <i_i_glide_lignum>  (72) 
30

>  <i_i_glide_rotatable_bonds>  (72) 
6

>  <r_i_docking_score>  (72) 
-2.58019

>  <r_i_glide_ligand_efficiency>  (72) 
-0.103208

>  <r_i_glide_ligand_efficiency_sa>  (72) 
-0.301781

>  <r_i_glide_ligand_efficiency_ln>  (72) 
-0.611583

>  <r_i_glide_gscore>  (72) 
-2.58019

>  <r_i_glide_lipo>  (72) 
-0.213982

>  <r_i_glide_hbond>  (72) 
-0.0514701

>  <r_i_glide_metal>  (72) 
-0

>  <r_i_glide_rewards>  (72) 
-0.966595

>  <r_i_glide_evdw>  (72) 
-24.9889

>  <r_i_glide_ecoul>  (72) 
-4.17164

>  <r_i_glide_erotb>  (72) 
0.58077

>  <r_i_glide_esite>  (72) 
-0.0537246

>  <r_i_glide_emodel>  (72) 
-31.0517

>  <r_i_glide_energy>  (72) 
-29.1606

>  <r_i_glide_einternal>  (72) 
5.15692

>  <r_i_glide_intrahb_reward>  (72) 
-0

>  <i_i_glide_confnum>  (72) 
3

>  <i_i_glide_posenum>  (72) 
37

>  <r_i_glide_eff_state_penalty>  (72) 
0

>  <ligand_id>  (72) 
21

>  <original_smiles>  (72) 
N#CC1(NC(=O)C2NC(CF)(c3ccccc3Cl)C3COCC23)CC1

>  <smiles>  (72) 
[H]c1c([H])c([H])c(C2(C([H])([H])F)N([H])C([H])(C(=O)N([H])C3(C#N)C([H])([H])C3([H])[H])C3([H])C([H])([H])OC([H])([H])C23[H])c(Cl)c1[H]

$$$$
22:1:0
     RDKit          3D

 58 63  0  0  1  0  0  0  0  0999 V2000
    0.2089   -7.4425    1.4948 C   0  0  0  0  0  0  0  0  0  0  0  0
    0.9391   -6.2547    1.7610 O   0  0  0  0  0  0  0  0  0  0  0  0
    2.3162   -6.2974    1.6780 C   0  0  0  0  0  0  0  0  0  0  0  0
    3.0525   -7.4549    1.2846 C   0  0  0  0  0  0  0  0  0  0  0  0
    4.4693   -7.4399    1.1602 C   0  0  0  0  0  0  0  0  0  0  0  0
    5.1449   -6.2620    1.4995 C   0  0  0  0  0  0  0  0  0  0  0  0
    4.3948   -5.1912    1.9500 C   0  0  0  0  0  0  0  0  0  0  0  0
    2.9880   -5.0892    2.0504 C   0  0  0  0  0  0  0  0  0  0  0  0
    2.3449   -3.9445    2.3936 O   0  0  0  0  0  0  0  0  0  0  0  0
    3.1426   -2.8620    2.9430 C   0  0  1  0  0  0  0  0  0  0  0  0
    3.3765   -3.1997    4.4206 C   0  0  0  0  0  0  0  0  0  0  0  0
    2.7362   -2.6605    5.3316 O   0  0  0  0  0  0  0  0  0  0  0  0
    4.4590   -4.2619    4.7136 C   0  0  0  0  0  0  0  0  0  0  0  0
    5.5669   -4.2104    3.7904 O   0  0  0  0  0  0  0  0  0  0  0  0
    5.2518   -4.0491    2.3976 C   0  0  1  0  0  0  0  0  0  0  0  0
    6.5448   -4.2532    1.5552 C   0  0  1  0  0  0  0  0  0  0  0  0
    6.5857   -5.7992    1.4601 C   0  0  0  0  0  0  0  0  0  0  0  0
    6.5078   -3.6279    0.2237 N   0  0  0  0  0  0  0  0  0  0  0  0
    7.7911   -3.6472   -0.4816 C   0  0  0  0  0  0  0  0  0  0  0  0
    6.0168   -2.2643    0.2823 C   0  0  0  0  0  0  0  0  0  0  0  0
    4.5474   -2.1951    0.7830 C   0  0  1  0  0  0  0  0  0  0  0  0
    3.5617   -2.8691   -0.2145 C   0  0  0  0  0  0  0  0  0  0  0  0
    3.5286   -2.2671   -1.6034 C   0  0  0  0  0  0  0  0  0  0  0  0
    4.1127   -1.0156   -1.9129 C   0  0  0  0  0  0  0  0  0  0  0  0
    4.0772   -0.4960   -3.2065 C   0  0  0  0  0  0  0  0  0  0  0  0
    3.4140   -1.1987   -4.2299 C   0  0  0  0  0  0  0  0  0  0  0  0
    2.8052   -2.4381   -3.9301 C   0  0  0  0  0  0  0  0  0  0  0  0
    2.8560   -2.9705   -2.6247 C   0  0  0  0  0  0  0  0  0  0  0  0
    4.5388   -2.6831    2.2578 C   0  0  1  0  0  0  0  0  0  0  0  0
    5.3559   -1.7488    3.0107 O   0  0  0  0  0  0  0  0  0  0  0  0
    4.9078   -0.4080    3.1952 C   0  0  0  0  0  0  0  0  0  0  0  0
   -0.8554   -7.2366    1.6017 H   0  0  0  0  0  0  0  0  0  0  0  0
    0.4622   -8.2360    2.1977 H   0  0  0  0  0  0  0  0  0  0  0  0
    0.3821   -7.7786    0.4782 H   0  0  0  0  0  0  0  0  0  0  0  0
    2.5532   -8.3737    1.0429 H   0  0  0  0  0  0  0  0  0  0  0  0
    5.0111   -8.3031    0.8062 H   0  0  0  0  0  0  0  0  0  0  0  0
    2.5688   -1.9406    2.8839 H   0  0  0  0  0  0  0  0  0  0  0  0
    4.8270   -4.1579    5.7312 H   0  0  0  0  0  0  0  0  0  0  0  0
    3.9913   -5.2460    4.6437 H   0  0  0  0  0  0  0  0  0  0  0  0
    7.4189   -3.8578    2.0668 H   0  0  0  0  0  0  0  0  0  0  0  0
    7.1044   -6.2099    2.3268 H   0  0  0  0  0  0  0  0  0  0  0  0
    7.0901   -6.1559    0.5629 H   0  0  0  0  0  0  0  0  0  0  0  0
    7.6652   -3.2300   -1.4822 H   0  0  0  0  0  0  0  0  0  0  0  0
    8.1790   -4.6515   -0.6015 H   0  0  0  0  0  0  0  0  0  0  0  0
    8.5440   -3.0491    0.0281 H   0  0  0  0  0  0  0  0  0  0  0  0
    6.6523   -1.6527    0.9318 H   0  0  0  0  0  0  0  0  0  0  0  0
    6.1236   -1.8274   -0.7065 H   0  0  0  0  0  0  0  0  0  0  0  0
    4.2036   -1.1626    0.8344 H   0  0  0  0  0  0  0  0  0  0  0  0
    3.8217   -3.9239   -0.3205 H   0  0  0  0  0  0  0  0  0  0  0  0
    2.5456   -2.8310    0.1821 H   0  0  0  0  0  0  0  0  0  0  0  0
    4.5830   -0.3918   -1.1721 H   0  0  0  0  0  0  0  0  0  0  0  0
    4.5338    0.4550   -3.3835 H   0  0  0  0  0  0  0  0  0  0  0  0
    3.3622   -0.7721   -5.2176 H   0  0  0  0  0  0  0  0  0  0  0  0
    2.2758   -2.9832   -4.6919 H   0  0  0  0  0  0  0  0  0  0  0  0
    2.3545   -3.8996   -2.4163 H   0  0  0  0  0  0  0  0  0  0  0  0
    5.5799    0.0843    3.8920 H   0  0  0  0  0  0  0  0  0  0  0  0
    3.9072   -0.3432    3.6146 H   0  0  0  0  0  0  0  0  0  0  0  0
    4.9443    0.1740    2.2798 H   0  0  0  0  0  0  0  0  0  0  0  0
  1  2  1  0
  1 32  1  0
  1 33  1  0
  1 34  1  0
  2  3  1  0
  3  8  2  0
  3  4  1  0
  4  5  2  0
  4 35  1  0
  5  6  1  0
  5 36  1  0
  6 17  1  0
  6  7  2  0
  7 15  1  0
  7  8  1  0
  8  9  1  0
  9 10  1  0
 10 29  1  0
 10 11  1  0
 10 37  1  1
 11 12  2  0
 11 13  1  0
 13 14  1  0
 13 38  1  0
 13 39  1  0
 15 14  1  1
 15 29  1  0
 15 16  1  0
 16 17  1  0
 16 18  1  0
 16 40  1  1
 17 41  1  0
 17 42  1  0
 18 19  1  0
 18 20  1  0
 19 43  1  0
 19 44  1  0
 19 45  1  0
 20 21  1  0
 20 46  1  0
 20 47  1  0
 21 22  1  0
 21 29  1  0
 21 48  1  1
 22 23  1  0
 22 49  1  0
 22 50  1  0
 23 28  1  0
 23 24  2  0
 24 25  1  0
 24 51  1  0
 25 26  2  0
 25 52  1  0
 26 27  1  0
 26 53  1  0
 27 28  2  0
 27 54  1  0
 28 55  1  0
 29 30  1  1
 30 31  1  0
 31 56  1  0
 31 57  1  0
 31 58  1  0
M  END
>  <i_m_ct_stereo_status>  (73) 
1

>  <s_m_source_file>  (73) 
/var/tmp/pbs.5076255.sched01/tmp9s019jnz/08u7fdliu.sdf

>  <i_m_source_file_index>  (73) 
32

>  <i_lp_mmshare_version>  (73) 
48012

>  <i_f3d_flags>  (73) 
0

>  <s_epik_input>  (73) 
W0NAXTEyM2M0YzVbY0hdW2NIXWMoT1tDSDNdKWM0T1tDQEBIXShDKD1PKVtDSDJdTzEpW0NAXTMoT1tDSDNdKVtDQEBIXShbQ0gyXU4oW0NIM10pW0NAQEhdMltDSDJdNSlbQ0gyXWM2W2NIXVtjSF1bY0hdW2NIXVtjSF02

>  <s_epik_cmdline>  (73) 
J2VwaWtfcHl0aG9uJywgJy1waHQnLCAnMi4wJywgJy1waCcsICc3LjAnLCAnLXRuJywgJzgnLCAnLW1hJywgJzIwMCcsICctaW1hZScsICc8aW5maWxlLm1hZT4nLCAnLW9tYWUnLCAnPG91dGZpbGUubWFlPic=

>  <r_lp_tautomer_probability>  (73) 
1

>  <r_epik_Ionization_Penalty>  (73) 
0.516193

>  <r_epik_Ionization_Penalty_Charging>  (73) 
0

>  <r_epik_Ionization_Penalty_Neutral>  (73) 
0.516193

>  <r_epik_State_Penalty>  (73) 
0.523837

>  <r_epik_Charging_Adjusted_Penalty>  (73) 
0.523837

>  <i_epik_Tot_Q>  (73) 
0

>  <i_epik_Tot_abs_Q>  (73) 
0

>  <s_lp_Force_Field>  (73) 
OPLS3e

>  <r_lp_Energy>  (73) 
60.7481

>  <b_lp_Chiralities_Consistent>  (73) 
1

>  <s_lp_Variant>  (73) 
22:0-2

>  <s_i_glide_gridfile>  (73) 
pfpi4k_grid

>  <i_i_glide_lignum>  (73) 
32

>  <i_i_glide_rotatable_bonds>  (73) 
4

>  <r_i_docking_score>  (73) 
-3.24538

>  <r_i_glide_ligand_efficiency>  (73) 
-0.10469

>  <r_i_glide_ligand_efficiency_sa>  (73) 
-0.32887

>  <r_i_glide_ligand_efficiency_ln>  (73) 
-0.731933

>  <r_i_glide_gscore>  (73) 
-3.24538

>  <r_i_glide_lipo>  (73) 
-1.14309

>  <r_i_glide_hbond>  (73) 
-0.103773

>  <r_i_glide_metal>  (73) 
-0

>  <r_i_glide_rewards>  (73) 
-0.535326

>  <r_i_glide_evdw>  (73) 
-28.5126

>  <r_i_glide_ecoul>  (73) 
-1.73664

>  <r_i_glide_erotb>  (73) 
0.222931

>  <r_i_glide_esite>  (73) 
0

>  <r_i_glide_emodel>  (73) 
-34.4823

>  <r_i_glide_energy>  (73) 
-30.2492

>  <r_i_glide_einternal>  (73) 
3.05814

>  <r_i_glide_intrahb_reward>  (73) 
-0

>  <i_i_glide_confnum>  (73) 
5

>  <i_i_glide_posenum>  (73) 
5

>  <r_i_glide_eff_state_penalty>  (73) 
0

>  <ligand_id>  (73) 
22

>  <original_smiles>  (73) 
COc1ccc2c3c1OC1C(=O)COC34C(C2)N(C)CC(Cc2ccccc2)C14OC

>  <smiles>  (73) 
[H]c1c([H])c([H])c(C([H])([H])C2([H])C([H])([H])N(C([H])([H])[H])C3([H])C([H])([H])c4c([H])c([H])c(OC([H])([H])[H])c5c4C34OC([H])([H])C(=O)C([H])(O5)C42OC([H])([H])[H])c([H])c1[H]

$$$$
22:1:1
     RDKit          3D

 58 63  0  0  1  0  0  0  0  0999 V2000
    0.3673   -7.0261    0.8833 C   0  0  0  0  0  0  0  0  0  0  0  0
    1.2899   -5.9577    0.9755 O   0  0  0  0  0  0  0  0  0  0  0  0
    2.6024   -6.2582    1.2832 C   0  0  0  0  0  0  0  0  0  0  0  0
    3.1347   -7.5764    1.3005 C   0  0  0  0  0  0  0  0  0  0  0  0
    4.5139   -7.8296    1.5467 C   0  0  0  0  0  0  0  0  0  0  0  0
    5.3327   -6.7268    1.8248 C   0  0  0  0  0  0  0  0  0  0  0  0
    4.7628   -5.4774    1.8574 C   0  0  0  0  0  0  0  0  0  0  0  0
    3.4134   -5.1317    1.5857 C   0  0  0  0  0  0  0  0  0  0  0  0
    2.9717   -3.8365    1.5210 O   0  0  0  0  0  0  0  0  0  0  0  0
    3.8605   -2.8042    1.9947 C   0  0  1  0  0  0  0  0  0  0  0  0
    3.6900   -2.7935    3.5175 C   0  0  0  0  0  0  0  0  0  0  0  0
    2.9998   -1.9469    4.0932 O   0  0  0  0  0  0  0  0  0  0  0  0
    4.4123   -3.9097    4.2883 C   0  0  0  0  0  0  0  0  0  0  0  0
    5.6813   -4.2692    3.6982 O   0  0  0  0  0  0  0  0  0  0  0  0
    5.7342   -4.4121    2.2666 C   0  0  1  0  0  0  0  0  0  0  0  0
    7.1084   -5.0235    1.8604 C   0  0  1  0  0  0  0  0  0  0  0  0
    6.8242   -6.5341    2.0813 C   0  0  0  0  0  0  0  0  0  0  0  0
    7.4866   -4.7620    0.4636 N   0  0  0  0  0  0  0  0  0  0  0  0
    8.8521   -5.1701    0.1554 C   0  0  0  0  0  0  0  0  0  0  0  0
    7.3221   -3.3575    0.1042 C   0  0  0  0  0  0  0  0  0  0  0  0
    5.8605   -2.8965    0.1880 C   0  0  1  0  0  0  0  0  0  0  0  0
    5.0192   -3.6218   -0.9067 C   0  0  0  0  0  0  0  0  0  0  0  0
    4.4715   -2.7421   -2.0035 C   0  0  0  0  0  0  0  0  0  0  0  0
    4.0551   -3.3504   -3.2018 C   0  0  0  0  0  0  0  0  0  0  0  0
    3.4484   -2.5938   -4.2140 C   0  0  0  0  0  0  0  0  0  0  0  0
    3.3702   -1.1946   -4.0989 C   0  0  0  0  0  0  0  0  0  0  0  0
    3.8016   -0.5810   -2.9103 C   0  0  0  0  0  0  0  0  0  0  0  0
    4.2908   -1.3504   -1.8411 C   0  0  0  0  0  0  0  0  0  0  0  0
    5.3794   -3.0256    1.6676 C   0  0  1  0  0  0  0  0  0  0  0  0
    6.1729   -2.0771    2.4046 O   0  0  0  0  0  0  0  0  0  0  0  0
    5.9027   -0.6777    2.3338 C   0  0  0  0  0  0  0  0  0  0  0  0
   -0.5972   -6.6067    0.6176 H   0  0  0  0  0  0  0  0  0  0  0  0
    0.2697   -7.5491    1.8337 H   0  0  0  0  0  0  0  0  0  0  0  0
    0.6184   -7.7239    0.0927 H   0  0  0  0  0  0  0  0  0  0  0  0
    2.5142   -8.4350    1.0864 H   0  0  0  0  0  0  0  0  0  0  0  0
    4.9163   -8.8304    1.5214 H   0  0  0  0  0  0  0  0  0  0  0  0
    3.5248   -1.8516    1.5847 H   0  0  0  0  0  0  0  0  0  0  0  0
    4.5512   -3.6204    5.3311 H   0  0  0  0  0  0  0  0  0  0  0  0
    3.7601   -4.7875    4.2877 H   0  0  0  0  0  0  0  0  0  0  0  0
    7.9232   -4.6636    2.4771 H   0  0  0  0  0  0  0  0  0  0  0  0
    7.0158   -6.7931    3.1196 H   0  0  0  0  0  0  0  0  0  0  0  0
    7.4199   -7.1872    1.4472 H   0  0  0  0  0  0  0  0  0  0  0  0
    9.0726   -4.9707   -0.8959 H   0  0  0  0  0  0  0  0  0  0  0  0
    9.0170   -6.2347    0.3224 H   0  0  0  0  0  0  0  0  0  0  0  0
    9.5594   -4.6002    0.7591 H   0  0  0  0  0  0  0  0  0  0  0  0
    7.9420   -2.7367    0.7471 H   0  0  0  0  0  0  0  0  0  0  0  0
    7.6713   -3.1863   -0.9151 H   0  0  0  0  0  0  0  0  0  0  0  0
    5.9636   -1.8460   -0.0276 H   0  0  0  0  0  0  0  0  0  0  0  0
    5.5710   -4.4618   -1.3368 H   0  0  0  0  0  0  0  0  0  0  0  0
    4.1193   -4.1031   -0.5413 H   0  0  0  0  0  0  0  0  0  0  0  0
    4.1611   -4.4174   -3.3342 H   0  0  0  0  0  0  0  0  0  0  0  0
    3.0543   -3.0988   -5.0696 H   0  0  0  0  0  0  0  0  0  0  0  0
    2.9470   -0.6051   -4.9061 H   0  0  0  0  0  0  0  0  0  0  0  0
    3.7265    0.4924   -2.7998 H   0  0  0  0  0  0  0  0  0  0  0  0
    4.5037   -0.8396   -0.9118 H   0  0  0  0  0  0  0  0  0  0  0  0
    6.5354   -0.1908    3.0708 H   0  0  0  0  0  0  0  0  0  0  0  0
    4.8832   -0.4121    2.5953 H   0  0  0  0  0  0  0  0  0  0  0  0
    6.1413   -0.2472    1.3671 H   0  0  0  0  0  0  0  0  0  0  0  0
  1  2  1  0
  1 32  1  0
  1 33  1  0
  1 34  1  0
  2  3  1  0
  3  8  2  0
  3  4  1  0
  4  5  2  0
  4 35  1  0
  5  6  1  0
  5 36  1  0
  6 17  1  0
  6  7  2  0
  7 15  1  0
  7  8  1  0
  8  9  1  0
  9 10  1  0
 10 29  1  0
 10 11  1  0
 10 37  1  6
 11 12  2  0
 11 13  1  0
 13 14  1  0
 13 38  1  0
 13 39  1  0
 15 14  1  1
 15 29  1  0
 15 16  1  0
 16 17  1  0
 16 18  1  0
 16 40  1  1
 17 41  1  0
 17 42  1  0
 18 19  1  0
 18 20  1  0
 19 43  1  0
 19 44  1  0
 19 45  1  0
 20 21  1  0
 20 46  1  0
 20 47  1  0
 21 22  1  0
 21 29  1  0
 21 48  1  6
 22 23  1  0
 22 49  1  0
 22 50  1  0
 23 28  1  0
 23 24  2  0
 24 25  1  0
 24 51  1  0
 25 26  2  0
 25 52  1  0
 26 27  1  0
 26 53  1  0
 27 28  2  0
 27 54  1  0
 28 55  1  0
 29 30  1  1
 30 31  1  0
 31 56  1  0
 31 57  1  0
 31 58  1  0
M  END
>  <i_m_ct_stereo_status>  (74) 
1

>  <s_m_source_file>  (74) 
/var/tmp/pbs.5076255.sched01/tmp9s019jnz/08u7fdliu.sdf

>  <i_m_source_file_index>  (74) 
32

>  <i_lp_mmshare_version>  (74) 
48012

>  <i_f3d_flags>  (74) 
0

>  <s_epik_input>  (74) 
W0NAXTEyM2M0YzVbY0hdW2NIXWMoT1tDSDNdKWM0T1tDQEBIXShDKD1PKVtDSDJdTzEpW0NAXTMoT1tDSDNdKVtDQEBIXShbQ0gyXU4oW0NIM10pW0NAQEhdMltDSDJdNSlbQ0gyXWM2W2NIXVtjSF1bY0hdW2NIXVtjSF02

>  <s_epik_cmdline>  (74) 
J2VwaWtfcHl0aG9uJywgJy1waHQnLCAnMi4wJywgJy1waCcsICc3LjAnLCAnLXRuJywgJzgnLCAnLW1hJywgJzIwMCcsICctaW1hZScsICc8aW5maWxlLm1hZT4nLCAnLW9tYWUnLCAnPG91dGZpbGUubWFlPic=

>  <r_lp_tautomer_probability>  (74) 
1

>  <r_epik_Ionization_Penalty>  (74) 
0.516193

>  <r_epik_Ionization_Penalty_Charging>  (74) 
0

>  <r_epik_Ionization_Penalty_Neutral>  (74) 
0.516193

>  <r_epik_State_Penalty>  (74) 
0.523837

>  <r_epik_Charging_Adjusted_Penalty>  (74) 
0.523837

>  <i_epik_Tot_Q>  (74) 
0

>  <i_epik_Tot_abs_Q>  (74) 
0

>  <s_lp_Force_Field>  (74) 
OPLS3e

>  <r_lp_Energy>  (74) 
60.7481

>  <b_lp_Chiralities_Consistent>  (74) 
1

>  <s_lp_Variant>  (74) 
22:0-2

>  <s_i_glide_gridfile>  (74) 
pfpi4k_grid

>  <i_i_glide_lignum>  (74) 
32

>  <i_i_glide_rotatable_bonds>  (74) 
4

>  <r_i_docking_score>  (74) 
-2.94346

>  <r_i_glide_ligand_efficiency>  (74) 
-0.0949502

>  <r_i_glide_ligand_efficiency_sa>  (74) 
-0.298275

>  <r_i_glide_ligand_efficiency_ln>  (74) 
-0.66384

>  <r_i_glide_gscore>  (74) 
-2.94346

>  <r_i_glide_lipo>  (74) 
-0.897562

>  <r_i_glide_hbond>  (74) 
-0.16

>  <r_i_glide_metal>  (74) 
-0

>  <r_i_glide_rewards>  (74) 
-0.535326

>  <r_i_glide_evdw>  (74) 
-25.5875

>  <r_i_glide_ecoul>  (74) 
-1.96085

>  <r_i_glide_erotb>  (74) 
0.222931

>  <r_i_glide_esite>  (74) 
0

>  <r_i_glide_emodel>  (74) 
-29.5051

>  <r_i_glide_energy>  (74) 
-27.5483

>  <r_i_glide_einternal>  (74) 
6.29388

>  <r_i_glide_intrahb_reward>  (74) 
-0

>  <i_i_glide_confnum>  (74) 
3

>  <i_i_glide_posenum>  (74) 
18

>  <r_i_glide_eff_state_penalty>  (74) 
0

>  <ligand_id>  (74) 
22

>  <original_smiles>  (74) 
COc1ccc2c3c1OC1C(=O)COC34C(C2)N(C)CC(Cc2ccccc2)C14OC

>  <smiles>  (74) 
[H]c1c([H])c([H])c(C([H])([H])C2([H])C([H])([H])N(C([H])([H])[H])C3([H])C([H])([H])c4c([H])c([H])c(OC([H])([H])[H])c5c4C34OC([H])([H])C(=O)C([H])(O5)C42OC([H])([H])[H])c([H])c1[H]

$$$$
22:1:2
     RDKit          3D

 58 63  0  0  1  0  0  0  0  0999 V2000
   -0.6580   -7.4739    2.1938 C   0  0  0  0  0  0  0  0  0  0  0  0
    0.2619   -6.4027    2.0296 O   0  0  0  0  0  0  0  0  0  0  0  0
    1.6078   -6.6953    2.1278 C   0  0  0  0  0  0  0  0  0  0  0  0
    2.1629   -7.9701    1.8040 C   0  0  0  0  0  0  0  0  0  0  0  0
    3.5681   -8.2159    1.8665 C   0  0  0  0  0  0  0  0  0  0  0  0
    4.3985   -7.1655    2.3100 C   0  0  0  0  0  0  0  0  0  0  0  0
    3.7959   -5.9761    2.6673 C   0  0  0  0  0  0  0  0  0  0  0  0
    2.4329   -5.6154    2.5750 C   0  0  0  0  0  0  0  0  0  0  0  0
    1.9698   -4.3616    2.8527 O   0  0  0  0  0  0  0  0  0  0  0  0
    2.8708   -3.4405    3.5038 C   0  0  1  0  0  0  0  0  0  0  0  0
    2.8507   -3.8036    4.9912 C   0  0  0  0  0  0  0  0  0  0  0  0
    2.1994   -3.1466    5.8146 O   0  0  0  0  0  0  0  0  0  0  0  0
    3.6782   -5.0272    5.4201 C   0  0  0  0  0  0  0  0  0  0  0  0
    4.8915   -5.1650    4.6407 O   0  0  0  0  0  0  0  0  0  0  0  0
    4.7810   -4.9865    3.2198 C   0  0  1  0  0  0  0  0  0  0  0  0
    6.1218   -5.4254    2.5625 C   0  0  1  0  0  0  0  0  0  0  0  0
    5.8930   -6.9618    2.4593 C   0  0  0  0  0  0  0  0  0  0  0  0
    6.3583   -4.8223    1.2283 N   0  0  0  0  0  0  0  0  0  0  0  0
    7.6921   -5.0971    0.7038 C   0  0  0  0  0  0  0  0  0  0  0  0
    6.0955   -3.3874    1.2081 C   0  0  0  0  0  0  0  0  0  0  0  0
    4.6307   -3.0554    1.5373 C   0  0  1  0  0  0  0  0  0  0  0  0
    3.6774   -3.5875    0.4389 C   0  0  0  0  0  0  0  0  0  0  0  0
    3.9729   -3.0509   -0.9388 C   0  0  0  0  0  0  0  0  0  0  0  0
    3.5522   -1.7492   -1.2875 C   0  0  0  0  0  0  0  0  0  0  0  0
    3.7754   -1.2484   -2.5891 C   0  0  0  0  0  0  0  0  0  0  0  0
    4.4332   -2.0580   -3.5433 C   0  0  0  0  0  0  0  0  0  0  0  0
    4.8731   -3.3560   -3.1928 C   0  0  0  0  0  0  0  0  0  0  0  0
    4.6476   -3.8529   -1.8925 C   0  0  0  0  0  0  0  0  0  0  0  0
    4.3499   -3.5148    2.9997 C   0  0  1  0  0  0  0  0  0  0  0  0
    5.2092   -2.7364    3.8588 O   0  0  0  0  0  0  0  0  0  0  0  0
    4.9779   -1.3402    4.0227 C   0  0  0  0  0  0  0  0  0  0  0  0
   -1.6708   -7.0722    2.1431 H   0  0  0  0  0  0  0  0  0  0  0  0
   -0.5624   -7.9235    3.1821 H   0  0  0  0  0  0  0  0  0  0  0  0
   -0.5707   -8.2407    1.4266 H   0  0  0  0  0  0  0  0  0  0  0  0
    1.5391   -8.7796    1.4710 H   0  0  0  0  0  0  0  0  0  0  0  0
    3.9859   -9.1670    1.5815 H   0  0  0  0  0  0  0  0  0  0  0  0
    2.4709   -2.4364    3.3793 H   0  0  0  0  0  0  0  0  0  0  0  0
    3.9135   -4.9807    6.4793 H   0  0  0  0  0  0  0  0  0  0  0  0
    3.0591   -5.9154    5.2783 H   0  0  0  0  0  0  0  0  0  0  0  0
    6.9635   -5.1887    3.2098 H   0  0  0  0  0  0  0  0  0  0  0  0
    6.2038   -7.4512    3.3831 H   0  0  0  0  0  0  0  0  0  0  0  0
    6.4323   -7.4266    1.6362 H   0  0  0  0  0  0  0  0  0  0  0  0
    7.7928   -4.6620   -0.2935 H   0  0  0  0  0  0  0  0  0  0  0  0
    7.8824   -6.1619    0.6107 H   0  0  0  0  0  0  0  0  0  0  0  0
    8.4699   -4.6555    1.3284 H   0  0  0  0  0  0  0  0  0  0  0  0
    6.7473   -2.8837    1.9275 H   0  0  0  0  0  0  0  0  0  0  0  0
    6.3600   -2.9617    0.2400 H   0  0  0  0  0  0  0  0  0  0  0  0
    4.5163   -1.9730    1.4968 H   0  0  0  0  0  0  0  0  0  0  0  0
    3.7374   -4.6745    0.3811 H   0  0  0  0  0  0  0  0  0  0  0  0
    2.6448   -3.3399    0.6823 H   0  0  0  0  0  0  0  0  0  0  0  0
    3.0169   -1.1430   -0.5727 H   0  0  0  0  0  0  0  0  0  0  0  0
    3.4315   -0.2678   -2.8514 H   0  0  0  0  0  0  0  0  0  0  0  0
    4.5966   -1.6703   -4.5301 H   0  0  0  0  0  0  0  0  0  0  0  0
    5.3672   -3.9769   -3.9181 H   0  0  0  0  0  0  0  0  0  0  0  0
    4.9611   -4.8523   -1.6339 H   0  0  0  0  0  0  0  0  0  0  0  0
    5.6318   -0.9774    4.8130 H   0  0  0  0  0  0  0  0  0  0  0  0
    3.9592   -1.1081    4.3263 H   0  0  0  0  0  0  0  0  0  0  0  0
    5.2226   -0.7701    3.1300 H   0  0  0  0  0  0  0  0  0  0  0  0
  1  2  1  0
  1 32  1  0
  1 33  1  0
  1 34  1  0
  2  3  1  0
  3  8  2  0
  3  4  1  0
  4  5  2  0
  4 35  1  0
  5  6  1  0
  5 36  1  0
  6 17  1  0
  6  7  2  0
  7 15  1  0
  7  8  1  0
  8  9  1  0
  9 10  1  0
 10 29  1  0
 10 11  1  0
 10 37  1  1
 11 12  2  0
 11 13  1  0
 13 14  1  0
 13 38  1  0
 13 39  1  0
 15 14  1  1
 15 29  1  0
 15 16  1  0
 16 17  1  0
 16 18  1  0
 16 40  1  1
 17 41  1  0
 17 42  1  0
 18 19  1  0
 18 20  1  0
 19 43  1  0
 19 44  1  0
 19 45  1  0
 20 21  1  0
 20 46  1  0
 20 47  1  0
 21 22  1  0
 21 29  1  0
 21 48  1  1
 22 23  1  0
 22 49  1  0
 22 50  1  0
 23 28  1  0
 23 24  2  0
 24 25  1  0
 24 51  1  0
 25 26  2  0
 25 52  1  0
 26 27  1  0
 26 53  1  0
 27 28  2  0
 27 54  1  0
 28 55  1  0
 29 30  1  1
 30 31  1  0
 31 56  1  0
 31 57  1  0
 31 58  1  0
M  END
>  <i_m_ct_stereo_status>  (75) 
1

>  <s_m_source_file>  (75) 
/var/tmp/pbs.5076255.sched01/tmp9s019jnz/08u7fdliu.sdf

>  <i_m_source_file_index>  (75) 
32

>  <i_lp_mmshare_version>  (75) 
48012

>  <i_f3d_flags>  (75) 
0

>  <s_epik_input>  (75) 
W0NAXTEyM2M0YzVbY0hdW2NIXWMoT1tDSDNdKWM0T1tDQEBIXShDKD1PKVtDSDJdTzEpW0NAXTMoT1tDSDNdKVtDQEBIXShbQ0gyXU4oW0NIM10pW0NAQEhdMltDSDJdNSlbQ0gyXWM2W2NIXVtjSF1bY0hdW2NIXVtjSF02

>  <s_epik_cmdline>  (75) 
J2VwaWtfcHl0aG9uJywgJy1waHQnLCAnMi4wJywgJy1waCcsICc3LjAnLCAnLXRuJywgJzgnLCAnLW1hJywgJzIwMCcsICctaW1hZScsICc8aW5maWxlLm1hZT4nLCAnLW9tYWUnLCAnPG91dGZpbGUubWFlPic=

>  <r_lp_tautomer_probability>  (75) 
1

>  <r_epik_Ionization_Penalty>  (75) 
0.516193

>  <r_epik_Ionization_Penalty_Charging>  (75) 
0

>  <r_epik_Ionization_Penalty_Neutral>  (75) 
0.516193

>  <r_epik_State_Penalty>  (75) 
0.523837

>  <r_epik_Charging_Adjusted_Penalty>  (75) 
0.523837

>  <i_epik_Tot_Q>  (75) 
0

>  <i_epik_Tot_abs_Q>  (75) 
0

>  <s_lp_Force_Field>  (75) 
OPLS3e

>  <r_lp_Energy>  (75) 
60.7481

>  <b_lp_Chiralities_Consistent>  (75) 
1

>  <s_lp_Variant>  (75) 
22:0-2

>  <s_i_glide_gridfile>  (75) 
pfpi4k_grid

>  <i_i_glide_lignum>  (75) 
32

>  <i_i_glide_rotatable_bonds>  (75) 
4

>  <r_i_docking_score>  (75) 
-2.73643

>  <r_i_glide_ligand_efficiency>  (75) 
-0.0882721

>  <r_i_glide_ligand_efficiency_sa>  (75) 
-0.277296

>  <r_i_glide_ligand_efficiency_ln>  (75) 
-0.61715

>  <r_i_glide_gscore>  (75) 
-2.73643

>  <r_i_glide_lipo>  (75) 
-0.708362

>  <r_i_glide_hbond>  (75) 
-0.1889

>  <r_i_glide_metal>  (75) 
-0

>  <r_i_glide_rewards>  (75) 
-0.535326

>  <r_i_glide_evdw>  (75) 
-26.8592

>  <r_i_glide_ecoul>  (75) 
-1.22546

>  <r_i_glide_erotb>  (75) 
0.222931

>  <r_i_glide_esite>  (75) 
0

>  <r_i_glide_emodel>  (75) 
-32.3978

>  <r_i_glide_energy>  (75) 
-28.0846

>  <r_i_glide_einternal>  (75) 
1.41553

>  <r_i_glide_intrahb_reward>  (75) 
-0

>  <i_i_glide_confnum>  (75) 
2

>  <i_i_glide_posenum>  (75) 
10

>  <r_i_glide_eff_state_penalty>  (75) 
0

>  <ligand_id>  (75) 
22

>  <original_smiles>  (75) 
COc1ccc2c3c1OC1C(=O)COC34C(C2)N(C)CC(Cc2ccccc2)C14OC

>  <smiles>  (75) 
[H]c1c([H])c([H])c(C([H])([H])C2([H])C([H])([H])N(C([H])([H])[H])C3([H])C([H])([H])c4c([H])c([H])c(OC([H])([H])[H])c5c4C34OC([H])([H])C(=O)C([H])(O5)C42OC([H])([H])[H])c([H])c1[H]

$$$$
23:0:0
     RDKit          3D

 32 34  0  0  1  0  0  0  0  0999 V2000
    6.6304   -8.4257    3.9144 C   0  0  0  0  0  0  0  0  0  0  0  0
    6.2106   -8.8748    2.5028 C   0  0  0  0  0  0  0  0  0  0  0  0
    6.3698  -10.3919    2.3127 C   0  0  0  0  0  0  0  0  0  0  0  0
    4.7714   -8.4417    2.2154 C   0  0  0  0  0  0  0  0  0  0  0  0
    4.4965   -7.2315    1.6912 C   0  0  0  0  0  0  0  0  0  0  0  0
    3.1571   -6.8707    1.3402 N   0  0  0  0  0  0  0  0  0  0  0  0
    2.0315   -7.4604    1.9251 C   0  0  0  0  0  0  0  0  0  0  0  0
    0.9352   -6.8340    1.3637 C   0  0  0  0  0  0  0  0  0  0  0  0
    1.3408   -5.8658    0.4553 N   0  0  0  0  0  0  0  0  0  0  0  0
    2.6727   -5.9567    0.4831 C   0  0  0  0  0  0  0  0  0  0  0  0
    5.6391   -6.3365    1.3560 C   0  0  0  0  0  0  0  0  0  0  0  0
    5.5184   -4.9469    1.1624 C   0  0  0  0  0  0  0  0  0  0  0  0
    6.6364   -4.1721    0.7918 C   0  0  0  0  0  0  0  0  0  0  0  0
    6.4580   -2.7578    0.5120 C   0  0  0  0  0  0  0  0  0  0  0  0
    6.2996   -1.6272    0.2852 N   0  0  0  0  0  0  0  0  0  0  0  0
    7.9046   -4.7754    0.6727 C   0  0  0  0  0  0  0  0  0  0  0  0
    8.0482   -6.1479    0.9341 C   0  0  0  0  0  0  0  0  0  0  0  0
    6.9294   -6.9243    1.2923 C   0  0  0  0  0  0  0  0  0  0  0  0
    7.1199   -8.2618    1.5652 O   0  0  0  0  0  0  0  0  0  0  0  0
    6.0179   -8.8958    4.6824 H   0  0  0  0  0  0  0  0  0  0  0  0
    6.5301   -7.3457    4.0177 H   0  0  0  0  0  0  0  0  0  0  0  0
    7.6771   -8.6721    4.0985 H   0  0  0  0  0  0  0  0  0  0  0  0
    5.7420  -10.9526    3.0033 H   0  0  0  0  0  0  0  0  0  0  0  0
    7.4055  -10.6919    2.4848 H   0  0  0  0  0  0  0  0  0  0  0  0
    6.1057  -10.6943    1.2966 H   0  0  0  0  0  0  0  0  0  0  0  0
    4.0029   -9.1733    2.4450 H   0  0  0  0  0  0  0  0  0  0  0  0
    2.0873   -8.2418    2.6708 H   0  0  0  0  0  0  0  0  0  0  0  0
   -0.1025   -7.0130    1.5569 H   0  0  0  0  0  0  0  0  0  0  0  0
    3.2893   -5.3736   -0.2074 H   0  0  0  0  0  0  0  0  0  0  0  0
    4.5647   -4.4599    1.2934 H   0  0  0  0  0  0  0  0  0  0  0  0
    8.7567   -4.1653    0.4146 H   0  0  0  0  0  0  0  0  0  0  0  0
    9.0218   -6.6149    0.8835 H   0  0  0  0  0  0  0  0  0  0  0  0
  1  2  1  0
  1 20  1  0
  1 21  1  0
  1 22  1  0
  2 19  1  0
  2  3  1  0
  2  4  1  0
  3 23  1  0
  3 24  1  0
  3 25  1  0
  4  5  2  0
  4 26  1  0
  5  6  1  0
  5 11  1  0
  6 10  1  0
  6  7  1  0
  7  8  2  0
  7 27  1  0
  8  9  1  0
  8 28  1  0
  9 10  2  0
 10 29  1  0
 11 18  2  0
 11 12  1  0
 12 13  2  0
 12 30  1  0
 13 14  1  0
 13 16  1  0
 14 15  3  0
 16 17  2  0
 16 31  1  0
 17 18  1  0
 17 32  1  0
 18 19  1  0
M  END
>  <i_m_ct_stereo_status>  (76) 
1

>  <s_m_source_file>  (76) 
/var/tmp/pbs.5076255.sched01/tmp9s019jnz/08u7fdliu.sdf

>  <i_m_source_file_index>  (76) 
33

>  <i_lp_mmshare_version>  (76) 
48012

>  <i_f3d_flags>  (76) 
0

>  <s_epik_input>  (76) 
TiNDYyhbY0hdMSlbY0hdW2NIXWMoYzEyKU9DKFtDSDNdKShbQ0gzXSlbQ0hdPUMybjNbY0hdW2NIXW5bY0hdMw==

>  <s_epik_cmdline>  (76) 
J2VwaWtfcHl0aG9uJywgJy1waHQnLCAnMi4wJywgJy1waCcsICc3LjAnLCAnLXRuJywgJzgnLCAnLW1hJywgJzIwMCcsICctaW1hZScsICc8aW5maWxlLm1hZT4nLCAnLW9tYWUnLCAnPG91dGZpbGUubWFlPic=

>  <r_epik_Ionization_Penalty>  (76) 
0.13556

>  <r_epik_Ionization_Penalty_Charging>  (76) 
0.13556

>  <r_epik_Ionization_Penalty_Neutral>  (76) 
0

>  <r_epik_State_Penalty>  (76) 
0.124913

>  <r_epik_Charging_Adjusted_Penalty>  (76) 
0.260473

>  <i_epik_Tot_Q>  (76) 
0

>  <i_epik_Tot_abs_Q>  (76) 
0

>  <s_lp_Force_Field>  (76) 
OPLS3e

>  <r_lp_Energy>  (76) 
29.7777

>  <b_lp_Chiralities_Consistent>  (76) 
1

>  <s_lp_Variant>  (76) 
23:0-1

>  <s_i_glide_gridfile>  (76) 
pfpi4k_grid

>  <i_i_glide_lignum>  (76) 
33

>  <i_i_glide_rotatable_bonds>  (76) 
2

>  <r_i_docking_score>  (76) 
-4.0836

>  <r_i_glide_ligand_efficiency>  (76) 
-0.214926

>  <r_i_glide_ligand_efficiency_sa>  (76) 
-0.573509

>  <r_i_glide_ligand_efficiency_ln>  (76) 
-1.03528

>  <r_i_glide_gscore>  (76) 
-4.0836

>  <r_i_glide_lipo>  (76) 
-0.580465

>  <r_i_glide_hbond>  (76) 
-0.16

>  <r_i_glide_metal>  (76) 
-0

>  <r_i_glide_rewards>  (76) 
-1.89707

>  <r_i_glide_evdw>  (76) 
-20.8883

>  <r_i_glide_ecoul>  (76) 
-4.32984

>  <r_i_glide_erotb>  (76) 
0.277553

>  <r_i_glide_esite>  (76) 
-0.0297221

>  <r_i_glide_emodel>  (76) 
-31.6372

>  <r_i_glide_energy>  (76) 
-25.2181

>  <r_i_glide_einternal>  (76) 
0.57753

>  <r_i_glide_intrahb_reward>  (76) 
-0

>  <i_i_glide_confnum>  (76) 
2

>  <i_i_glide_posenum>  (76) 
27

>  <r_i_glide_eff_state_penalty>  (76) 
0

>  <ligand_id>  (76) 
23

>  <original_smiles>  (76) 
CC1(C)C=C(n2ccnc2)c2cc(C#N)ccc2O1

>  <smiles>  (76) 
[H]C1=C(n2c([H])nc([H])c2[H])c2c([H])c(C#N)c([H])c([H])c2OC1(C([H])([H])[H])C([H])([H])[H]

$$$$
23:0:1
     RDKit          3D

 32 34  0  0  1  0  0  0  0  0999 V2000
    6.3206   -3.1208    0.1190 C   0  0  0  0  0  0  0  0  0  0  0  0
    5.0234   -3.1082   -0.7270 C   0  0  0  0  0  0  0  0  0  0  0  0
    5.3326   -3.2886   -2.2235 C   0  0  0  0  0  0  0  0  0  0  0  0
    4.0573   -4.1849   -0.2348 C   0  0  0  0  0  0  0  0  0  0  0  0
    3.1785   -3.9289    0.7609 C   0  0  0  0  0  0  0  0  0  0  0  0
    2.3331   -4.9700    1.2459 N   0  0  0  0  0  0  0  0  0  0  0  0
    1.6954   -5.8541    0.3647 C   0  0  0  0  0  0  0  0  0  0  0  0
    0.9005   -6.6678    1.1389 C   0  0  0  0  0  0  0  0  0  0  0  0
    1.0148   -6.2978    2.4843 N   0  0  0  0  0  0  0  0  0  0  0  0
    1.9303   -5.3314    2.4701 C   0  0  0  0  0  0  0  0  0  0  0  0
    3.1342   -2.5500    1.3174 C   0  0  0  0  0  0  0  0  0  0  0  0
    2.4774   -2.2089    2.5275 C   0  0  0  0  0  0  0  0  0  0  0  0
    2.4902   -0.8781    2.9977 C   0  0  0  0  0  0  0  0  0  0  0  0
    1.8331   -0.5832    4.2554 C   0  0  0  0  0  0  0  0  0  0  0  0
    1.3018   -0.3664    5.2620 N   0  0  0  0  0  0  0  0  0  0  0  0
    3.1204    0.1412    2.2464 C   0  0  0  0  0  0  0  0  0  0  0  0
    3.7677   -0.1900    1.0388 C   0  0  0  0  0  0  0  0  0  0  0  0
    3.7954   -1.5246    0.5860 C   0  0  0  0  0  0  0  0  0  0  0  0
    4.4680   -1.7970   -0.5859 O   0  0  0  0  0  0  0  0  0  0  0  0
    6.8604   -4.0644    0.0354 H   0  0  0  0  0  0  0  0  0  0  0  0
    6.0985   -2.9633    1.1779 H   0  0  0  0  0  0  0  0  0  0  0  0
    6.9936   -2.3149   -0.1778 H   0  0  0  0  0  0  0  0  0  0  0  0
    5.8141   -4.2475   -2.4162 H   0  0  0  0  0  0  0  0  0  0  0  0
    5.9941   -2.5014   -2.5866 H   0  0  0  0  0  0  0  0  0  0  0  0
    4.4133   -3.2495   -2.8103 H   0  0  0  0  0  0  0  0  0  0  0  0
    4.1428   -5.1645   -0.6937 H   0  0  0  0  0  0  0  0  0  0  0  0
    1.8405   -5.8245   -0.7096 H   0  0  0  0  0  0  0  0  0  0  0  0
    0.2537   -7.4871    0.8544 H   0  0  0  0  0  0  0  0  0  0  0  0
    2.2831   -4.8627    3.3770 H   0  0  0  0  0  0  0  0  0  0  0  0
    1.9668   -2.9353    3.1229 H   0  0  0  0  0  0  0  0  0  0  0  0
    3.1066    1.1613    2.5969 H   0  0  0  0  0  0  0  0  0  0  0  0
    4.2441    0.5899    0.4600 H   0  0  0  0  0  0  0  0  0  0  0  0
  1  2  1  0
  1 20  1  0
  1 21  1  0
  1 22  1  0
  2 19  1  0
  2  3  1  0
  2  4  1  0
  3 23  1  0
  3 24  1  0
  3 25  1  0
  4  5  2  0
  4 26  1  0
  5  6  1  0
  5 11  1  0
  6 10  1  0
  6  7  1  0
  7  8  2  0
  7 27  1  0
  8  9  1  0
  8 28  1  0
  9 10  2  0
 10 29  1  0
 11 18  2  0
 11 12  1  0
 12 13  2  0
 12 30  1  0
 13 14  1  0
 13 16  1  0
 14 15  3  0
 16 17  2  0
 16 31  1  0
 17 18  1  0
 17 32  1  0
 18 19  1  0
M  END
>  <i_m_ct_stereo_status>  (77) 
1

>  <s_m_source_file>  (77) 
/var/tmp/pbs.5076255.sched01/tmp9s019jnz/08u7fdliu.sdf

>  <i_m_source_file_index>  (77) 
33

>  <i_lp_mmshare_version>  (77) 
48012

>  <i_f3d_flags>  (77) 
0

>  <s_epik_input>  (77) 
TiNDYyhbY0hdMSlbY0hdW2NIXWMoYzEyKU9DKFtDSDNdKShbQ0gzXSlbQ0hdPUMybjNbY0hdW2NIXW5bY0hdMw==

>  <s_epik_cmdline>  (77) 
J2VwaWtfcHl0aG9uJywgJy1waHQnLCAnMi4wJywgJy1waCcsICc3LjAnLCAnLXRuJywgJzgnLCAnLW1hJywgJzIwMCcsICctaW1hZScsICc8aW5maWxlLm1hZT4nLCAnLW9tYWUnLCAnPG91dGZpbGUubWFlPic=

>  <r_epik_Ionization_Penalty>  (77) 
0.13556

>  <r_epik_Ionization_Penalty_Charging>  (77) 
0.13556

>  <r_epik_Ionization_Penalty_Neutral>  (77) 
0

>  <r_epik_State_Penalty>  (77) 
0.124913

>  <r_epik_Charging_Adjusted_Penalty>  (77) 
0.260473

>  <i_epik_Tot_Q>  (77) 
0

>  <i_epik_Tot_abs_Q>  (77) 
0

>  <s_lp_Force_Field>  (77) 
OPLS3e

>  <r_lp_Energy>  (77) 
29.7777

>  <b_lp_Chiralities_Consistent>  (77) 
1

>  <s_lp_Variant>  (77) 
23:0-1

>  <s_i_glide_gridfile>  (77) 
pfpi4k_grid

>  <i_i_glide_lignum>  (77) 
33

>  <i_i_glide_rotatable_bonds>  (77) 
2

>  <r_i_docking_score>  (77) 
-3.30235

>  <r_i_glide_ligand_efficiency>  (77) 
-0.173808

>  <r_i_glide_ligand_efficiency_sa>  (77) 
-0.463789

>  <r_i_glide_ligand_efficiency_ln>  (77) 
-0.837217

>  <r_i_glide_gscore>  (77) 
-3.30235

>  <r_i_glide_lipo>  (77) 
-0.341942

>  <r_i_glide_hbond>  (77) 
0

>  <r_i_glide_metal>  (77) 
-0

>  <r_i_glide_rewards>  (77) 
-1.6958

>  <r_i_glide_evdw>  (77) 
-20.8802

>  <r_i_glide_ecoul>  (77) 
-2.93696

>  <r_i_glide_erotb>  (77) 
0.277553

>  <r_i_glide_esite>  (77) 
-0.0576095

>  <r_i_glide_emodel>  (77) 
-27.5978

>  <r_i_glide_energy>  (77) 
-23.8172

>  <r_i_glide_einternal>  (77) 
3.01071

>  <r_i_glide_intrahb_reward>  (77) 
-0

>  <i_i_glide_confnum>  (77) 
2

>  <i_i_glide_posenum>  (77) 
4

>  <r_i_glide_eff_state_penalty>  (77) 
0

>  <ligand_id>  (77) 
23

>  <original_smiles>  (77) 
CC1(C)C=C(n2ccnc2)c2cc(C#N)ccc2O1

>  <smiles>  (77) 
[H]C1=C(n2c([H])nc([H])c2[H])c2c([H])c(C#N)c([H])c([H])c2OC1(C([H])([H])[H])C([H])([H])[H]

$$$$
23:0:2
     RDKit          3D

 32 34  0  0  1  0  0  0  0  0999 V2000
    3.1537   -0.1534    3.1408 C   0  0  0  0  0  0  0  0  0  0  0  0
    4.1308   -1.3340    3.3316 C   0  0  0  0  0  0  0  0  0  0  0  0
    4.8886   -1.2359    4.6670 C   0  0  0  0  0  0  0  0  0  0  0  0
    3.3714   -2.6554    3.2455 C   0  0  0  0  0  0  0  0  0  0  0  0
    3.1917   -3.2785    2.0607 C   0  0  0  0  0  0  0  0  0  0  0  0
    2.5826   -4.5648    1.9832 N   0  0  0  0  0  0  0  0  0  0  0  0
    1.6822   -5.0340    2.9424 C   0  0  0  0  0  0  0  0  0  0  0  0
    1.2635   -6.2729    2.4995 C   0  0  0  0  0  0  0  0  0  0  0  0
    1.8793   -6.5810    1.2849 N   0  0  0  0  0  0  0  0  0  0  0  0
    2.6701   -5.5389    1.0661 C   0  0  0  0  0  0  0  0  0  0  0  0
    3.7807   -2.6498    0.8542 C   0  0  0  0  0  0  0  0  0  0  0  0
    3.3794   -2.9597   -0.4669 C   0  0  0  0  0  0  0  0  0  0  0  0
    4.0054   -2.3535   -1.5722 C   0  0  0  0  0  0  0  0  0  0  0  0
    3.6096   -2.7352   -2.9100 C   0  0  0  0  0  0  0  0  0  0  0  0
    3.2935   -3.0489   -3.9778 N   0  0  0  0  0  0  0  0  0  0  0  0
    5.0172   -1.3975   -1.3692 C   0  0  0  0  0  0  0  0  0  0  0  0
    5.3935   -1.0424   -0.0614 C   0  0  0  0  0  0  0  0  0  0  0  0
    4.7653   -1.6501    1.0431 C   0  0  0  0  0  0  0  0  0  0  0  0
    5.1302   -1.2443    2.3055 O   0  0  0  0  0  0  0  0  0  0  0  0
    2.3932   -0.1289    3.9250 H   0  0  0  0  0  0  0  0  0  0  0  0
    2.6385   -0.2320    2.1784 H   0  0  0  0  0  0  0  0  0  0  0  0
    3.6899    0.7979    3.1444 H   0  0  0  0  0  0  0  0  0  0  0  0
    4.2123   -1.2619    5.5233 H   0  0  0  0  0  0  0  0  0  0  0  0
    5.4582   -0.3088    4.7213 H   0  0  0  0  0  0  0  0  0  0  0  0
    5.5981   -2.0594    4.7757 H   0  0  0  0  0  0  0  0  0  0  0  0
    3.0176   -3.0828    4.1713 H   0  0  0  0  0  0  0  0  0  0  0  0
    1.3945   -4.4796    3.8229 H   0  0  0  0  0  0  0  0  0  0  0  0
    0.5737   -6.9679    2.9467 H   0  0  0  0  0  0  0  0  0  0  0  0
    3.3148   -5.4931    0.1999 H   0  0  0  0  0  0  0  0  0  0  0  0
    2.5774   -3.6585   -0.6454 H   0  0  0  0  0  0  0  0  0  0  0  0
    5.4650   -0.9148   -2.2187 H   0  0  0  0  0  0  0  0  0  0  0  0
    6.1377   -0.2730    0.0979 H   0  0  0  0  0  0  0  0  0  0  0  0
  1  2  1  0
  1 20  1  0
  1 21  1  0
  1 22  1  0
  2 19  1  0
  2  3  1  0
  2  4  1  0
  3 23  1  0
  3 24  1  0
  3 25  1  0
  4  5  2  0
  4 26  1  0
  5  6  1  0
  5 11  1  0
  6 10  1  0
  6  7  1  0
  7  8  2  0
  7 27  1  0
  8  9  1  0
  8 28  1  0
  9 10  2  0
 10 29  1  0
 11 18  2  0
 11 12  1  0
 12 13  2  0
 12 30  1  0
 13 14  1  0
 13 16  1  0
 14 15  3  0
 16 17  2  0
 16 31  1  0
 17 18  1  0
 17 32  1  0
 18 19  1  0
M  END
>  <i_m_ct_stereo_status>  (78) 
1

>  <s_m_source_file>  (78) 
/var/tmp/pbs.5076255.sched01/tmp9s019jnz/08u7fdliu.sdf

>  <i_m_source_file_index>  (78) 
33

>  <i_lp_mmshare_version>  (78) 
48012

>  <i_f3d_flags>  (78) 
0

>  <s_epik_input>  (78) 
TiNDYyhbY0hdMSlbY0hdW2NIXWMoYzEyKU9DKFtDSDNdKShbQ0gzXSlbQ0hdPUMybjNbY0hdW2NIXW5bY0hdMw==

>  <s_epik_cmdline>  (78) 
J2VwaWtfcHl0aG9uJywgJy1waHQnLCAnMi4wJywgJy1waCcsICc3LjAnLCAnLXRuJywgJzgnLCAnLW1hJywgJzIwMCcsICctaW1hZScsICc8aW5maWxlLm1hZT4nLCAnLW9tYWUnLCAnPG91dGZpbGUubWFlPic=

>  <r_epik_Ionization_Penalty>  (78) 
0.13556

>  <r_epik_Ionization_Penalty_Charging>  (78) 
0.13556

>  <r_epik_Ionization_Penalty_Neutral>  (78) 
0

>  <r_epik_State_Penalty>  (78) 
0.124913

>  <r_epik_Charging_Adjusted_Penalty>  (78) 
0.260473

>  <i_epik_Tot_Q>  (78) 
0

>  <i_epik_Tot_abs_Q>  (78) 
0

>  <s_lp_Force_Field>  (78) 
OPLS3e

>  <r_lp_Energy>  (78) 
29.7777

>  <b_lp_Chiralities_Consistent>  (78) 
1

>  <s_lp_Variant>  (78) 
23:0-1

>  <s_i_glide_gridfile>  (78) 
pfpi4k_grid

>  <i_i_glide_lignum>  (78) 
33

>  <i_i_glide_rotatable_bonds>  (78) 
2

>  <r_i_docking_score>  (78) 
-3.07303

>  <r_i_glide_ligand_efficiency>  (78) 
-0.161738

>  <r_i_glide_ligand_efficiency_sa>  (78) 
-0.431583

>  <r_i_glide_ligand_efficiency_ln>  (78) 
-0.779079

>  <r_i_glide_gscore>  (78) 
-3.07303

>  <r_i_glide_lipo>  (78) 
-0.0740591

>  <r_i_glide_hbond>  (78) 
-0.0111378

>  <r_i_glide_metal>  (78) 
-0

>  <r_i_glide_rewards>  (78) 
-1.73029

>  <r_i_glide_evdw>  (78) 
-24.1157

>  <r_i_glide_ecoul>  (78) 
-1.96194

>  <r_i_glide_erotb>  (78) 
0.277553

>  <r_i_glide_esite>  (78) 
-0.0350203

>  <r_i_glide_emodel>  (78) 
-30.8548

>  <r_i_glide_energy>  (78) 
-26.0777

>  <r_i_glide_einternal>  (78) 
0.44633

>  <r_i_glide_intrahb_reward>  (78) 
-0

>  <i_i_glide_confnum>  (78) 
3

>  <i_i_glide_posenum>  (78) 
3

>  <r_i_glide_eff_state_penalty>  (78) 
0

>  <ligand_id>  (78) 
23

>  <original_smiles>  (78) 
CC1(C)C=C(n2ccnc2)c2cc(C#N)ccc2O1

>  <smiles>  (78) 
[H]C1=C(n2c([H])nc([H])c2[H])c2c([H])c(C#N)c([H])c([H])c2OC1(C([H])([H])[H])C([H])([H])[H]

$$$$
23:1:0
     RDKit          3D

 33 35  0  0  1  0  0  0  0  0999 V2000
  -11.1831   -7.9677   -8.3491 C   0  0  0  0  0  0  0  0  0  0  0  0
  -10.1089   -7.0439   -8.9773 C   0  0  0  0  0  0  0  0  0  0  0  0
  -10.7437   -6.1103  -10.0213 C   0  0  0  0  0  0  0  0  0  0  0  0
   -9.3606   -6.2462   -7.9132 C   0  0  0  0  0  0  0  0  0  0  0  0
   -8.2537   -6.7420   -7.3092 C   0  0  0  0  0  0  0  0  0  0  0  0
   -7.6320   -5.9898   -6.2641 N   0  0  0  0  0  0  0  0  0  0  0  0
   -7.0436   -6.4334   -5.0992 C   0  0  0  0  0  0  0  0  0  0  0  0
   -6.4746   -5.3395   -4.5047 C   0  0  0  0  0  0  0  0  0  0  0  0
   -6.8250   -4.2576   -5.2626 N   0  0  0  0  0  0  0  0  0  0  0  0
   -7.5516   -4.6470   -6.3194 C   0  0  0  0  0  0  0  0  0  0  0  0
   -7.7727   -8.0892   -7.7543 C   0  0  0  0  0  0  0  0  0  0  0  0
   -6.8435   -8.9017   -7.0480 C   0  0  0  0  0  0  0  0  0  0  0  0
   -6.4467  -10.1611   -7.5282 C   0  0  0  0  0  0  0  0  0  0  0  0
   -5.5018  -10.9284   -6.7392 C   0  0  0  0  0  0  0  0  0  0  0  0
   -4.7495  -11.5274   -6.1061 N   0  0  0  0  0  0  0  0  0  0  0  0
   -6.9375  -10.6344   -8.7637 C   0  0  0  0  0  0  0  0  0  0  0  0
   -7.8540   -9.8389   -9.4848 C   0  0  0  0  0  0  0  0  0  0  0  0
   -8.2951   -8.5984   -8.9798 C   0  0  0  0  0  0  0  0  0  0  0  0
   -9.2243   -7.8934   -9.7035 O   0  0  0  0  0  0  0  0  0  0  0  0
  -11.9579   -7.4094   -7.8227 H   0  0  0  0  0  0  0  0  0  0  0  0
  -10.7412   -8.6618   -7.6321 H   0  0  0  0  0  0  0  0  0  0  0  0
  -11.6761   -8.5851   -9.1023 H   0  0  0  0  0  0  0  0  0  0  0  0
  -11.4902   -5.4604   -9.5638 H   0  0  0  0  0  0  0  0  0  0  0  0
  -11.2370   -6.6688  -10.8171 H   0  0  0  0  0  0  0  0  0  0  0  0
   -9.9817   -5.4854  -10.4858 H   0  0  0  0  0  0  0  0  0  0  0  0
   -9.8120   -5.3006   -7.6407 H   0  0  0  0  0  0  0  0  0  0  0  0
   -7.0552   -7.4429   -4.7079 H   0  0  0  0  0  0  0  0  0  0  0  0
   -5.8960   -5.2880   -3.5934 H   0  0  0  0  0  0  0  0  0  0  0  0
   -7.9526   -3.9929   -7.0743 H   0  0  0  0  0  0  0  0  0  0  0  0
   -6.3734   -8.6269   -6.1192 H   0  0  0  0  0  0  0  0  0  0  0  0
   -6.5914  -11.5753   -9.1427 H   0  0  0  0  0  0  0  0  0  0  0  0
   -8.2201  -10.1949  -10.4411 H   0  0  0  0  0  0  0  0  0  0  0  0
   -6.5928   -3.3009   -5.0216 H   0  0  0  0  0  0  0  0  0  0  0  0
  1  2  1  0
  1 20  1  0
  1 21  1  0
  1 22  1  0
  2 19  1  0
  2  3  1  0
  2  4  1  0
  3 23  1  0
  3 24  1  0
  3 25  1  0
  4  5  2  0
  4 26  1  0
  5  6  1  0
  5 11  1  0
  6 10  1  0
  6  7  1  0
  7  8  2  0
  7 27  1  0
  8  9  1  0
  8 28  1  0
  9 10  2  0
  9 33  1  0
 10 29  1  0
 11 18  2  0
 11 12  1  0
 12 13  2  0
 12 30  1  0
 13 14  1  0
 13 16  1  0
 14 15  3  0
 16 17  2  0
 16 31  1  0
 17 18  1  0
 17 32  1  0
 18 19  1  0
M  CHG  1   9   1
M  END
>  <i_m_ct_stereo_status>  (79) 
1

>  <s_m_source_file>  (79) 
/var/tmp/pbs.5076255.sched01/tmp9s019jnz/08u7fdliu.sdf

>  <i_m_source_file_index>  (79) 
34

>  <i_lp_mmshare_version>  (79) 
48012

>  <i_f3d_flags>  (79) 
0

>  <s_epik_input>  (79) 
TiNDYyhbY0hdMSlbY0hdW2NIXWMoYzEyKU9DKFtDSDNdKShbQ0gzXSlbQ0hdPUMybjNbY0hdW2NIXW5bY0hdMw==

>  <s_epik_cmdline>  (79) 
J2VwaWtfcHl0aG9uJywgJy1waHQnLCAnMi4wJywgJy1waCcsICc3LjAnLCAnLXRuJywgJzgnLCAnLW1hJywgJzIwMCcsICctaW1hZScsICc8aW5maWxlLm1hZT4nLCAnLW9tYWUnLCAnPG91dGZpbGUubWFlPic=

>  <r_epik_Ionization_Penalty>  (79) 
0.940351

>  <r_epik_Ionization_Penalty_Charging>  (79) 
0

>  <r_epik_Ionization_Penalty_Neutral>  (79) 
0.940351

>  <r_epik_State_Penalty>  (79) 
0.983689

>  <r_epik_Charging_Adjusted_Penalty>  (79) 
0.983689

>  <i_epik_Tot_Q>  (79) 
1

>  <i_epik_Tot_abs_Q>  (79) 
1

>  <s_lp_Force_Field>  (79) 
OPLS3e

>  <r_lp_Energy>  (79) 
36.4439

>  <b_lp_Chiralities_Consistent>  (79) 
1

>  <s_lp_Variant>  (79) 
23:0-2

>  <s_i_glide_gridfile>  (79) 
pfpi4k_grid

>  <i_i_glide_lignum>  (79) 
34

>  <i_i_glide_rotatable_bonds>  (79) 
2

>  <r_i_docking_score>  (79) 
-5.10633

>  <r_i_glide_ligand_efficiency>  (79) 
-0.268754

>  <r_i_glide_ligand_efficiency_sa>  (79) 
-0.717145

>  <r_i_glide_ligand_efficiency_ln>  (79) 
-1.29457

>  <r_i_glide_gscore>  (79) 
-5.10633

>  <r_i_glide_lipo>  (79) 
-1.57199

>  <r_i_glide_hbond>  (79) 
0

>  <r_i_glide_metal>  (79) 
-0

>  <r_i_glide_rewards>  (79) 
-2.74154

>  <r_i_glide_evdw>  (79) 
-25.3234

>  <r_i_glide_ecoul>  (79) 
1.31808

>  <r_i_glide_erotb>  (79) 
0.275653

>  <r_i_glide_esite>  (79) 
0

>  <r_i_glide_emodel>  (79) 
-31.7749

>  <r_i_glide_energy>  (79) 
-24.0053

>  <r_i_glide_einternal>  (79) 
3.3674

>  <r_i_glide_intrahb_reward>  (79) 
-0

>  <i_i_glide_confnum>  (79) 
2

>  <i_i_glide_posenum>  (79) 
16

>  <r_i_glide_eff_state_penalty>  (79) 
0

>  <ligand_id>  (79) 
23

>  <original_smiles>  (79) 
CC1(C)C=C(n2ccnc2)c2cc(C#N)ccc2O1

>  <smiles>  (79) 
[H]C1=C(n2c([H])c([H])[n+]([H])c2[H])c2c([H])c(C#N)c([H])c([H])c2OC1(C([H])([H])[H])C([H])([H])[H]

$$$$
23:1:1
     RDKit          3D

 33 35  0  0  1  0  0  0  0  0999 V2000
    3.0054    6.0800    3.8693 C   0  0  0  0  0  0  0  0  0  0  0  0
    1.8629    5.2976    4.5350 C   0  0  0  0  0  0  0  0  0  0  0  0
    0.6150    6.1718    4.7265 C   0  0  0  0  0  0  0  0  0  0  0  0
    1.5416    4.0454    3.7258 C   0  0  0  0  0  0  0  0  0  0  0  0
    2.1768    2.8800    3.9706 C   0  0  0  0  0  0  0  0  0  0  0  0
    1.7849    1.6929    3.2891 N   0  0  0  0  0  0  0  0  0  0  0  0
    1.8881    0.3887    3.7222 C   0  0  0  0  0  0  0  0  0  0  0  0
    1.4584   -0.4106    2.6905 C   0  0  0  0  0  0  0  0  0  0  0  0
    1.0702    0.4247    1.6781 N   0  0  0  0  0  0  0  0  0  0  0  0
    1.2442    1.7018    2.0554 C   0  0  0  0  0  0  0  0  0  0  0  0
    3.1880    2.8530    5.0627 C   0  0  0  0  0  0  0  0  0  0  0  0
    4.1830    1.8561    5.1921 C   0  0  0  0  0  0  0  0  0  0  0  0
    5.0956    1.8727    6.2657 C   0  0  0  0  0  0  0  0  0  0  0  0
    6.0712    0.8058    6.3883 C   0  0  0  0  0  0  0  0  0  0  0  0
    6.8429   -0.0517    6.4805 N   0  0  0  0  0  0  0  0  0  0  0  0
    5.0496    2.9165    7.2062 C   0  0  0  0  0  0  0  0  0  0  0  0
    4.0989    3.9417    7.0657 C   0  0  0  0  0  0  0  0  0  0  0  0
    3.1849    3.9226    5.9905 C   0  0  0  0  0  0  0  0  0  0  0  0
    2.2989    4.9667    5.8628 O   0  0  0  0  0  0  0  0  0  0  0  0
    2.7232    6.4157    2.8809 H   0  0  0  0  0  0  0  0  0  0  0  0
    3.8945    5.4566    3.7671 H   0  0  0  0  0  0  0  0  0  0  0  0
    3.2883    6.9530    4.4600 H   0  0  0  0  0  0  0  0  0  0  0  0
    0.2222    6.5185    3.7705 H   0  0  0  0  0  0  0  0  0  0  0  0
    0.8431    7.0548    5.3246 H   0  0  0  0  0  0  0  0  0  0  0  0
   -0.1751    5.6282    5.2456 H   0  0  0  0  0  0  0  0  0  0  0  0
    0.7528    4.1415    2.9911 H   0  0  0  0  0  0  0  0  0  0  0  0
    2.2641    0.1106    4.6998 H   0  0  0  0  0  0  0  0  0  0  0  0
    1.4137   -1.4873    2.6269 H   0  0  0  0  0  0  0  0  0  0  0  0
    1.0169    2.5412    1.4315 H   0  0  0  0  0  0  0  0  0  0  0  0
    4.2786    1.0733    4.4551 H   0  0  0  0  0  0  0  0  0  0  0  0
    5.7594    2.9428    8.0174 H   0  0  0  0  0  0  0  0  0  0  0  0
    4.0865    4.7641    7.7696 H   0  0  0  0  0  0  0  0  0  0  0  0
    0.7194    0.1252    0.7585 H   0  0  0  0  0  0  0  0  0  0  0  0
  1  2  1  0
  1 20  1  0
  1 21  1  0
  1 22  1  0
  2 19  1  0
  2  3  1  0
  2  4  1  0
  3 23  1  0
  3 24  1  0
  3 25  1  0
  4  5  2  0
  4 26  1  0
  5  6  1  0
  5 11  1  0
  6 10  1  0
  6  7  1  0
  7  8  2  0
  7 27  1  0
  8  9  1  0
  8 28  1  0
  9 10  2  0
  9 33  1  0
 10 29  1  0
 11 18  2  0
 11 12  1  0
 12 13  2  0
 12 30  1  0
 13 14  1  0
 13 16  1  0
 14 15  3  0
 16 17  2  0
 16 31  1  0
 17 18  1  0
 17 32  1  0
 18 19  1  0
M  CHG  1   9   1
M  END
>  <i_m_ct_stereo_status>  (80) 
1

>  <s_m_source_file>  (80) 
/var/tmp/pbs.5076255.sched01/tmp9s019jnz/08u7fdliu.sdf

>  <i_m_source_file_index>  (80) 
34

>  <i_lp_mmshare_version>  (80) 
48012

>  <i_f3d_flags>  (80) 
0

>  <s_epik_input>  (80) 
TiNDYyhbY0hdMSlbY0hdW2NIXWMoYzEyKU9DKFtDSDNdKShbQ0gzXSlbQ0hdPUMybjNbY0hdW2NIXW5bY0hdMw==

>  <s_epik_cmdline>  (80) 
J2VwaWtfcHl0aG9uJywgJy1waHQnLCAnMi4wJywgJy1waCcsICc3LjAnLCAnLXRuJywgJzgnLCAnLW1hJywgJzIwMCcsICctaW1hZScsICc8aW5maWxlLm1hZT4nLCAnLW9tYWUnLCAnPG91dGZpbGUubWFlPic=

>  <r_epik_Ionization_Penalty>  (80) 
0.940351

>  <r_epik_Ionization_Penalty_Charging>  (80) 
0

>  <r_epik_Ionization_Penalty_Neutral>  (80) 
0.940351

>  <r_epik_State_Penalty>  (80) 
0.983689

>  <r_epik_Charging_Adjusted_Penalty>  (80) 
0.983689

>  <i_epik_Tot_Q>  (80) 
1

>  <i_epik_Tot_abs_Q>  (80) 
1

>  <s_lp_Force_Field>  (80) 
OPLS3e

>  <r_lp_Energy>  (80) 
36.4439

>  <b_lp_Chiralities_Consistent>  (80) 
1

>  <s_lp_Variant>  (80) 
23:0-2

>  <s_i_glide_gridfile>  (80) 
pfpi4k_grid

>  <i_i_glide_lignum>  (80) 
34

>  <i_i_glide_rotatable_bonds>  (80) 
2

>  <r_i_docking_score>  (80) 
-3.65364

>  <r_i_glide_ligand_efficiency>  (80) 
-0.192297

>  <r_i_glide_ligand_efficiency_sa>  (80) 
-0.513125

>  <r_i_glide_ligand_efficiency_ln>  (80) 
-0.926276

>  <r_i_glide_gscore>  (80) 
-3.65364

>  <r_i_glide_lipo>  (80) 
-0.0390054

>  <r_i_glide_hbond>  (80) 
-0.217502

>  <r_i_glide_metal>  (80) 
-0

>  <r_i_glide_rewards>  (80) 
-1.76783

>  <r_i_glide_evdw>  (80) 
-15.8165

>  <r_i_glide_ecoul>  (80) 
-6.41443

>  <r_i_glide_erotb>  (80) 
0.275653

>  <r_i_glide_esite>  (80) 
-0.151969

>  <r_i_glide_emodel>  (80) 
-29.0035

>  <r_i_glide_energy>  (80) 
-22.2309

>  <r_i_glide_einternal>  (80) 
0.384744

>  <r_i_glide_intrahb_reward>  (80) 
-0

>  <i_i_glide_confnum>  (80) 
2

>  <i_i_glide_posenum>  (80) 
18

>  <r_i_glide_eff_state_penalty>  (80) 
0

>  <ligand_id>  (80) 
23

>  <original_smiles>  (80) 
CC1(C)C=C(n2ccnc2)c2cc(C#N)ccc2O1

>  <smiles>  (80) 
[H]C1=C(n2c([H])c([H])[n+]([H])c2[H])c2c([H])c(C#N)c([H])c([H])c2OC1(C([H])([H])[H])C([H])([H])[H]

$$$$
23:1:2
     RDKit          3D

 33 35  0  0  1  0  0  0  0  0999 V2000
   -2.2202    5.0525    9.2935 C   0  0  0  0  0  0  0  0  0  0  0  0
   -1.3634    3.8548    8.8312 C   0  0  0  0  0  0  0  0  0  0  0  0
   -1.6012    2.6249    9.7279 C   0  0  0  0  0  0  0  0  0  0  0  0
   -1.6587    3.5261    7.3747 C   0  0  0  0  0  0  0  0  0  0  0  0
   -0.9549    4.0852    6.3637 C   0  0  0  0  0  0  0  0  0  0  0  0
   -1.2714    3.6684    5.0373 N   0  0  0  0  0  0  0  0  0  0  0  0
   -2.4409    3.1154    4.5645 C   0  0  0  0  0  0  0  0  0  0  0  0
   -2.2588    2.8943    3.2189 C   0  0  0  0  0  0  0  0  0  0  0  0
   -0.9955    3.3384    2.9185 N   0  0  0  0  0  0  0  0  0  0  0  0
   -0.3842    3.7680    4.0275 C   0  0  0  0  0  0  0  0  0  0  0  0
    0.1133    5.0516    6.7235 C   0  0  0  0  0  0  0  0  0  0  0  0
    0.6380    6.0225    5.8346 C   0  0  0  0  0  0  0  0  0  0  0  0
    1.6740    6.8833    6.2401 C   0  0  0  0  0  0  0  0  0  0  0  0
    2.2419    7.8088    5.2732 C   0  0  0  0  0  0  0  0  0  0  0  0
    2.6945    8.5362    4.4988 N   0  0  0  0  0  0  0  0  0  0  0  0
    2.1654    6.8240    7.5587 C   0  0  0  0  0  0  0  0  0  0  0  0
    1.6042    5.9134    8.4736 C   0  0  0  0  0  0  0  0  0  0  0  0
    0.5719    5.0483    8.0660 C   0  0  0  0  0  0  0  0  0  0  0  0
    0.0137    4.2166    9.0119 O   0  0  0  0  0  0  0  0  0  0  0  0
   -3.2895    4.8337    9.2497 H   0  0  0  0  0  0  0  0  0  0  0  0
   -2.0347    5.9304    8.6710 H   0  0  0  0  0  0  0  0  0  0  0  0
   -1.9769    5.3341   10.3198 H   0  0  0  0  0  0  0  0  0  0  0  0
   -2.6391    2.2927    9.7029 H   0  0  0  0  0  0  0  0  0  0  0  0
   -1.3619    2.8447   10.7679 H   0  0  0  0  0  0  0  0  0  0  0  0
   -0.9711    1.7881    9.4265 H   0  0  0  0  0  0  0  0  0  0  0  0
   -2.4309    2.7943    7.2020 H   0  0  0  0  0  0  0  0  0  0  0  0
   -3.3106    2.9443    5.1891 H   0  0  0  0  0  0  0  0  0  0  0  0
   -2.9285    2.4812    2.4749 H   0  0  0  0  0  0  0  0  0  0  0  0
    0.6282    4.1467    4.0376 H   0  0  0  0  0  0  0  0  0  0  0  0
    0.2513    6.1347    4.8359 H   0  0  0  0  0  0  0  0  0  0  0  0
    2.9546    7.4873    7.8749 H   0  0  0  0  0  0  0  0  0  0  0  0
    1.9491    5.8911    9.4988 H   0  0  0  0  0  0  0  0  0  0  0  0
   -0.5847    3.4239    1.9766 H   0  0  0  0  0  0  0  0  0  0  0  0
  1  2  1  0
  1 20  1  0
  1 21  1  0
  1 22  1  0
  2 19  1  0
  2  3  1  0
  2  4  1  0
  3 23  1  0
  3 24  1  0
  3 25  1  0
  4  5  2  0
  4 26  1  0
  5  6  1  0
  5 11  1  0
  6 10  1  0
  6  7  1  0
  7  8  2  0
  7 27  1  0
  8  9  1  0
  8 28  1  0
  9 10  2  0
  9 33  1  0
 10 29  1  0
 11 18  2  0
 11 12  1  0
 12 13  2  0
 12 30  1  0
 13 14  1  0
 13 16  1  0
 14 15  3  0
 16 17  2  0
 16 31  1  0
 17 18  1  0
 17 32  1  0
 18 19  1  0
M  CHG  1   9   1
M  END
>  <i_m_ct_stereo_status>  (81) 
1

>  <s_m_source_file>  (81) 
/var/tmp/pbs.5076255.sched01/tmp9s019jnz/08u7fdliu.sdf

>  <i_m_source_file_index>  (81) 
34

>  <i_lp_mmshare_version>  (81) 
48012

>  <i_f3d_flags>  (81) 
0

>  <s_epik_input>  (81) 
TiNDYyhbY0hdMSlbY0hdW2NIXWMoYzEyKU9DKFtDSDNdKShbQ0gzXSlbQ0hdPUMybjNbY0hdW2NIXW5bY0hdMw==

>  <s_epik_cmdline>  (81) 
J2VwaWtfcHl0aG9uJywgJy1waHQnLCAnMi4wJywgJy1waCcsICc3LjAnLCAnLXRuJywgJzgnLCAnLW1hJywgJzIwMCcsICctaW1hZScsICc8aW5maWxlLm1hZT4nLCAnLW9tYWUnLCAnPG91dGZpbGUubWFlPic=

>  <r_epik_Ionization_Penalty>  (81) 
0.940351

>  <r_epik_Ionization_Penalty_Charging>  (81) 
0

>  <r_epik_Ionization_Penalty_Neutral>  (81) 
0.940351

>  <r_epik_State_Penalty>  (81) 
0.983689

>  <r_epik_Charging_Adjusted_Penalty>  (81) 
0.983689

>  <i_epik_Tot_Q>  (81) 
1

>  <i_epik_Tot_abs_Q>  (81) 
1

>  <s_lp_Force_Field>  (81) 
OPLS3e

>  <r_lp_Energy>  (81) 
36.4439

>  <b_lp_Chiralities_Consistent>  (81) 
1

>  <s_lp_Variant>  (81) 
23:0-2

>  <s_i_glide_gridfile>  (81) 
pfpi4k_grid

>  <i_i_glide_lignum>  (81) 
34

>  <i_i_glide_rotatable_bonds>  (81) 
2

>  <r_i_docking_score>  (81) 
-3.30576

>  <r_i_glide_ligand_efficiency>  (81) 
-0.173987

>  <r_i_glide_ligand_efficiency_sa>  (81) 
-0.464268

>  <r_i_glide_ligand_efficiency_ln>  (81) 
-0.838081

>  <r_i_glide_gscore>  (81) 
-3.30576

>  <r_i_glide_lipo>  (81) 
-0.0431549

>  <r_i_glide_hbond>  (81) 
-0.2

>  <r_i_glide_metal>  (81) 
-0

>  <r_i_glide_rewards>  (81) 
-1.68892

>  <r_i_glide_evdw>  (81) 
-16.8317

>  <r_i_glide_ecoul>  (81) 
-3.9991

>  <r_i_glide_erotb>  (81) 
0.275653

>  <r_i_glide_esite>  (81) 
-0.207883

>  <r_i_glide_emodel>  (81) 
-27.0531

>  <r_i_glide_energy>  (81) 
-20.8308

>  <r_i_glide_einternal>  (81) 
0.126194

>  <r_i_glide_intrahb_reward>  (81) 
-0

>  <i_i_glide_confnum>  (81) 
1

>  <i_i_glide_posenum>  (81) 
3

>  <r_i_glide_eff_state_penalty>  (81) 
0

>  <ligand_id>  (81) 
23

>  <original_smiles>  (81) 
CC1(C)C=C(n2ccnc2)c2cc(C#N)ccc2O1

>  <smiles>  (81) 
[H]C1=C(n2c([H])c([H])[n+]([H])c2[H])c2c([H])c(C#N)c([H])c([H])c2OC1(C([H])([H])[H])C([H])([H])[H]

$$$$
24:0:0
     RDKit          3D

 53 57  0  0  1  0  0  0  0  0999 V2000
    8.4062   -3.4291   -1.2568 C   0  0  0  0  0  0  0  0  0  0  0  0
    7.5190   -2.3896   -0.9249 O   0  0  0  0  0  0  0  0  0  0  0  0
    7.5308   -2.1480    0.4696 C   0  0  0  0  0  0  0  0  0  0  0  0
    6.0660   -2.1251    0.9312 C   0  0  2  0  0  0  0  0  0  0  0  0
    5.8926   -1.8800    2.3197 O   0  0  0  0  0  0  0  0  0  0  0  0
    4.6315   -2.3066    2.7607 C   0  0  1  0  0  0  0  0  0  0  0  0
    3.6565   -1.1394    2.6462 N   0  0  0  0  0  0  0  0  0  0  0  0
    3.4462   -0.2165    1.6284 C   0  0  0  0  0  0  0  0  0  0  0  0
    2.5838    0.7098    1.8480 N   0  0  0  0  0  0  0  0  0  0  0  0
    2.0775    0.4020    3.0913 C   0  0  0  0  0  0  0  0  0  0  0  0
    1.0692    1.0075    3.8773 C   0  0  0  0  0  0  0  0  0  0  0  0
    0.4303    2.1109    3.4217 N   0  0  0  0  0  0  0  0  0  0  0  0
   -0.6802    2.6971    4.1454 C   0  0  2  0  0  0  0  0  0  0  0  0
   -2.0308    2.2077    3.6631 C   0  0  0  0  0  0  0  0  0  0  0  0
   -2.9451    3.3208    4.1379 C   0  0  0  0  0  0  0  0  0  0  0  0
   -2.1479    4.5172    4.0322 O   0  0  0  0  0  0  0  0  0  0  0  0
   -0.7934    4.2033    3.9088 C   0  0  0  0  0  0  0  0  0  0  0  0
    0.8008    0.4461    5.0806 N   0  0  0  0  0  0  0  0  0  0  0  0
    1.5119   -0.6074    5.4851 C   0  0  0  0  0  0  0  0  0  0  0  0
    2.4921   -1.2758    4.8529 N   0  0  0  0  0  0  0  0  0  0  0  0
    2.7446   -0.7415    3.6154 C   0  0  0  0  0  0  0  0  0  0  0  0
    4.2314   -3.4761    1.8195 C   0  0  2  0  0  0  0  0  0  0  0  0
    4.5030   -4.7701    2.3561 O   0  0  0  0  0  0  0  0  0  0  0  0
    5.1243   -5.4680    1.3100 C   0  0  0  0  0  0  0  0  0  0  0  0
    5.9584   -6.6449    1.8515 C   0  0  0  0  0  0  0  0  0  0  0  0
    4.0625   -6.0170    0.3126 C   0  0  0  0  0  0  0  0  0  0  0  0
    5.9566   -4.5951    0.6372 O   0  0  0  0  0  0  0  0  0  0  0  0
    5.2263   -3.3739    0.6465 C   0  0  2  0  0  0  0  0  0  0  0  0
    0.6709    2.5694    2.5435 H   0  0  0  0  0  0  0  0  0  0  0  0
    8.3615   -3.6564   -2.3055 H   0  0  0  0  0  0  0  0  0  0  0  0
    8.1761   -4.3377   -0.7100 H   0  0  0  0  0  0  0  0  0  0  0  0
    9.4115   -3.1357   -0.9801 H   0  0  0  0  0  0  0  0  0  0  0  0
    8.0983   -2.8732    1.0650 H   0  0  0  0  0  0  0  0  0  0  0  0
    7.9767   -1.1578    0.6178 H   0  0  0  0  0  0  0  0  0  0  0  0
    5.6547   -1.3069    0.3404 H   0  0  0  0  0  0  0  0  0  0  0  0
    4.6872   -2.5721    3.8189 H   0  0  0  0  0  0  0  0  0  0  0  0
    3.9516   -0.1374    0.6642 H   0  0  0  0  0  0  0  0  0  0  0  0
   -0.6145    2.5384    5.2239 H   0  0  0  0  0  0  0  0  0  0  0  0
   -2.0864    2.1533    2.5719 H   0  0  0  0  0  0  0  0  0  0  0  0
   -2.3087    1.2382    4.0807 H   0  0  0  0  0  0  0  0  0  0  0  0
   -3.8451    3.3480    3.5405 H   0  0  0  0  0  0  0  0  0  0  0  0
   -3.2264    3.1791    5.1780 H   0  0  0  0  0  0  0  0  0  0  0  0
   -0.1583    4.7789    4.5965 H   0  0  0  0  0  0  0  0  0  0  0  0
   -0.5136    4.4717    2.8848 H   0  0  0  0  0  0  0  0  0  0  0  0
    1.2625   -0.9741    6.4712 H   0  0  0  0  0  0  0  0  0  0  0  0
    3.1870   -3.3902    1.5130 H   0  0  0  0  0  0  0  0  0  0  0  0
    6.7590   -6.3443    2.5440 H   0  0  0  0  0  0  0  0  0  0  0  0
    6.3964   -7.1772    1.0127 H   0  0  0  0  0  0  0  0  0  0  0  0
    5.2946   -7.3473    2.3455 H   0  0  0  0  0  0  0  0  0  0  0  0
    3.3946   -5.2516   -0.1138 H   0  0  0  0  0  0  0  0  0  0  0  0
    3.4707   -6.7678    0.8276 H   0  0  0  0  0  0  0  0  0  0  0  0
    4.5963   -6.5031   -0.5019 H   0  0  0  0  0  0  0  0  0  0  0  0
    4.7016   -3.2758   -0.2948 H   0  0  0  0  0  0  0  0  0  0  0  0
  1  2  1  0
  1 30  1  0
  1 31  1  0
  1 32  1  0
  2  3  1  0
  3  4  1  0
  3 33  1  0
  3 34  1  0
  4 28  1  0
  4  5  1  0
  4 35  1  6
  5  6  1  0
  6 22  1  0
  6 36  1  1
  6  7  1  0
  7  8  1  0
  7 21  1  0
  8  9  2  0
  8 37  1  0
  9 10  1  0
 10 11  1  0
 10 21  2  0
 11 18  2  0
 11 12  1  0
 12 13  1  0
 12 29  1  0
 13 17  1  0
 13 14  1  0
 13 38  1  1
 14 15  1  0
 14 39  1  0
 14 40  1  0
 15 16  1  0
 15 41  1  0
 15 42  1  0
 16 17  1  0
 17 43  1  0
 17 44  1  0
 18 19  1  0
 19 45  1  0
 19 20  2  0
 20 21  1  0
 22 28  1  0
 22 23  1  0
 22 46  1  6
 23 24  1  0
 24 25  1  0
 24 26  1  0
 24 27  1  0
 25 47  1  0
 25 48  1  0
 25 49  1  0
 26 50  1  0
 26 51  1  0
 26 52  1  0
 27 28  1  0
 28 53  1  6
M  END
>  <i_m_ct_stereo_status>  (82) 
1

>  <s_m_source_file>  (82) 
/var/tmp/pbs.5076255.sched01/tmp9s019jnz/08u7fdliu.sdf

>  <i_m_source_file_index>  (82) 
35

>  <i_lp_mmshare_version>  (82) 
48012

>  <i_f3d_flags>  (82) 
0

>  <s_epik_input>  (82) 
TzFDKFtDSDNdKShbQ0gzXSlPW0NAQEhdKFtDQEBIXTEyKVtDQEhdKFtDSDJdT1tDSDNdKU9bQ0BIXTJuKFtjSF1uMyljKGMzNCluW2NIXVtuSF1jXDQ9TlxbQ0BASF01W0NIMl1bQ0gyXU9bQ0gyXTU=

>  <s_epik_cmdline>  (82) 
J2VwaWtfcHl0aG9uJywgJy1waHQnLCAnMi4wJywgJy1waCcsICc3LjAnLCAnLXRuJywgJzgnLCAnLW1hJywgJzIwMCcsICctaW1hZScsICc8aW5maWxlLm1hZT4nLCAnLW9tYWUnLCAnPG91dGZpbGUubWFlPic=

>  <r_lp_tautomer_probability>  (82) 
1

>  <r_epik_Ionization_Penalty>  (82) 
0.00112776

>  <r_epik_Ionization_Penalty_Charging>  (82) 
0

>  <r_epik_Ionization_Penalty_Neutral>  (82) 
0.00112776

>  <r_epik_State_Penalty>  (82) 
-0

>  <r_epik_Charging_Adjusted_Penalty>  (82) 
0

>  <i_epik_Tot_Q>  (82) 
0

>  <i_epik_Tot_abs_Q>  (82) 
0

>  <s_epik_Chemistry_Notes>  (82) 
This compound contains an acetal/aminal-like group ( X-CH(R)-Y where X, Y are N, S, or O) that may be acid/base labile, releasing an aldehyde.

>  <s_lp_Force_Field>  (82) 
OPLS3e

>  <r_lp_Energy>  (82) 
6.54638

>  <b_lp_Chiralities_Consistent>  (82) 
1

>  <s_lp_Variant>  (82) 
24:0-1

>  <s_i_glide_gridfile>  (82) 
pfpi4k_grid

>  <i_i_glide_lignum>  (82) 
35

>  <i_i_glide_rotatable_bonds>  (82) 
5

>  <r_i_docking_score>  (82) 
-3.17179

>  <r_i_glide_ligand_efficiency>  (82) 
-0.113278

>  <r_i_glide_ligand_efficiency_sa>  (82) 
-0.343979

>  <r_i_glide_ligand_efficiency_ln>  (82) 
-0.732142

>  <r_i_glide_gscore>  (82) 
-3.17179

>  <r_i_glide_lipo>  (82) 
-0.401241

>  <r_i_glide_hbond>  (82) 
-0.293287

>  <r_i_glide_metal>  (82) 
-0

>  <r_i_glide_rewards>  (82) 
-0.865046

>  <r_i_glide_evdw>  (82) 
-23.3426

>  <r_i_glide_ecoul>  (82) 
-6.03735

>  <r_i_glide_erotb>  (82) 
0.50948

>  <r_i_glide_esite>  (82) 
-0.0489607

>  <r_i_glide_emodel>  (82) 
-31.7476

>  <r_i_glide_energy>  (82) 
-29.38

>  <r_i_glide_einternal>  (82) 
4.99561

>  <r_i_glide_intrahb_reward>  (82) 
-0

>  <i_i_glide_confnum>  (82) 
2

>  <i_i_glide_posenum>  (82) 
34

>  <r_i_glide_eff_state_penalty>  (82) 
0

>  <ligand_id>  (82) 
24

>  <original_smiles>  (82) 
COCC1OC(n2cnc3c(=NC4CCOC4)[nH]cnc32)C2OC(C)(C)OC12

>  <smiles>  (82) 
[H]c1nc(N([H])C2([H])C([H])([H])OC([H])([H])C2([H])[H])c2nc([H])n(C3([H])OC([H])(C([H])([H])OC([H])([H])[H])C4([H])OC(C([H])([H])[H])(C([H])([H])[H])OC34[H])c2n1

$$$$
24:0:1
     RDKit          3D

 53 57  0  0  1  0  0  0  0  0999 V2000
    8.2312   -1.4359    0.4491 C   0  0  0  0  0  0  0  0  0  0  0  0
    7.4941   -1.8972   -0.6845 O   0  0  0  0  0  0  0  0  0  0  0  0
    6.8722   -3.1559   -0.5467 C   0  0  0  0  0  0  0  0  0  0  0  0
    5.5257   -3.0673    0.2211 C   0  0  2  0  0  0  0  0  0  0  0  0
    5.7657   -2.6572    1.5812 O   0  0  0  0  0  0  0  0  0  0  0  0
    4.6433   -2.9353    2.3563 C   0  0  1  0  0  0  0  0  0  0  0  0
    3.6571   -1.7911    2.2370 N   0  0  0  0  0  0  0  0  0  0  0  0
    3.7191   -0.6169    1.4928 C   0  0  0  0  0  0  0  0  0  0  0  0
    2.7271    0.2109    1.6438 N   0  0  0  0  0  0  0  0  0  0  0  0
    1.8989   -0.4135    2.5571 C   0  0  0  0  0  0  0  0  0  0  0  0
    0.6710   -0.0611    3.1450 C   0  0  0  0  0  0  0  0  0  0  0  0
    0.0181    1.0782    2.7937 N   0  0  0  0  0  0  0  0  0  0  0  0
   -1.2338    1.4891    3.4234 C   0  0  2  0  0  0  0  0  0  0  0  0
   -2.0144    2.4506    2.5536 C   0  0  0  0  0  0  0  0  0  0  0  0
   -2.9116    3.1339    3.5721 C   0  0  0  0  0  0  0  0  0  0  0  0
   -2.1481    3.2045    4.7715 O   0  0  0  0  0  0  0  0  0  0  0  0
   -1.0311    2.3180    4.6920 C   0  0  0  0  0  0  0  0  0  0  0  0
    0.1436   -0.9042    4.0764 N   0  0  0  0  0  0  0  0  0  0  0  0
    0.8080   -2.0329    4.3786 C   0  0  0  0  0  0  0  0  0  0  0  0
    1.9562   -2.4945    3.8845 N   0  0  0  0  0  0  0  0  0  0  0  0
    2.4881   -1.6555    2.9491 C   0  0  0  0  0  0  0  0  0  0  0  0
    4.0785   -4.2413    1.7818 C   0  0  2  0  0  0  0  0  0  0  0  0
    4.5903   -5.3906    2.4885 O   0  0  0  0  0  0  0  0  0  0  0  0
    4.9914   -6.2741    1.4695 C   0  0  0  0  0  0  0  0  0  0  0  0
    6.0042   -7.2769    2.0134 C   0  0  0  0  0  0  0  0  0  0  0  0
    3.7685   -7.0100    0.9112 C   0  0  0  0  0  0  0  0  0  0  0  0
    5.5736   -5.5194    0.4506 O   0  0  0  0  0  0  0  0  0  0  0  0
    4.7293   -4.3586    0.4076 C   0  0  2  0  0  0  0  0  0  0  0  0
    0.4144    1.7251    2.1243 H   0  0  0  0  0  0  0  0  0  0  0  0
    8.7550   -0.5143    0.2250 H   0  0  0  0  0  0  0  0  0  0  0  0
    8.9634   -2.1786    0.7705 H   0  0  0  0  0  0  0  0  0  0  0  0
    7.5846   -1.1589    1.2778 H   0  0  0  0  0  0  0  0  0  0  0  0
    6.6234   -3.4835   -1.5600 H   0  0  0  0  0  0  0  0  0  0  0  0
    7.5485   -3.9151   -0.1093 H   0  0  0  0  0  0  0  0  0  0  0  0
    4.8729   -2.3455   -0.2787 H   0  0  0  0  0  0  0  0  0  0  0  0
    4.9359   -2.9358    3.4169 H   0  0  0  0  0  0  0  0  0  0  0  0
    4.5249   -0.3170    0.8391 H   0  0  0  0  0  0  0  0  0  0  0  0
   -1.8736    0.6340    3.6528 H   0  0  0  0  0  0  0  0  0  0  0  0
   -1.3744    3.2003    2.0893 H   0  0  0  0  0  0  0  0  0  0  0  0
   -2.5765    1.9435    1.7682 H   0  0  0  0  0  0  0  0  0  0  0  0
   -3.2285    4.1207    3.2423 H   0  0  0  0  0  0  0  0  0  0  0  0
   -3.8015    2.5358    3.7514 H   0  0  0  0  0  0  0  0  0  0  0  0
   -0.9197    1.6991    5.5889 H   0  0  0  0  0  0  0  0  0  0  0  0
   -0.1514    2.9501    4.6028 H   0  0  0  0  0  0  0  0  0  0  0  0
    0.3367   -2.6699    5.1103 H   0  0  0  0  0  0  0  0  0  0  0  0
    2.9870   -4.2449    1.7377 H   0  0  0  0  0  0  0  0  0  0  0  0
    6.9358   -6.8424    2.4155 H   0  0  0  0  0  0  0  0  0  0  0  0
    6.2578   -7.9888    1.2279 H   0  0  0  0  0  0  0  0  0  0  0  0
    5.5264   -7.8691    2.7932 H   0  0  0  0  0  0  0  0  0  0  0  0
    2.9638   -6.3633    0.5198 H   0  0  0  0  0  0  0  0  0  0  0  0
    3.3613   -7.6394    1.7004 H   0  0  0  0  0  0  0  0  0  0  0  0
    4.1274   -7.6557    0.1111 H   0  0  0  0  0  0  0  0  0  0  0  0
    4.0201   -4.4850   -0.4024 H   0  0  0  0  0  0  0  0  0  0  0  0
  1  2  1  0
  1 30  1  0
  1 31  1  0
  1 32  1  0
  2  3  1  0
  3  4  1  0
  3 33  1  0
  3 34  1  0
  4 28  1  0
  4  5  1  0
  4 35  1  6
  5  6  1  0
  6 22  1  0
  6 36  1  1
  6  7  1  0
  7  8  1  0
  7 21  1  0
  8  9  2  0
  8 37  1  0
  9 10  1  0
 10 11  1  0
 10 21  2  0
 11 18  2  0
 11 12  1  0
 12 13  1  0
 12 29  1  0
 13 17  1  0
 13 14  1  0
 13 38  1  1
 14 15  1  0
 14 39  1  0
 14 40  1  0
 15 16  1  0
 15 41  1  0
 15 42  1  0
 16 17  1  0
 17 43  1  0
 17 44  1  0
 18 19  1  0
 19 45  1  0
 19 20  2  0
 20 21  1  0
 22 28  1  0
 22 23  1  0
 22 46  1  6
 23 24  1  0
 24 25  1  0
 24 26  1  0
 24 27  1  0
 25 47  1  0
 25 48  1  0
 25 49  1  0
 26 50  1  0
 26 51  1  0
 26 52  1  0
 27 28  1  0
 28 53  1  6
M  END
>  <i_m_ct_stereo_status>  (83) 
1

>  <s_m_source_file>  (83) 
/var/tmp/pbs.5076255.sched01/tmp9s019jnz/08u7fdliu.sdf

>  <i_m_source_file_index>  (83) 
35

>  <i_lp_mmshare_version>  (83) 
48012

>  <i_f3d_flags>  (83) 
0

>  <s_epik_input>  (83) 
TzFDKFtDSDNdKShbQ0gzXSlPW0NAQEhdKFtDQEBIXTEyKVtDQEhdKFtDSDJdT1tDSDNdKU9bQ0BIXTJuKFtjSF1uMyljKGMzNCluW2NIXVtuSF1jXDQ9TlxbQ0BASF01W0NIMl1bQ0gyXU9bQ0gyXTU=

>  <s_epik_cmdline>  (83) 
J2VwaWtfcHl0aG9uJywgJy1waHQnLCAnMi4wJywgJy1waCcsICc3LjAnLCAnLXRuJywgJzgnLCAnLW1hJywgJzIwMCcsICctaW1hZScsICc8aW5maWxlLm1hZT4nLCAnLW9tYWUnLCAnPG91dGZpbGUubWFlPic=

>  <r_lp_tautomer_probability>  (83) 
1

>  <r_epik_Ionization_Penalty>  (83) 
0.00112776

>  <r_epik_Ionization_Penalty_Charging>  (83) 
0

>  <r_epik_Ionization_Penalty_Neutral>  (83) 
0.00112776

>  <r_epik_State_Penalty>  (83) 
-0

>  <r_epik_Charging_Adjusted_Penalty>  (83) 
0

>  <i_epik_Tot_Q>  (83) 
0

>  <i_epik_Tot_abs_Q>  (83) 
0

>  <s_epik_Chemistry_Notes>  (83) 
This compound contains an acetal/aminal-like group ( X-CH(R)-Y where X, Y are N, S, or O) that may be acid/base labile, releasing an aldehyde.

>  <s_lp_Force_Field>  (83) 
OPLS3e

>  <r_lp_Energy>  (83) 
6.54638

>  <b_lp_Chiralities_Consistent>  (83) 
1

>  <s_lp_Variant>  (83) 
24:0-1

>  <s_i_glide_gridfile>  (83) 
pfpi4k_grid

>  <i_i_glide_lignum>  (83) 
35

>  <i_i_glide_rotatable_bonds>  (83) 
5

>  <r_i_docking_score>  (83) 
-2.84519

>  <r_i_glide_ligand_efficiency>  (83) 
-0.101614

>  <r_i_glide_ligand_efficiency_sa>  (83) 
-0.308559

>  <r_i_glide_ligand_efficiency_ln>  (83) 
-0.656753

>  <r_i_glide_gscore>  (83) 
-2.84519

>  <r_i_glide_lipo>  (83) 
-0.337877

>  <r_i_glide_hbond>  (83) 
-0.16

>  <r_i_glide_metal>  (83) 
-0

>  <r_i_glide_rewards>  (83) 
-0.896803

>  <r_i_glide_evdw>  (83) 
-26.2528

>  <r_i_glide_ecoul>  (83) 
-3.94487

>  <r_i_glide_erotb>  (83) 
0.50948

>  <r_i_glide_esite>  (83) 
-0.0556175

>  <r_i_glide_emodel>  (83) 
-33.5432

>  <r_i_glide_energy>  (83) 
-30.1977

>  <r_i_glide_einternal>  (83) 
2.36414

>  <r_i_glide_intrahb_reward>  (83) 
-0

>  <i_i_glide_confnum>  (83) 
5

>  <i_i_glide_posenum>  (83) 
1

>  <r_i_glide_eff_state_penalty>  (83) 
0

>  <ligand_id>  (83) 
24

>  <original_smiles>  (83) 
COCC1OC(n2cnc3c(=NC4CCOC4)[nH]cnc32)C2OC(C)(C)OC12

>  <smiles>  (83) 
[H]c1nc(N([H])C2([H])C([H])([H])OC([H])([H])C2([H])[H])c2nc([H])n(C3([H])OC([H])(C([H])([H])OC([H])([H])[H])C4([H])OC(C([H])([H])[H])(C([H])([H])[H])OC34[H])c2n1

$$$$
24:0:2
     RDKit          3D

 53 57  0  0  1  0  0  0  0  0999 V2000
    7.0271   -3.0688   -2.0926 C   0  0  0  0  0  0  0  0  0  0  0  0
    6.0150   -2.6546   -1.1893 O   0  0  0  0  0  0  0  0  0  0  0  0
    5.1929   -3.7502   -0.7961 C   0  0  0  0  0  0  0  0  0  0  0  0
    4.1756   -3.2985    0.2812 C   0  0  2  0  0  0  0  0  0  0  0  0
    4.8145   -3.0277    1.5124 O   0  0  0  0  0  0  0  0  0  0  0  0
    3.8634   -2.9763    2.5323 C   0  0  1  0  0  0  0  0  0  0  0  0
    3.2113   -1.6018    2.5702 N   0  0  0  0  0  0  0  0  0  0  0  0
    3.5646   -0.4357    1.9041 C   0  0  0  0  0  0  0  0  0  0  0  0
    2.8540    0.6168    2.1981 N   0  0  0  0  0  0  0  0  0  0  0  0
    1.9243    0.1744    3.1280 C   0  0  0  0  0  0  0  0  0  0  0  0
    0.8858    0.8058    3.8411 C   0  0  0  0  0  0  0  0  0  0  0  0
    0.6166    2.1328    3.7100 N   0  0  0  0  0  0  0  0  0  0  0  0
   -0.6636    2.7085    4.1202 C   0  0  2  0  0  0  0  0  0  0  0  0
   -1.8531    2.2072    3.3192 C   0  0  0  0  0  0  0  0  0  0  0  0
   -2.8832    3.3079    3.5555 C   0  0  0  0  0  0  0  0  0  0  0  0
   -2.1394    4.5182    3.6546 O   0  0  0  0  0  0  0  0  0  0  0  0
   -0.7570    4.2175    3.8466 C   0  0  0  0  0  0  0  0  0  0  0  0
    0.1631    0.0452    4.6998 N   0  0  0  0  0  0  0  0  0  0  0  0
    0.4987   -1.2420    4.8757 C   0  0  0  0  0  0  0  0  0  0  0  0
    1.4592   -1.9521    4.2953 N   0  0  0  0  0  0  0  0  0  0  0  0
    2.1613   -1.2139    3.3810 C   0  0  0  0  0  0  0  0  0  0  0  0
    2.8308   -4.0738    2.1601 C   0  0  2  0  0  0  0  0  0  0  0  0
    3.1223   -5.2997    2.7745 O   0  0  0  0  0  0  0  0  0  0  0  0
    3.0199   -6.2223    1.7505 C   0  0  0  0  0  0  0  0  0  0  0  0
    3.8049   -7.4959    2.1175 C   0  0  0  0  0  0  0  0  0  0  0  0
    1.5183   -6.5885    1.5256 C   0  0  0  0  0  0  0  0  0  0  0  0
    3.5344   -5.6870    0.5941 O   0  0  0  0  0  0  0  0  0  0  0  0
    3.1130   -4.3437    0.6636 C   0  0  2  0  0  0  0  0  0  0  0  0
    1.2071    2.7418    3.1536 H   0  0  0  0  0  0  0  0  0  0  0  0
    7.6966   -2.2449   -2.3209 H   0  0  0  0  0  0  0  0  0  0  0  0
    6.6023   -3.4507   -3.0253 H   0  0  0  0  0  0  0  0  0  0  0  0
    7.6536   -3.8410   -1.6465 H   0  0  0  0  0  0  0  0  0  0  0  0
    4.6629   -4.0921   -1.6835 H   0  0  0  0  0  0  0  0  0  0  0  0
    5.8045   -4.5744   -0.4170 H   0  0  0  0  0  0  0  0  0  0  0  0
    3.6383   -2.4114   -0.0766 H   0  0  0  0  0  0  0  0  0  0  0  0
    4.3550   -3.0738    3.4923 H   0  0  0  0  0  0  0  0  0  0  0  0
    4.3801   -0.3195    1.2099 H   0  0  0  0  0  0  0  0  0  0  0  0
   -0.8547    2.5373    5.1858 H   0  0  0  0  0  0  0  0  0  0  0  0
   -1.6416    2.1346    2.2484 H   0  0  0  0  0  0  0  0  0  0  0  0
   -2.1723    1.2285    3.6745 H   0  0  0  0  0  0  0  0  0  0  0  0
   -3.6391    3.3657    2.7718 H   0  0  0  0  0  0  0  0  0  0  0  0
   -3.3929    3.1523    4.5052 H   0  0  0  0  0  0  0  0  0  0  0  0
   -0.2984    4.8189    4.6352 H   0  0  0  0  0  0  0  0  0  0  0  0
   -0.2697    4.4675    2.9049 H   0  0  0  0  0  0  0  0  0  0  0  0
   -0.0971   -1.7734    5.6031 H   0  0  0  0  0  0  0  0  0  0  0  0
    1.8006   -3.7635    2.3395 H   0  0  0  0  0  0  0  0  0  0  0  0
    4.8798   -7.3323    2.2883 H   0  0  0  0  0  0  0  0  0  0  0  0
    3.6620   -8.2253    1.3211 H   0  0  0  0  0  0  0  0  0  0  0  0
    3.3552   -7.9262    3.0112 H   0  0  0  0  0  0  0  0  0  0  0  0
    0.8609   -5.7400    1.2925 H   0  0  0  0  0  0  0  0  0  0  0  0
    1.1556   -7.0875    2.4242 H   0  0  0  0  0  0  0  0  0  0  0  0
    1.4621   -7.3020    0.7059 H   0  0  0  0  0  0  0  0  0  0  0  0
    2.2141   -4.2377    0.0564 H   0  0  0  0  0  0  0  0  0  0  0  0
  1  2  1  0
  1 30  1  0
  1 31  1  0
  1 32  1  0
  2  3  1  0
  3  4  1  0
  3 33  1  0
  3 34  1  0
  4 28  1  0
  4  5  1  0
  4 35  1  6
  5  6  1  0
  6 22  1  0
  6 36  1  1
  6  7  1  0
  7  8  1  0
  7 21  1  0
  8  9  2  0
  8 37  1  0
  9 10  1  0
 10 11  1  0
 10 21  2  0
 11 18  2  0
 11 12  1  0
 12 13  1  0
 12 29  1  0
 13 17  1  0
 13 14  1  0
 13 38  1  1
 14 15  1  0
 14 39  1  0
 14 40  1  0
 15 16  1  0
 15 41  1  0
 15 42  1  0
 16 17  1  0
 17 43  1  0
 17 44  1  0
 18 19  1  0
 19 45  1  0
 19 20  2  0
 20 21  1  0
 22 28  1  0
 22 23  1  0
 22 46  1  6
 23 24  1  0
 24 25  1  0
 24 26  1  0
 24 27  1  0
 25 47  1  0
 25 48  1  0
 25 49  1  0
 26 50  1  0
 26 51  1  0
 26 52  1  0
 27 28  1  0
 28 53  1  6
M  END
>  <i_m_ct_stereo_status>  (84) 
1

>  <s_m_source_file>  (84) 
/var/tmp/pbs.5076255.sched01/tmp9s019jnz/08u7fdliu.sdf

>  <i_m_source_file_index>  (84) 
35

>  <i_lp_mmshare_version>  (84) 
48012

>  <i_f3d_flags>  (84) 
0

>  <s_epik_input>  (84) 
TzFDKFtDSDNdKShbQ0gzXSlPW0NAQEhdKFtDQEBIXTEyKVtDQEhdKFtDSDJdT1tDSDNdKU9bQ0BIXTJuKFtjSF1uMyljKGMzNCluW2NIXVtuSF1jXDQ9TlxbQ0BASF01W0NIMl1bQ0gyXU9bQ0gyXTU=

>  <s_epik_cmdline>  (84) 
J2VwaWtfcHl0aG9uJywgJy1waHQnLCAnMi4wJywgJy1waCcsICc3LjAnLCAnLXRuJywgJzgnLCAnLW1hJywgJzIwMCcsICctaW1hZScsICc8aW5maWxlLm1hZT4nLCAnLW9tYWUnLCAnPG91dGZpbGUubWFlPic=

>  <r_lp_tautomer_probability>  (84) 
1

>  <r_epik_Ionization_Penalty>  (84) 
0.00112776

>  <r_epik_Ionization_Penalty_Charging>  (84) 
0

>  <r_epik_Ionization_Penalty_Neutral>  (84) 
0.00112776

>  <r_epik_State_Penalty>  (84) 
-0

>  <r_epik_Charging_Adjusted_Penalty>  (84) 
0

>  <i_epik_Tot_Q>  (84) 
0

>  <i_epik_Tot_abs_Q>  (84) 
0

>  <s_epik_Chemistry_Notes>  (84) 
This compound contains an acetal/aminal-like group ( X-CH(R)-Y where X, Y are N, S, or O) that may be acid/base labile, releasing an aldehyde.

>  <s_lp_Force_Field>  (84) 
OPLS3e

>  <r_lp_Energy>  (84) 
6.54638

>  <b_lp_Chiralities_Consistent>  (84) 
1

>  <s_lp_Variant>  (84) 
24:0-1

>  <s_i_glide_gridfile>  (84) 
pfpi4k_grid

>  <i_i_glide_lignum>  (84) 
35

>  <i_i_glide_rotatable_bonds>  (84) 
5

>  <r_i_docking_score>  (84) 
-2.3401

>  <r_i_glide_ligand_efficiency>  (84) 
-0.0835749

>  <r_i_glide_ligand_efficiency_sa>  (84) 
-0.253783

>  <r_i_glide_ligand_efficiency_ln>  (84) 
-0.540163

>  <r_i_glide_gscore>  (84) 
-2.3401

>  <r_i_glide_lipo>  (84) 
-0.0873363

>  <r_i_glide_hbond>  (84) 
-0.16

>  <r_i_glide_metal>  (84) 
-0

>  <r_i_glide_rewards>  (84) 
-0.769064

>  <r_i_glide_evdw>  (84) 
-25.7354

>  <r_i_glide_ecoul>  (84) 
-3.3407

>  <r_i_glide_erotb>  (84) 
0.50948

>  <r_i_glide_esite>  (84) 
-0.0453027

>  <r_i_glide_emodel>  (84) 
-31.8827

>  <r_i_glide_energy>  (84) 
-29.0761

>  <r_i_glide_einternal>  (84) 
2.08652

>  <r_i_glide_intrahb_reward>  (84) 
-0

>  <i_i_glide_confnum>  (84) 
5

>  <i_i_glide_posenum>  (84) 
40

>  <r_i_glide_eff_state_penalty>  (84) 
0

>  <ligand_id>  (84) 
24

>  <original_smiles>  (84) 
COCC1OC(n2cnc3c(=NC4CCOC4)[nH]cnc32)C2OC(C)(C)OC12

>  <smiles>  (84) 
[H]c1nc(N([H])C2([H])C([H])([H])OC([H])([H])C2([H])[H])c2nc([H])n(C3([H])OC([H])(C([H])([H])OC([H])([H])[H])C4([H])OC(C([H])([H])[H])(C([H])([H])[H])OC34[H])c2n1

$$$$
25:0:0
     RDKit          3D

 53 58  0  0  1  0  0  0  0  0999 V2000
    4.0616   -8.3474    1.1706 C   0  0  0  0  0  0  0  0  0  0  0  0
    4.3068   -7.0192    1.2384 C   0  0  0  0  0  0  0  0  0  0  0  0
    3.2140   -5.9987    1.0703 C   0  0  0  0  0  0  0  0  0  0  0  0
    2.0590   -6.1414    0.6682 O   0  0  0  0  0  0  0  0  0  0  0  0
    3.7863   -4.6708    1.5653 C   0  0  2  0  0  0  0  0  0  0  0  0
    4.6686   -4.2423    0.6320 C   0  0  0  0  0  0  0  0  0  0  0  0
    5.6817   -3.0621    1.3512 C   0  0  1  0  0  0  0  0  0  0  0  0
    5.4279   -2.5205    2.6474 O   0  0  0  0  0  0  0  0  0  0  0  0
    7.0186   -3.3938    1.2960 O   0  0  0  0  0  0  0  0  0  0  0  0
    7.1424   -4.0972    0.1361 C   0  0  1  0  0  0  0  0  0  0  0  0
    6.9224   -5.6265    0.9129 C   0  0  0  0  0  0  0  0  0  0  0  0
    5.6127   -6.3420    1.7636 C   0  0  1  0  0  0  0  0  0  0  0  0
    4.7809   -5.2439    2.6037 C   0  0  2  0  0  0  0  0  0  0  0  0
    3.8513   -5.4212    3.8342 C   0  0  0  0  0  0  0  0  0  0  0  0
    3.1769   -4.0372    4.1916 C   0  0  1  0  0  0  0  0  0  0  0  0
    4.0816   -3.2766    4.9654 O   0  0  0  0  0  0  0  0  0  0  0  0
    2.5304   -3.1405    3.0390 C   0  0  0  0  0  0  0  0  0  0  0  0
    3.0351   -3.2572    1.5458 C   0  0  1  0  0  0  0  0  0  0  0  0
    3.7839   -1.9552    0.6304 C   0  0  2  0  0  0  0  0  0  0  0  0
    3.2729   -0.6333    1.2550 C   0  0  0  0  0  0  0  0  0  0  0  0
    3.4145   -1.8575   -0.9039 C   0  0  0  0  0  0  0  0  0  0  0  0
    4.1778   -2.5171   -1.9604 O   0  0  0  0  0  0  0  0  0  0  0  0
    5.4937   -2.9574   -1.9503 C   0  0  0  0  0  0  0  0  0  0  0  0
    6.0326   -3.4319   -2.9437 O   0  0  0  0  0  0  0  0  0  0  0  0
    6.2724   -2.8363   -0.6228 C   0  0  1  0  0  0  0  0  0  0  0  0
    5.4226   -2.0093    0.4444 C   0  0  2  0  0  0  0  0  0  0  0  0
    6.1714   -0.6865    0.7784 C   0  0  0  0  0  0  0  0  0  0  0  0
    4.8190   -9.0788    1.4079 H   0  0  0  0  0  0  0  0  0  0  0  0
    3.0897   -8.7228    0.8960 H   0  0  0  0  0  0  0  0  0  0  0  0
    5.0269   -4.9255   -0.1346 H   0  0  0  0  0  0  0  0  0  0  0  0
    4.0355   -4.0296   -0.2201 H   0  0  0  0  0  0  0  0  0  0  0  0
    5.9240   -1.7155    2.7068 H   0  0  0  0  0  0  0  0  0  0  0  0
    8.1808   -4.0503   -0.1964 H   0  0  0  0  0  0  0  0  0  0  0  0
    7.3547   -6.3560    0.2199 H   0  0  0  0  0  0  0  0  0  0  0  0
    7.7013   -5.6058    1.6813 H   0  0  0  0  0  0  0  0  0  0  0  0
    5.5538   -6.6392    0.7199 H   0  0  0  0  0  0  0  0  0  0  0  0
    5.5885   -4.6994    3.0677 H   0  0  0  0  0  0  0  0  0  0  0  0
    3.0582   -6.1512    3.6683 H   0  0  0  0  0  0  0  0  0  0  0  0
    4.4132   -5.8007    4.6882 H   0  0  0  0  0  0  0  0  0  0  0  0
    2.3730   -4.2509    4.8965 H   0  0  0  0  0  0  0  0  0  0  0  0
    4.8126   -3.0386    4.4063 H   0  0  0  0  0  0  0  0  0  0  0  0
    1.4841   -3.4540    3.0055 H   0  0  0  0  0  0  0  0  0  0  0  0
    2.4788   -2.1035    3.3658 H   0  0  0  0  0  0  0  0  0  0  0  0
    2.1152   -3.4057    0.9819 H   0  0  0  0  0  0  0  0  0  0  0  0
    3.5931    0.2492    0.6989 H   0  0  0  0  0  0  0  0  0  0  0  0
    3.6120   -0.5088    2.2844 H   0  0  0  0  0  0  0  0  0  0  0  0
    2.1826   -0.6269    1.2671 H   0  0  0  0  0  0  0  0  0  0  0  0
    2.4087   -2.2565   -1.0221 H   0  0  0  0  0  0  0  0  0  0  0  0
    3.3729   -0.8038   -1.1862 H   0  0  0  0  0  0  0  0  0  0  0  0
    7.0668   -2.1681   -0.9380 H   0  0  0  0  0  0  0  0  0  0  0  0
    6.0185    0.0433   -0.0128 H   0  0  0  0  0  0  0  0  0  0  0  0
    7.2463   -0.8401    0.8747 H   0  0  0  0  0  0  0  0  0  0  0  0
    5.8370   -0.2185    1.7026 H   0  0  0  0  0  0  0  0  0  0  0  0
  1  2  2  0
  1 28  1  0
  1 29  1  0
  2 12  1  0
  2  3  1  0
  3  4  2  0
  5  3  1  6
  5 13  1  0
  5 18  1  0
  5  6  1  0
  6  7  1  0
  6 30  1  0
  6 31  1  0
  7 26  1  0
  7  8  1  1
  7  9  1  0
  8 32  1  0
  9 10  1  0
 10 25  1  0
 10 11  1  0
 10 33  1  6
 11 12  1  0
 11 34  1  0
 11 35  1  0
 12 13  1  0
 12 36  1  1
 13 14  1  0
 13 37  1  1
 14 15  1  0
 14 38  1  0
 14 39  1  0
 15 16  1  0
 15 17  1  0
 15 40  1  1
 16 41  1  0
 17 18  1  0
 17 42  1  0
 17 43  1  0
 18 19  1  0
 18 44  1  6
 19 26  1  0
 19 20  1  1
 19 21  1  0
 20 45  1  0
 20 46  1  0
 20 47  1  0
 21 22  1  0
 21 48  1  0
 21 49  1  0
 22 23  1  0
 23 24  2  0
 23 25  1  0
 25 26  1  0
 25 50  1  6
 26 27  1  1
 27 51  1  0
 27 52  1  0
 27 53  1  0
M  END
>  <i_m_ct_stereo_status>  (85) 
1

>  <s_m_source_file>  (85) 
/var/tmp/pbs.5076255.sched01/tmp9s019jnz/08u7fdliu.sdf

>  <i_m_source_file_index>  (85) 
36

>  <i_lp_mmshare_version>  (85) 
48012

>  <i_f3d_flags>  (85) 
0

>  <s_epik_input>  (85) 
Tz1DMUMoPVtDSDJdKVtDQEBIXShbQ0BIXTJDMTM0KVtDSDJdW0NASF01W0NAQEhdNltDQF0oW0NIM10pKFtDQF0oTzUpKFtDSDJdMylbT0hdKVtDQEBdKFtDSDNdKShbQ0gyXU9DNj1PKVtDQEBIXTRbQ0gyXVtDQEBIXShbQ0gyXTIpW09IXQ==

>  <s_epik_cmdline>  (85) 
J2VwaWtfcHl0aG9uJywgJy1waHQnLCAnMi4wJywgJy1waCcsICc3LjAnLCAnLXRuJywgJzgnLCAnLW1hJywgJzIwMCcsICctaW1hZScsICc8aW5maWxlLm1hZT4nLCAnLW9tYWUnLCAnPG91dGZpbGUubWFlPic=

>  <r_lp_tautomer_probability>  (85) 
1

>  <r_epik_Ionization_Penalty>  (85) 
3.319e-06

>  <r_epik_Ionization_Penalty_Charging>  (85) 
0

>  <r_epik_Ionization_Penalty_Neutral>  (85) 
3.319e-06

>  <r_epik_State_Penalty>  (85) 
-0

>  <r_epik_Charging_Adjusted_Penalty>  (85) 
0

>  <i_epik_Tot_Q>  (85) 
0

>  <i_epik_Tot_abs_Q>  (85) 
0

>  <s_epik_Chemistry_Notes>  (85) 
This compound has an ester and may undergo hydrolysis at high or low pH.

>  <s_lp_Force_Field>  (85) 
OPLS3e

>  <r_lp_Energy>  (85) 
414.396

>  <b_lp_Chiralities_Consistent>  (85) 
1

>  <s_lp_Variant>  (85) 
25:0-1

>  <s_i_glide_gridfile>  (85) 
pfpi4k_grid

>  <i_i_glide_lignum>  (85) 
36

>  <i_i_glide_rotatable_bonds>  (85) 
2

>  <r_i_docking_score>  (85) 
-3.79896

>  <r_i_glide_ligand_efficiency>  (85) 
-0.140702

>  <r_i_glide_ligand_efficiency_sa>  (85) 
-0.422107

>  <r_i_glide_ligand_efficiency_ln>  (85) 
-0.884335

>  <r_i_glide_gscore>  (85) 
-3.79896

>  <r_i_glide_lipo>  (85) 
-0.544871

>  <r_i_glide_hbond>  (85) 
0

>  <r_i_glide_metal>  (85) 
-0

>  <r_i_glide_rewards>  (85) 
-1.58766

>  <r_i_glide_evdw>  (85) 
-27.4291

>  <r_i_glide_ecoul>  (85) 
-1.96651

>  <r_i_glide_erotb>  (85) 
0

>  <r_i_glide_esite>  (85) 
0

>  <r_i_glide_emodel>  (85) 
-40.9376

>  <r_i_glide_energy>  (85) 
-29.3956

>  <r_i_glide_einternal>  (85) 
0.144117

>  <r_i_glide_intrahb_reward>  (85) 
-0.5

>  <i_i_glide_confnum>  (85) 
1

>  <i_i_glide_posenum>  (85) 
20

>  <r_i_glide_eff_state_penalty>  (85) 
0

>  <ligand_id>  (85) 
25

>  <original_smiles>  (85) 
C=C1C(=O)C23CC4(O)OC5CC1C2CC(O)CC3C1(C)COC(=O)C5C41C

>  <smiles>  (85) 
[H]OC1([H])C([H])([H])C2([H])C3([H])C(=C([H])[H])C(=O)C24C([H])([H])C2(O[H])OC([H])(C3([H])[H])C3([H])C(=O)OC([H])([H])C(C([H])([H])[H])(C4([H])C1([H])[H])C23C([H])([H])[H]

$$$$
25:0:1
     RDKit          3D

 53 58  0  0  1  0  0  0  0  0999 V2000
    3.3275   -8.1526    1.2851 C   0  0  0  0  0  0  0  0  0  0  0  0
    3.6978   -6.8580    1.3086 C   0  0  0  0  0  0  0  0  0  0  0  0
    2.7171   -5.7534    1.0360 C   0  0  0  0  0  0  0  0  0  0  0  0
    1.5782   -5.8304    0.5749 O   0  0  0  0  0  0  0  0  0  0  0  0
    3.3889   -4.4578    1.5126 C   0  0  2  0  0  0  0  0  0  0  0  0
    4.3581   -4.1487    0.6137 C   0  0  0  0  0  0  0  0  0  0  0  0
    5.4543   -3.0482    1.3374 C   0  0  1  0  0  0  0  0  0  0  0  0
    5.1883   -2.4276    2.5970 O   0  0  0  0  0  0  0  0  0  0  0  0
    6.7551   -3.5066    1.3635 O   0  0  0  0  0  0  0  0  0  0  0  0
    6.8538   -4.2662    0.2342 C   0  0  1  0  0  0  0  0  0  0  0  0
    6.4481   -5.7354    1.0524 C   0  0  0  0  0  0  0  0  0  0  0  0
    5.0384   -6.2850    1.8639 C   0  0  1  0  0  0  0  0  0  0  0  0
    4.2805   -5.0784    2.6181 C   0  0  2  0  0  0  0  0  0  0  0  0
    3.2894   -5.1129    3.8111 C   0  0  0  0  0  0  0  0  0  0  0  0
    2.7442   -3.6543    4.0857 C   0  0  1  0  0  0  0  0  0  0  0  0
    3.6806   -2.9438    4.8719 O   0  0  0  0  0  0  0  0  0  0  0  0
    2.2383   -2.7469    2.8727 C   0  0  0  0  0  0  0  0  0  0  0  0
    2.7912   -2.9726    1.4088 C   0  0  1  0  0  0  0  0  0  0  0  0
    3.7087   -1.7890    0.4848 C   0  0  2  0  0  0  0  0  0  0  0  0
    3.3106   -0.4006    1.0463 C   0  0  0  0  0  0  0  0  0  0  0  0
    3.4240   -1.7072   -1.0687 C   0  0  0  0  0  0  0  0  0  0  0  0
    4.1550   -2.4747   -2.0565 O   0  0  0  0  0  0  0  0  0  0  0  0
    5.3974   -3.0551   -1.9695 C   0  0  0  0  0  0  0  0  0  0  0  0
    5.8985   -3.6256   -2.9261 O   0  0  0  0  0  0  0  0  0  0  0  0
    6.1451   -2.9593   -0.6165 C   0  0  1  0  0  0  0  0  0  0  0  0
    5.3411   -2.0142    0.3843 C   0  0  2  0  0  0  0  0  0  0  0  0
    6.2014   -0.7583    0.6960 C   0  0  0  0  0  0  0  0  0  0  0  0
    3.9974   -8.9447    1.5776 H   0  0  0  0  0  0  0  0  0  0  0  0
    2.3329   -8.4431    0.9764 H   0  0  0  0  0  0  0  0  0  0  0  0
    4.6799   -4.8937   -0.1126 H   0  0  0  0  0  0  0  0  0  0  0  0
    3.7873   -3.9077   -0.2750 H   0  0  0  0  0  0  0  0  0  0  0  0
    4.4317   -1.8755    2.4696 H   0  0  0  0  0  0  0  0  0  0  0  0
    7.9028   -4.3360   -0.0569 H   0  0  0  0  0  0  0  0  0  0  0  0
    6.8361   -6.5376    0.4206 H   0  0  0  0  0  0  0  0  0  0  0  0
    7.1885   -5.7577    1.8558 H   0  0  0  0  0  0  0  0  0  0  0  0
    4.9933   -6.6162    0.8265 H   0  0  0  0  0  0  0  0  0  0  0  0
    5.1195   -4.5992    3.0998 H   0  0  0  0  0  0  0  0  0  0  0  0
    2.4353   -5.7696    3.6340 H   0  0  0  0  0  0  0  0  0  0  0  0
    3.7740   -5.5103    4.7020 H   0  0  0  0  0  0  0  0  0  0  0  0
    1.8928   -3.7620    4.7586 H   0  0  0  0  0  0  0  0  0  0  0  0
    4.4761   -2.8281    4.3669 H   0  0  0  0  0  0  0  0  0  0  0  0
    1.1698   -2.9592    2.8065 H   0  0  0  0  0  0  0  0  0  0  0  0
    2.2707   -1.6980    3.1614 H   0  0  0  0  0  0  0  0  0  0  0  0
    1.8859   -3.0449    0.8076 H   0  0  0  0  0  0  0  0  0  0  0  0
    3.7483    0.4223    0.4802 H   0  0  0  0  0  0  0  0  0  0  0  0
    3.6091   -0.2630    2.0861 H   0  0  0  0  0  0  0  0  0  0  0  0
    2.2260   -0.2849    0.9959 H   0  0  0  0  0  0  0  0  0  0  0  0
    2.4000   -2.0171   -1.2574 H   0  0  0  0  0  0  0  0  0  0  0  0
    3.5010   -0.6672   -1.3902 H   0  0  0  0  0  0  0  0  0  0  0  0
    7.0144   -2.3827   -0.9246 H   0  0  0  0  0  0  0  0  0  0  0  0
    6.1521   -0.0512   -0.1298 H   0  0  0  0  0  0  0  0  0  0  0  0
    7.2530   -1.0113    0.8520 H   0  0  0  0  0  0  0  0  0  0  0  0
    5.8775   -0.2288    1.5901 H   0  0  0  0  0  0  0  0  0  0  0  0
  1  2  2  0
  1 28  1  0
  1 29  1  0
  2 12  1  0
  2  3  1  0
  3  4  2  0
  5  3  1  6
  5 13  1  0
  5 18  1  0
  5  6  1  0
  6  7  1  0
  6 30  1  0
  6 31  1  0
  7 26  1  0
  7  8  1  1
  7  9  1  0
  8 32  1  0
  9 10  1  0
 10 25  1  0
 10 11  1  0
 10 33  1  6
 11 12  1  0
 11 34  1  0
 11 35  1  0
 12 13  1  0
 12 36  1  1
 13 14  1  0
 13 37  1  1
 14 15  1  0
 14 38  1  0
 14 39  1  0
 15 16  1  0
 15 17  1  0
 15 40  1  1
 16 41  1  0
 17 18  1  0
 17 42  1  0
 17 43  1  0
 18 19  1  0
 18 44  1  6
 19 26  1  0
 19 20  1  1
 19 21  1  0
 20 45  1  0
 20 46  1  0
 20 47  1  0
 21 22  1  0
 21 48  1  0
 21 49  1  0
 22 23  1  0
 23 24  2  0
 23 25  1  0
 25 26  1  0
 25 50  1  6
 26 27  1  1
 27 51  1  0
 27 52  1  0
 27 53  1  0
M  END
>  <i_m_ct_stereo_status>  (86) 
1

>  <s_m_source_file>  (86) 
/var/tmp/pbs.5076255.sched01/tmp9s019jnz/08u7fdliu.sdf

>  <i_m_source_file_index>  (86) 
36

>  <i_lp_mmshare_version>  (86) 
48012

>  <i_f3d_flags>  (86) 
0

>  <s_epik_input>  (86) 
Tz1DMUMoPVtDSDJdKVtDQEBIXShbQ0BIXTJDMTM0KVtDSDJdW0NASF01W0NAQEhdNltDQF0oW0NIM10pKFtDQF0oTzUpKFtDSDJdMylbT0hdKVtDQEBdKFtDSDNdKShbQ0gyXU9DNj1PKVtDQEBIXTRbQ0gyXVtDQEBIXShbQ0gyXTIpW09IXQ==

>  <s_epik_cmdline>  (86) 
J2VwaWtfcHl0aG9uJywgJy1waHQnLCAnMi4wJywgJy1waCcsICc3LjAnLCAnLXRuJywgJzgnLCAnLW1hJywgJzIwMCcsICctaW1hZScsICc8aW5maWxlLm1hZT4nLCAnLW9tYWUnLCAnPG91dGZpbGUubWFlPic=

>  <r_lp_tautomer_probability>  (86) 
1

>  <r_epik_Ionization_Penalty>  (86) 
3.319e-06

>  <r_epik_Ionization_Penalty_Charging>  (86) 
0

>  <r_epik_Ionization_Penalty_Neutral>  (86) 
3.319e-06

>  <r_epik_State_Penalty>  (86) 
-0

>  <r_epik_Charging_Adjusted_Penalty>  (86) 
0

>  <i_epik_Tot_Q>  (86) 
0

>  <i_epik_Tot_abs_Q>  (86) 
0

>  <s_epik_Chemistry_Notes>  (86) 
This compound has an ester and may undergo hydrolysis at high or low pH.

>  <s_lp_Force_Field>  (86) 
OPLS3e

>  <r_lp_Energy>  (86) 
414.396

>  <b_lp_Chiralities_Consistent>  (86) 
1

>  <s_lp_Variant>  (86) 
25:0-1

>  <s_i_glide_gridfile>  (86) 
pfpi4k_grid

>  <i_i_glide_lignum>  (86) 
36

>  <i_i_glide_rotatable_bonds>  (86) 
2

>  <r_i_docking_score>  (86) 
-3.60297

>  <r_i_glide_ligand_efficiency>  (86) 
-0.133443

>  <r_i_glide_ligand_efficiency_sa>  (86) 
-0.40033

>  <r_i_glide_ligand_efficiency_ln>  (86) 
-0.838712

>  <r_i_glide_gscore>  (86) 
-3.60297

>  <r_i_glide_lipo>  (86) 
-0.504283

>  <r_i_glide_hbond>  (86) 
-0.145786

>  <r_i_glide_metal>  (86) 
-0

>  <r_i_glide_rewards>  (86) 
-1.08303

>  <r_i_glide_evdw>  (86) 
-24.703

>  <r_i_glide_ecoul>  (86) 
-4.10791

>  <r_i_glide_erotb>  (86) 
0

>  <r_i_glide_esite>  (86) 
-0.0185322

>  <r_i_glide_emodel>  (86) 
-34.249

>  <r_i_glide_energy>  (86) 
-28.8109

>  <r_i_glide_einternal>  (86) 
1.59979

>  <r_i_glide_intrahb_reward>  (86) 
-0

>  <i_i_glide_confnum>  (86) 
1

>  <i_i_glide_posenum>  (86) 
13

>  <r_i_glide_eff_state_penalty>  (86) 
0

>  <ligand_id>  (86) 
25

>  <original_smiles>  (86) 
C=C1C(=O)C23CC4(O)OC5CC1C2CC(O)CC3C1(C)COC(=O)C5C41C

>  <smiles>  (86) 
[H]OC1([H])C([H])([H])C2([H])C3([H])C(=C([H])[H])C(=O)C24C([H])([H])C2(O[H])OC([H])(C3([H])[H])C3([H])C(=O)OC([H])([H])C(C([H])([H])[H])(C4([H])C1([H])[H])C23C([H])([H])[H]

$$$$
25:0:2
     RDKit          3D

 53 58  0  0  1  0  0  0  0  0999 V2000
    3.9718   -8.3801    1.1667 C   0  0  0  0  0  0  0  0  0  0  0  0
    4.2375   -7.0555    1.2350 C   0  0  0  0  0  0  0  0  0  0  0  0
    3.1575   -6.0187    1.0709 C   0  0  0  0  0  0  0  0  0  0  0  0
    2.0010   -6.1438    0.6731 O   0  0  0  0  0  0  0  0  0  0  0  0
    3.7552   -4.7016    1.5652 C   0  0  2  0  0  0  0  0  0  0  0  0
    4.6393   -4.2825    0.6262 C   0  0  0  0  0  0  0  0  0  0  0  0
    5.6712   -3.1197    1.3393 C   0  0  1  0  0  0  0  0  0  0  0  0
    5.4267   -2.5710    2.6327 O   0  0  0  0  0  0  0  0  0  0  0  0
    7.0077   -3.4685    1.2834 O   0  0  0  0  0  0  0  0  0  0  0  0
    7.1138   -4.1731    0.1246 C   0  0  1  0  0  0  0  0  0  0  0  0
    6.8735   -5.7007    0.8956 C   0  0  0  0  0  0  0  0  0  0  0  0
    5.5561   -6.3977    1.7528 C   0  0  1  0  0  0  0  0  0  0  0  0
    4.7447   -5.2887    2.5979 C   0  0  2  0  0  0  0  0  0  0  0  0
    3.8216   -5.4567    3.8340 C   0  0  0  0  0  0  0  0  0  0  0  0
    3.1659   -4.0657    4.2007 C   0  0  1  0  0  0  0  0  0  0  0  0
    4.0676   -3.3153    4.9912 O   0  0  0  0  0  0  0  0  0  0  0  0
    2.5298   -3.1558    3.0503 C   0  0  0  0  0  0  0  0  0  0  0  0
    3.0222   -3.2763    1.5522 C   0  0  1  0  0  0  0  0  0  0  0  0
    3.7879   -1.9825    0.6342 C   0  0  2  0  0  0  0  0  0  0  0  0
    3.2984   -0.6554    1.2637 C   0  0  0  0  0  0  0  0  0  0  0  0
    3.4165   -1.8748   -0.8946 C   0  0  0  0  0  0  0  0  0  0  0  0
    4.1562   -2.5458   -1.9538 O   0  0  0  0  0  0  0  0  0  0  0  0
    5.4654   -3.0001   -1.9538 C   0  0  0  0  0  0  0  0  0  0  0  0
    5.9939   -3.4375   -2.9668 O   0  0  0  0  0  0  0  0  0  0  0  0
    6.2571   -2.8994   -0.6321 C   0  0  1  0  0  0  0  0  0  0  0  0
    5.4276   -2.0601    0.4404 C   0  0  2  0  0  0  0  0  0  0  0  0
    6.1953   -0.7496    0.7712 C   0  0  0  0  0  0  0  0  0  0  0  0
    4.7209   -9.1236    1.3945 H   0  0  0  0  0  0  0  0  0  0  0  0
    2.9942   -8.7412    0.8939 H   0  0  0  0  0  0  0  0  0  0  0  0
    4.9821   -4.9712   -0.1438 H   0  0  0  0  0  0  0  0  0  0  0  0
    4.0015   -4.0605   -0.2211 H   0  0  0  0  0  0  0  0  0  0  0  0
    5.9427   -1.7874    2.7132 H   0  0  0  0  0  0  0  0  0  0  0  0
    8.1488   -4.1411   -0.2127 H   0  0  0  0  0  0  0  0  0  0  0  0
    7.2929   -6.4319    0.1970 H   0  0  0  0  0  0  0  0  0  0  0  0
    7.6547   -5.6962    1.6603 H   0  0  0  0  0  0  0  0  0  0  0  0
    5.4874   -6.6904    0.7078 H   0  0  0  0  0  0  0  0  0  0  0  0
    5.5596   -4.7520    3.0610 H   0  0  0  0  0  0  0  0  0  0  0  0
    3.0164   -6.1752    3.6666 H   0  0  0  0  0  0  0  0  0  0  0  0
    4.3820   -5.8532    4.6803 H   0  0  0  0  0  0  0  0  0  0  0  0
    2.3564   -4.2765    4.9004 H   0  0  0  0  0  0  0  0  0  0  0  0
    4.3565   -3.8547    5.7120 H   0  0  0  0  0  0  0  0  0  0  0  0
    1.4783   -3.4514    3.0206 H   0  0  0  0  0  0  0  0  0  0  0  0
    2.4983   -2.1194    3.3796 H   0  0  0  0  0  0  0  0  0  0  0  0
    2.0979   -3.4098    0.9936 H   0  0  0  0  0  0  0  0  0  0  0  0
    3.6289    0.2237    0.7077 H   0  0  0  0  0  0  0  0  0  0  0  0
    3.6423   -0.5377    2.2920 H   0  0  0  0  0  0  0  0  0  0  0  0
    2.2078   -0.6338    1.2753 H   0  0  0  0  0  0  0  0  0  0  0  0
    2.4025   -2.2628   -1.0082 H   0  0  0  0  0  0  0  0  0  0  0  0
    3.3853   -0.8197   -1.1784 H   0  0  0  0  0  0  0  0  0  0  0  0
    7.0600   -2.2416   -0.9529 H   0  0  0  0  0  0  0  0  0  0  0  0
    6.0474   -0.0152   -0.0166 H   0  0  0  0  0  0  0  0  0  0  0  0
    7.2708   -0.9200    0.8619 H   0  0  0  0  0  0  0  0  0  0  0  0
    5.8764   -0.2772    1.6991 H   0  0  0  0  0  0  0  0  0  0  0  0
  1  2  2  0
  1 28  1  0
  1 29  1  0
  2 12  1  0
  2  3  1  0
  3  4  2  0
  5  3  1  6
  5 13  1  0
  5 18  1  0
  5  6  1  0
  6  7  1  0
  6 30  1  0
  6 31  1  0
  7 26  1  0
  7  8  1  1
  7  9  1  0
  8 32  1  0
  9 10  1  0
 10 25  1  0
 10 11  1  0
 10 33  1  6
 11 12  1  0
 11 34  1  0
 11 35  1  0
 12 13  1  0
 12 36  1  1
 13 14  1  0
 13 37  1  1
 14 15  1  0
 14 38  1  0
 14 39  1  0
 15 16  1  0
 15 17  1  0
 15 40  1  1
 16 41  1  0
 17 18  1  0
 17 42  1  0
 17 43  1  0
 18 19  1  0
 18 44  1  6
 19 26  1  0
 19 20  1  1
 19 21  1  0
 20 45  1  0
 20 46  1  0
 20 47  1  0
 21 22  1  0
 21 48  1  0
 21 49  1  0
 22 23  1  0
 23 24  2  0
 23 25  1  0
 25 26  1  0
 25 50  1  6
 26 27  1  1
 27 51  1  0
 27 52  1  0
 27 53  1  0
M  END
>  <i_m_ct_stereo_status>  (87) 
1

>  <s_m_source_file>  (87) 
/var/tmp/pbs.5076255.sched01/tmp9s019jnz/08u7fdliu.sdf

>  <i_m_source_file_index>  (87) 
36

>  <i_lp_mmshare_version>  (87) 
48012

>  <i_f3d_flags>  (87) 
0

>  <s_epik_input>  (87) 
Tz1DMUMoPVtDSDJdKVtDQEBIXShbQ0BIXTJDMTM0KVtDSDJdW0NASF01W0NAQEhdNltDQF0oW0NIM10pKFtDQF0oTzUpKFtDSDJdMylbT0hdKVtDQEBdKFtDSDNdKShbQ0gyXU9DNj1PKVtDQEBIXTRbQ0gyXVtDQEBIXShbQ0gyXTIpW09IXQ==

>  <s_epik_cmdline>  (87) 
J2VwaWtfcHl0aG9uJywgJy1waHQnLCAnMi4wJywgJy1waCcsICc3LjAnLCAnLXRuJywgJzgnLCAnLW1hJywgJzIwMCcsICctaW1hZScsICc8aW5maWxlLm1hZT4nLCAnLW9tYWUnLCAnPG91dGZpbGUubWFlPic=

>  <r_lp_tautomer_probability>  (87) 
1

>  <r_epik_Ionization_Penalty>  (87) 
3.319e-06

>  <r_epik_Ionization_Penalty_Charging>  (87) 
0

>  <r_epik_Ionization_Penalty_Neutral>  (87) 
3.319e-06

>  <r_epik_State_Penalty>  (87) 
-0

>  <r_epik_Charging_Adjusted_Penalty>  (87) 
0

>  <i_epik_Tot_Q>  (87) 
0

>  <i_epik_Tot_abs_Q>  (87) 
0

>  <s_epik_Chemistry_Notes>  (87) 
This compound has an ester and may undergo hydrolysis at high or low pH.

>  <s_lp_Force_Field>  (87) 
OPLS3e

>  <r_lp_Energy>  (87) 
414.396

>  <b_lp_Chiralities_Consistent>  (87) 
1

>  <s_lp_Variant>  (87) 
25:0-1

>  <s_i_glide_gridfile>  (87) 
pfpi4k_grid

>  <i_i_glide_lignum>  (87) 
36

>  <i_i_glide_rotatable_bonds>  (87) 
2

>  <r_i_docking_score>  (87) 
-3.31906

>  <r_i_glide_ligand_efficiency>  (87) 
-0.122928

>  <r_i_glide_ligand_efficiency_sa>  (87) 
-0.368785

>  <r_i_glide_ligand_efficiency_ln>  (87) 
-0.772623

>  <r_i_glide_gscore>  (87) 
-3.31906

>  <r_i_glide_lipo>  (87) 
-0.54593

>  <r_i_glide_hbond>  (87) 
0

>  <r_i_glide_metal>  (87) 
-0

>  <r_i_glide_rewards>  (87) 
-1.09381

>  <r_i_glide_evdw>  (87) 
-27.5309

>  <r_i_glide_ecoul>  (87) 
-2.01851

>  <r_i_glide_erotb>  (87) 
0

>  <r_i_glide_esite>  (87) 
0

>  <r_i_glide_emodel>  (87) 
-35.0345

>  <r_i_glide_energy>  (87) 
-29.5494

>  <r_i_glide_einternal>  (87) 
0.486829

>  <r_i_glide_intrahb_reward>  (87) 
-0

>  <i_i_glide_confnum>  (87) 
2

>  <i_i_glide_posenum>  (87) 
9

>  <r_i_glide_eff_state_penalty>  (87) 
0

>  <ligand_id>  (87) 
25

>  <original_smiles>  (87) 
C=C1C(=O)C23CC4(O)OC5CC1C2CC(O)CC3C1(C)COC(=O)C5C41C

>  <smiles>  (87) 
[H]OC1([H])C([H])([H])C2([H])C3([H])C(=C([H])[H])C(=O)C24C([H])([H])C2(O[H])OC([H])(C3([H])[H])C3([H])C(=O)OC([H])([H])C(C([H])([H])[H])(C4([H])C1([H])[H])C23C([H])([H])[H]

$$$$
25:1:0
     RDKit          3D

 53 58  0  0  1  0  0  0  0  0999 V2000
   -2.6742    2.9399    3.0851 C   0  0  0  0  0  0  0  0  0  0  0  0
   -1.4103    2.7760    3.4999 C   0  0  0  0  0  0  0  0  0  0  0  0
   -0.8389    3.4815    4.6979 C   0  0  0  0  0  0  0  0  0  0  0  0
   -1.2888    4.4205    5.3532 O   0  0  0  0  0  0  0  0  0  0  0  0
    0.4578    2.7185    4.9542 C   0  0  1  0  0  0  0  0  0  0  0  0
   -0.3424    1.6421    5.8153 C   0  0  0  0  0  0  0  0  0  0  0  0
    0.3280    0.3306    6.1347 C   0  0  1  0  0  0  0  0  0  0  0  0
   -0.2488   -0.1597    7.3278 O   0  0  0  0  0  0  0  0  0  0  0  0
    0.0022   -0.5101    5.0741 O   0  0  0  0  0  0  0  0  0  0  0  0
    0.8738   -0.2708    3.9926 C   0  0  1  0  0  0  0  0  0  0  0  0
    0.1674    0.5760    2.8239 C   0  0  0  0  0  0  0  0  0  0  0  0
   -0.2312    2.1087    2.7443 C   0  0  2  0  0  0  0  0  0  0  0  0
    0.8113    2.9041    3.4014 C   0  0  2  0  0  0  0  0  0  0  0  0
    2.2396    3.1108    2.8322 C   0  0  0  0  0  0  0  0  0  0  0  0
    3.0802    4.0647    3.7518 C   0  0  1  0  0  0  0  0  0  0  0  0
    3.2719    5.3181    3.1334 O   0  0  0  0  0  0  0  0  0  0  0  0
    2.5147    4.2707    5.1987 C   0  0  0  0  0  0  0  0  0  0  0  0
    1.7704    3.0072    5.6918 C   0  0  1  0  0  0  0  0  0  0  0  0
    2.4226    1.8685    6.5713 C   0  0  2  0  0  0  0  0  0  0  0  0
    2.2536    2.2802    8.0489 C   0  0  0  0  0  0  0  0  0  0  0  0
    3.9590    1.7255    6.2886 C   0  0  0  0  0  0  0  0  0  0  0  0
    4.3231    1.2044    4.9917 O   0  0  0  0  0  0  0  0  0  0  0  0
    3.5646    0.3415    4.2304 C   0  0  0  0  0  0  0  0  0  0  0  0
    3.9312   -0.0782    3.1362 O   0  0  0  0  0  0  0  0  0  0  0  0
    2.2105   -0.0857    4.8145 C   0  0  1  0  0  0  0  0  0  0  0  0
    1.8736    0.4014    6.2392 C   0  0  2  0  0  0  0  0  0  0  0  0
    2.4023   -0.6788    7.2394 C   0  0  0  0  0  0  0  0  0  0  0  0
   -3.0218    2.4865    2.1691 H   0  0  0  0  0  0  0  0  0  0  0  0
   -3.3857    3.5069    3.6625 H   0  0  0  0  0  0  0  0  0  0  0  0
   -0.5114    2.1202    6.7843 H   0  0  0  0  0  0  0  0  0  0  0  0
   -1.3521    1.3457    5.5027 H   0  0  0  0  0  0  0  0  0  0  0  0
    0.2151    0.2451    8.0427 H   0  0  0  0  0  0  0  0  0  0  0  0
    0.9746   -1.2492    3.5206 H   0  0  0  0  0  0  0  0  0  0  0  0
    0.8007    0.4151    1.9497 H   0  0  0  0  0  0  0  0  0  0  0  0
   -0.7541    0.0484    2.5823 H   0  0  0  0  0  0  0  0  0  0  0  0
   -0.3279    2.3741    1.6931 H   0  0  0  0  0  0  0  0  0  0  0  0
    0.6072    3.9393    3.0697 H   0  0  0  0  0  0  0  0  0  0  0  0
    2.7344    2.1620    2.6880 H   0  0  0  0  0  0  0  0  0  0  0  0
    2.1966    3.5143    1.8182 H   0  0  0  0  0  0  0  0  0  0  0  0
    4.0666    3.6153    3.8539 H   0  0  0  0  0  0  0  0  0  0  0  0
    3.6668    5.1742    2.2829 H   0  0  0  0  0  0  0  0  0  0  0  0
    3.3099    4.5638    5.8827 H   0  0  0  0  0  0  0  0  0  0  0  0
    1.8082    5.1009    5.1892 H   0  0  0  0  0  0  0  0  0  0  0  0
    2.2662    2.3970    4.9965 H   0  0  0  0  0  0  0  0  0  0  0  0
    2.8176    1.6445    8.7292 H   0  0  0  0  0  0  0  0  0  0  0  0
    1.2115    2.2742    8.3638 H   0  0  0  0  0  0  0  0  0  0  0  0
    2.6258    3.2946    8.1967 H   0  0  0  0  0  0  0  0  0  0  0  0
    4.4369    2.6986    6.3964 H   0  0  0  0  0  0  0  0  0  0  0  0
    4.4212    1.1050    7.0559 H   0  0  0  0  0  0  0  0  0  0  0  0
    2.4671   -1.1339    4.9615 H   0  0  0  0  0  0  0  0  0  0  0  0
    3.4816   -0.8125    7.1695 H   0  0  0  0  0  0  0  0  0  0  0  0
    1.9662   -1.6584    7.0354 H   0  0  0  0  0  0  0  0  0  0  0  0
    2.1724   -0.4472    8.2786 H   0  0  0  0  0  0  0  0  0  0  0  0
  1  2  2  0
  1 28  1  0
  1 29  1  0
  2 12  1  0
  2  3  1  0
  3  4  2  0
  5  3  1  1
  5 13  1  0
  5 18  1  0
  5  6  1  0
  6  7  1  0
  6 30  1  0
  6 31  1  0
  7 26  1  0
  7  8  1  1
  7  9  1  0
  8 32  1  0
  9 10  1  0
 10 25  1  0
 10 11  1  0
 10 33  1  6
 11 12  1  0
 11 34  1  0
 11 35  1  0
 12 13  1  0
 12 36  1  6
 13 14  1  0
 13 37  1  6
 14 15  1  0
 14 38  1  0
 14 39  1  0
 15 16  1  0
 15 17  1  0
 15 40  1  1
 16 41  1  0
 17 18  1  0
 17 42  1  0
 17 43  1  0
 18 19  1  0
 18 44  1  1
 19 26  1  0
 19 20  1  1
 19 21  1  0
 20 45  1  0
 20 46  1  0
 20 47  1  0
 21 22  1  0
 21 48  1  0
 21 49  1  0
 22 23  1  0
 23 24  2  0
 23 25  1  0
 25 26  1  0
 25 50  1  1
 26 27  1  1
 27 51  1  0
 27 52  1  0
 27 53  1  0
M  END
>  <i_m_ct_stereo_status>  (88) 
1

>  <s_m_source_file>  (88) 
/var/tmp/pbs.5076255.sched01/tmp9s019jnz/08u7fdliu.sdf

>  <i_m_source_file_index>  (88) 
37

>  <i_lp_mmshare_version>  (88) 
48012

>  <i_f3d_flags>  (88) 
0

>  <s_epik_input>  (88) 
Tz1DMUMoPVtDSDJdKVtDQEBIXShbQ0BIXTJDMTM0KVtDSDJdW0NASF01W0NAQEhdNltDQF0oW0NIM10pKFtDQF0oTzUpKFtDSDJdMylbT0hdKVtDQEBdKFtDSDNdKShbQ0gyXU9DNj1PKVtDQEBIXTRbQ0gyXVtDQEBIXShbQ0gyXTIpW09IXQ==

>  <s_epik_cmdline>  (88) 
J2VwaWtfcHl0aG9uJywgJy1waHQnLCAnMi4wJywgJy1waCcsICc3LjAnLCAnLXRuJywgJzgnLCAnLW1hJywgJzIwMCcsICctaW1hZScsICc8aW5maWxlLm1hZT4nLCAnLW9tYWUnLCAnPG91dGZpbGUubWFlPic=

>  <r_lp_tautomer_probability>  (88) 
1

>  <r_epik_Ionization_Penalty>  (88) 
3.319e-06

>  <r_epik_Ionization_Penalty_Charging>  (88) 
0

>  <r_epik_Ionization_Penalty_Neutral>  (88) 
3.319e-06

>  <r_epik_State_Penalty>  (88) 
-0

>  <r_epik_Charging_Adjusted_Penalty>  (88) 
0

>  <i_epik_Tot_Q>  (88) 
0

>  <i_epik_Tot_abs_Q>  (88) 
0

>  <s_epik_Chemistry_Notes>  (88) 
This compound has an ester and may undergo hydrolysis at high or low pH.

>  <s_lp_Force_Field>  (88) 
OPLS3e

>  <r_lp_Energy>  (88) 
195.337

>  <b_lp_Chiralities_Consistent>  (88) 
1

>  <s_lp_Variant>  (88) 
25:0-2

>  <s_i_glide_gridfile>  (88) 
pfpi4k_grid

>  <i_i_glide_lignum>  (88) 
37

>  <i_i_glide_rotatable_bonds>  (88) 
2

>  <r_i_docking_score>  (88) 
-2.71005

>  <r_i_glide_ligand_efficiency>  (88) 
-0.100372

>  <r_i_glide_ligand_efficiency_sa>  (88) 
-0.301117

>  <r_i_glide_ligand_efficiency_ln>  (88) 
-0.630855

>  <r_i_glide_gscore>  (88) 
-2.71005

>  <r_i_glide_lipo>  (88) 
0

>  <r_i_glide_hbond>  (88) 
-0.0549928

>  <r_i_glide_metal>  (88) 
-0

>  <r_i_glide_rewards>  (88) 
-0.857087

>  <r_i_glide_evdw>  (88) 
-21.0044

>  <r_i_glide_ecoul>  (88) 
-4.72215

>  <r_i_glide_erotb>  (88) 
0

>  <r_i_glide_esite>  (88) 
-0.0394266

>  <r_i_glide_emodel>  (88) 
-29.405

>  <r_i_glide_energy>  (88) 
-25.7266

>  <r_i_glide_einternal>  (88) 
2.04979

>  <r_i_glide_intrahb_reward>  (88) 
-0

>  <i_i_glide_confnum>  (88) 
1

>  <i_i_glide_posenum>  (88) 
8

>  <r_i_glide_eff_state_penalty>  (88) 
0

>  <ligand_id>  (88) 
25

>  <original_smiles>  (88) 
C=C1C(=O)C23CC4(O)OC5CC1C2CC(O)CC3C1(C)COC(=O)C5C41C

>  <smiles>  (88) 
[H]OC1([H])C([H])([H])C2([H])C3([H])C(=C([H])[H])C(=O)C24C([H])([H])C2(O[H])OC([H])(C3([H])[H])C3([H])C(=O)OC([H])([H])C(C([H])([H])[H])(C4([H])C1([H])[H])C23C([H])([H])[H]

$$$$
25:1:1
     RDKit          3D

 53 58  0  0  1  0  0  0  0  0999 V2000
   -1.9602    2.6491    9.0515 C   0  0  0  0  0  0  0  0  0  0  0  0
   -1.2665    2.6856    7.8973 C   0  0  0  0  0  0  0  0  0  0  0  0
    0.1122    3.2854    7.7719 C   0  0  0  0  0  0  0  0  0  0  0  0
    0.7494    4.0001    8.5444 O   0  0  0  0  0  0  0  0  0  0  0  0
    0.5848    2.7492    6.4198 C   0  0  1  0  0  0  0  0  0  0  0  0
    1.0986    1.4164    7.1319 C   0  0  0  0  0  0  0  0  0  0  0  0
    1.4190    0.2195    6.2736 C   0  0  1  0  0  0  0  0  0  0  0  0
    2.3630   -0.5661    6.9686 O   0  0  0  0  0  0  0  0  0  0  0  0
    0.2190   -0.4808    6.1724 O   0  0  0  0  0  0  0  0  0  0  0  0
   -0.5748    0.0887    5.1618 C   0  0  1  0  0  0  0  0  0  0  0  0
   -1.7795    0.9606    5.7688 C   0  0  0  0  0  0  0  0  0  0  0  0
   -1.7856    2.3899    6.4673 C   0  0  2  0  0  0  0  0  0  0  0  0
   -0.8054    3.2503    5.7889 C   0  0  2  0  0  0  0  0  0  0  0  0
   -0.9765    3.8057    4.3454 C   0  0  0  0  0  0  0  0  0  0  0  0
    0.2266    4.7358    3.9342 C   0  0  1  0  0  0  0  0  0  0  0  0
   -0.1873    6.0835    3.9083 O   0  0  0  0  0  0  0  0  0  0  0  0
    1.5005    4.5976    4.8455 C   0  0  0  0  0  0  0  0  0  0  0  0
    1.6476    3.1560    5.3934 C   0  0  1  0  0  0  0  0  0  0  0  0
    2.5259    2.0330    4.7147 C   0  0  2  0  0  0  0  0  0  0  0  0
    3.9521    2.1616    5.2861 C   0  0  0  0  0  0  0  0  0  0  0  0
    2.6089    2.2266    3.1594 C   0  0  0  0  0  0  0  0  0  0  0  0
    1.3913    1.9906    2.4185 O   0  0  0  0  0  0  0  0  0  0  0  0
    0.3747    1.1348    2.7903 C   0  0  0  0  0  0  0  0  0  0  0  0
   -0.6466    0.9685    2.1305 O   0  0  0  0  0  0  0  0  0  0  0  0
    0.5637    0.3794    4.1120 C   0  0  1  0  0  0  0  0  0  0  0  0
    1.9080    0.5605    4.8448 C   0  0  2  0  0  0  0  0  0  0  0  0
    2.8791   -0.5493    4.3215 C   0  0  0  0  0  0  0  0  0  0  0  0
   -2.9824    2.3026    9.0888 H   0  0  0  0  0  0  0  0  0  0  0  0
   -1.5182    2.9840    9.9779 H   0  0  0  0  0  0  0  0  0  0  0  0
    2.0474    1.6880    7.6041 H   0  0  0  0  0  0  0  0  0  0  0  0
    0.5210    0.9939    7.9630 H   0  0  0  0  0  0  0  0  0  0  0  0
    2.6190   -1.2698    6.3945 H   0  0  0  0  0  0  0  0  0  0  0  0
   -1.1125   -0.7657    4.7478 H   0  0  0  0  0  0  0  0  0  0  0  0
   -2.4562    1.0707    4.9235 H   0  0  0  0  0  0  0  0  0  0  0  0
   -2.3078    0.3011    6.4583 H   0  0  0  0  0  0  0  0  0  0  0  0
   -2.7855    2.8155    6.3871 H   0  0  0  0  0  0  0  0  0  0  0  0
   -1.0491    4.2680    6.1443 H   0  0  0  0  0  0  0  0  0  0  0  0
   -1.1000    2.9993    3.6393 H   0  0  0  0  0  0  0  0  0  0  0  0
   -1.9153    4.3497    4.2537 H   0  0  0  0  0  0  0  0  0  0  0  0
    0.5061    4.4717    2.9118 H   0  0  0  0  0  0  0  0  0  0  0  0
    0.2137    6.5116    3.1568 H   0  0  0  0  0  0  0  0  0  0  0  0
    2.3950    4.9179    4.3107 H   0  0  0  0  0  0  0  0  0  0  0  0
    1.4094    5.2701    5.6999 H   0  0  0  0  0  0  0  0  0  0  0  0
    1.0286    2.7677    4.6401 H   0  0  0  0  0  0  0  0  0  0  0  0
    4.6720    1.5411    4.7567 H   0  0  0  0  0  0  0  0  0  0  0  0
    4.0009    1.9075    6.3450 H   0  0  0  0  0  0  0  0  0  0  0  0
    4.3006    3.1906    5.1850 H   0  0  0  0  0  0  0  0  0  0  0  0
    2.9395    3.2414    2.9402 H   0  0  0  0  0  0  0  0  0  0  0  0
    3.3935    1.5867    2.7544 H   0  0  0  0  0  0  0  0  0  0  0  0
    0.6547   -0.6097    3.6660 H   0  0  0  0  0  0  0  0  0  0  0  0
    3.0636   -0.4622    3.2517 H   0  0  0  0  0  0  0  0  0  0  0  0
    2.4642   -1.5473    4.4687 H   0  0  0  0  0  0  0  0  0  0  0  0
    3.8473   -0.5343    4.8196 H   0  0  0  0  0  0  0  0  0  0  0  0
  1  2  2  0
  1 28  1  0
  1 29  1  0
  2 12  1  0
  2  3  1  0
  3  4  2  0
  5  3  1  1
  5 13  1  0
  5 18  1  0
  5  6  1  0
  6  7  1  0
  6 30  1  0
  6 31  1  0
  7 26  1  0
  7  8  1  1
  7  9  1  0
  8 32  1  0
  9 10  1  0
 10 25  1  0
 10 11  1  0
 10 33  1  6
 11 12  1  0
 11 34  1  0
 11 35  1  0
 12 13  1  0
 12 36  1  1
 13 14  1  0
 13 37  1  1
 14 15  1  0
 14 38  1  0
 14 39  1  0
 15 16  1  0
 15 17  1  0
 15 40  1  6
 16 41  1  0
 17 18  1  0
 17 42  1  0
 17 43  1  0
 18 19  1  0
 18 44  1  1
 19 26  1  0
 19 20  1  1
 19 21  1  0
 20 45  1  0
 20 46  1  0
 20 47  1  0
 21 22  1  0
 21 48  1  0
 21 49  1  0
 22 23  1  0
 23 24  2  0
 23 25  1  0
 25 26  1  0
 25 50  1  6
 26 27  1  6
 27 51  1  0
 27 52  1  0
 27 53  1  0
M  END
>  <i_m_ct_stereo_status>  (89) 
1

>  <s_m_source_file>  (89) 
/var/tmp/pbs.5076255.sched01/tmp9s019jnz/08u7fdliu.sdf

>  <i_m_source_file_index>  (89) 
37

>  <i_lp_mmshare_version>  (89) 
48012

>  <i_f3d_flags>  (89) 
0

>  <s_epik_input>  (89) 
Tz1DMUMoPVtDSDJdKVtDQEBIXShbQ0BIXTJDMTM0KVtDSDJdW0NASF01W0NAQEhdNltDQF0oW0NIM10pKFtDQF0oTzUpKFtDSDJdMylbT0hdKVtDQEBdKFtDSDNdKShbQ0gyXU9DNj1PKVtDQEBIXTRbQ0gyXVtDQEBIXShbQ0gyXTIpW09IXQ==

>  <s_epik_cmdline>  (89) 
J2VwaWtfcHl0aG9uJywgJy1waHQnLCAnMi4wJywgJy1waCcsICc3LjAnLCAnLXRuJywgJzgnLCAnLW1hJywgJzIwMCcsICctaW1hZScsICc8aW5maWxlLm1hZT4nLCAnLW9tYWUnLCAnPG91dGZpbGUubWFlPic=

>  <r_lp_tautomer_probability>  (89) 
1

>  <r_epik_Ionization_Penalty>  (89) 
3.319e-06

>  <r_epik_Ionization_Penalty_Charging>  (89) 
0

>  <r_epik_Ionization_Penalty_Neutral>  (89) 
3.319e-06

>  <r_epik_State_Penalty>  (89) 
-0

>  <r_epik_Charging_Adjusted_Penalty>  (89) 
0

>  <i_epik_Tot_Q>  (89) 
0

>  <i_epik_Tot_abs_Q>  (89) 
0

>  <s_epik_Chemistry_Notes>  (89) 
This compound has an ester and may undergo hydrolysis at high or low pH.

>  <s_lp_Force_Field>  (89) 
OPLS3e

>  <r_lp_Energy>  (89) 
195.337

>  <b_lp_Chiralities_Consistent>  (89) 
1

>  <s_lp_Variant>  (89) 
25:0-2

>  <s_i_glide_gridfile>  (89) 
pfpi4k_grid

>  <i_i_glide_lignum>  (89) 
37

>  <i_i_glide_rotatable_bonds>  (89) 
2

>  <r_i_docking_score>  (89) 
-2.70758

>  <r_i_glide_ligand_efficiency>  (89) 
-0.100281

>  <r_i_glide_ligand_efficiency_sa>  (89) 
-0.300842

>  <r_i_glide_ligand_efficiency_ln>  (89) 
-0.63028

>  <r_i_glide_gscore>  (89) 
-2.70758

>  <r_i_glide_lipo>  (89) 
-0.0225738

>  <r_i_glide_hbond>  (89) 
-0.0845822

>  <r_i_glide_metal>  (89) 
-0

>  <r_i_glide_rewards>  (89) 
-0.856176

>  <r_i_glide_evdw>  (89) 
-22.513

>  <r_i_glide_ecoul>  (89) 
-3.83668

>  <r_i_glide_erotb>  (89) 
0

>  <r_i_glide_esite>  (89) 
-0.043096

>  <r_i_glide_emodel>  (89) 
-30.3153

>  <r_i_glide_energy>  (89) 
-26.3497

>  <r_i_glide_einternal>  (89) 
1.05796

>  <r_i_glide_intrahb_reward>  (89) 
-0

>  <i_i_glide_confnum>  (89) 
2

>  <i_i_glide_posenum>  (89) 
36

>  <r_i_glide_eff_state_penalty>  (89) 
0

>  <ligand_id>  (89) 
25

>  <original_smiles>  (89) 
C=C1C(=O)C23CC4(O)OC5CC1C2CC(O)CC3C1(C)COC(=O)C5C41C

>  <smiles>  (89) 
[H]OC1([H])C([H])([H])C2([H])C3([H])C(=C([H])[H])C(=O)C24C([H])([H])C2(O[H])OC([H])(C3([H])[H])C3([H])C(=O)OC([H])([H])C(C([H])([H])[H])(C4([H])C1([H])[H])C23C([H])([H])[H]

$$$$
25:1:2
     RDKit          3D

 53 58  0  0  1  0  0  0  0  0999 V2000
   -2.7056    2.9410    3.1130 C   0  0  0  0  0  0  0  0  0  0  0  0
   -1.4475    2.7121    3.5225 C   0  0  0  0  0  0  0  0  0  0  0  0
   -0.8903    3.2405    4.8173 C   0  0  0  0  0  0  0  0  0  0  0  0
   -1.3433    4.0813    5.5930 O   0  0  0  0  0  0  0  0  0  0  0  0
    0.3984    2.4406    4.9815 C   0  0  1  0  0  0  0  0  0  0  0  0
   -0.4206    1.2559    5.6681 C   0  0  0  0  0  0  0  0  0  0  0  0
    0.2369   -0.0928    5.8000 C   0  0  1  0  0  0  0  0  0  0  0  0
   -0.3542   -0.7632    6.8877 O   0  0  0  0  0  0  0  0  0  0  0  0
   -0.0784   -0.7695    4.6265 O   0  0  0  0  0  0  0  0  0  0  0  0
    0.8145   -0.3869    3.6032 C   0  0  1  0  0  0  0  0  0  0  0  0
    0.1259    0.6189    2.5622 C   0  0  0  0  0  0  0  0  0  0  0  0
   -0.2616    2.1452    2.7041 C   0  0  2  0  0  0  0  0  0  0  0  0
    0.7779    2.8366    3.4743 C   0  0  2  0  0  0  0  0  0  0  0  0
    2.2183    3.1098    2.9548 C   0  0  0  0  0  0  0  0  0  0  0  0
    3.0577    3.9135    4.0109 C   0  0  1  0  0  0  0  0  0  0  0  0
    3.2530    5.2409    3.5773 O   0  0  0  0  0  0  0  0  0  0  0  0
    2.4675    3.9206    5.4645 C   0  0  0  0  0  0  0  0  0  0  0  0
    1.7057    2.6086    5.7638 C   0  0  1  0  0  0  0  0  0  0  0  0
    2.3335    1.3517    6.4829 C   0  0  2  0  0  0  0  0  0  0  0  0
    2.1489    1.5496    8.0004 C   0  0  0  0  0  0  0  0  0  0  0  0
    3.8724    1.2353    6.2061 C   0  0  0  0  0  0  0  0  0  0  0  0
    4.2556    0.9011    4.8533 O   0  0  0  0  0  0  0  0  0  0  0  0
    3.5026    0.1605    3.9626 C   0  0  0  0  0  0  0  0  0  0  0  0
    3.8769   -0.1086    2.8265 O   0  0  0  0  0  0  0  0  0  0  0  0
    2.1402   -0.3323    4.4622 C   0  0  1  0  0  0  0  0  0  0  0  0
    1.7834   -0.0491    5.9353 C   0  0  2  0  0  0  0  0  0  0  0  0
    2.2864   -1.2671    6.7809 C   0  0  0  0  0  0  0  0  0  0  0  0
   -3.0407    2.6136    2.1399 H   0  0  0  0  0  0  0  0  0  0  0  0
   -3.4222    3.4196    3.7549 H   0  0  0  0  0  0  0  0  0  0  0  0
   -0.5981    1.5879    6.6939 H   0  0  0  0  0  0  0  0  0  0  0  0
   -1.4275    1.0202    5.3045 H   0  0  0  0  0  0  0  0  0  0  0  0
    0.1800   -1.5269    7.0474 H   0  0  0  0  0  0  0  0  0  0  0  0
    0.9086   -1.2942    3.0003 H   0  0  0  0  0  0  0  0  0  0  0  0
    0.7722    0.5789    1.6827 H   0  0  0  0  0  0  0  0  0  0  0  0
   -0.7944    0.1409    2.2254 H   0  0  0  0  0  0  0  0  0  0  0  0
   -0.3508    2.5354    1.6962 H   0  0  0  0  0  0  0  0  0  0  0  0
    0.5757    3.9067    3.2841 H   0  0  0  0  0  0  0  0  0  0  0  0
    2.7067    2.1856    2.6821 H   0  0  0  0  0  0  0  0  0  0  0  0
    2.1917    3.6529    2.0081 H   0  0  0  0  0  0  0  0  0  0  0  0
    4.0440    3.4521    4.0597 H   0  0  0  0  0  0  0  0  0  0  0  0
    3.5944    5.2165    2.6926 H   0  0  0  0  0  0  0  0  0  0  0  0
    3.2527    4.1061    6.1973 H   0  0  0  0  0  0  0  0  0  0  0  0
    1.7656    4.7498    5.5615 H   0  0  0  0  0  0  0  0  0  0  0  0
    2.2051    2.0973    4.9918 H   0  0  0  0  0  0  0  0  0  0  0  0
    2.6986    0.8190    8.5924 H   0  0  0  0  0  0  0  0  0  0  0  0
    1.1013    1.5067    8.2983 H   0  0  0  0  0  0  0  0  0  0  0  0
    2.5270    2.5289    8.2957 H   0  0  0  0  0  0  0  0  0  0  0  0
    4.3577    2.1788    6.4527 H   0  0  0  0  0  0  0  0  0  0  0  0
    4.3206    0.5086    6.8817 H   0  0  0  0  0  0  0  0  0  0  0  0
    2.3830   -1.3948    4.4645 H   0  0  0  0  0  0  0  0  0  0  0  0
    3.3643   -1.3964    6.7106 H   0  0  0  0  0  0  0  0  0  0  0  0
    1.8560   -2.2083    6.4316 H   0  0  0  0  0  0  0  0  0  0  0  0
    2.0418   -1.1831    7.8392 H   0  0  0  0  0  0  0  0  0  0  0  0
  1  2  2  0
  1 28  1  0
  1 29  1  0
  2 12  1  0
  2  3  1  0
  3  4  2  0
  5  3  1  1
  5 13  1  0
  5 18  1  0
  5  6  1  0
  6  7  1  0
  6 30  1  0
  6 31  1  0
  7 26  1  0
  7  8  1  1
  7  9  1  0
  8 32  1  0
  9 10  1  0
 10 25  1  0
 10 11  1  0
 10 33  1  6
 11 12  1  0
 11 34  1  0
 11 35  1  0
 12 13  1  0
 12 36  1  6
 13 14  1  0
 13 37  1  1
 14 15  1  0
 14 38  1  0
 14 39  1  0
 15 16  1  0
 15 17  1  0
 15 40  1  1
 16 41  1  0
 17 18  1  0
 17 42  1  0
 17 43  1  0
 18 19  1  0
 18 44  1  1
 19 26  1  0
 19 20  1  1
 19 21  1  0
 20 45  1  0
 20 46  1  0
 20 47  1  0
 21 22  1  0
 21 48  1  0
 21 49  1  0
 22 23  1  0
 23 24  2  0
 23 25  1  0
 25 26  1  0
 25 50  1  1
 26 27  1  1
 27 51  1  0
 27 52  1  0
 27 53  1  0
M  END
>  <i_m_ct_stereo_status>  (90) 
1

>  <s_m_source_file>  (90) 
/var/tmp/pbs.5076255.sched01/tmp9s019jnz/08u7fdliu.sdf

>  <i_m_source_file_index>  (90) 
37

>  <i_lp_mmshare_version>  (90) 
48012

>  <i_f3d_flags>  (90) 
0

>  <s_epik_input>  (90) 
Tz1DMUMoPVtDSDJdKVtDQEBIXShbQ0BIXTJDMTM0KVtDSDJdW0NASF01W0NAQEhdNltDQF0oW0NIM10pKFtDQF0oTzUpKFtDSDJdMylbT0hdKVtDQEBdKFtDSDNdKShbQ0gyXU9DNj1PKVtDQEBIXTRbQ0gyXVtDQEBIXShbQ0gyXTIpW09IXQ==

>  <s_epik_cmdline>  (90) 
J2VwaWtfcHl0aG9uJywgJy1waHQnLCAnMi4wJywgJy1waCcsICc3LjAnLCAnLXRuJywgJzgnLCAnLW1hJywgJzIwMCcsICctaW1hZScsICc8aW5maWxlLm1hZT4nLCAnLW9tYWUnLCAnPG91dGZpbGUubWFlPic=

>  <r_lp_tautomer_probability>  (90) 
1

>  <r_epik_Ionization_Penalty>  (90) 
3.319e-06

>  <r_epik_Ionization_Penalty_Charging>  (90) 
0

>  <r_epik_Ionization_Penalty_Neutral>  (90) 
3.319e-06

>  <r_epik_State_Penalty>  (90) 
-0

>  <r_epik_Charging_Adjusted_Penalty>  (90) 
0

>  <i_epik_Tot_Q>  (90) 
0

>  <i_epik_Tot_abs_Q>  (90) 
0

>  <s_epik_Chemistry_Notes>  (90) 
This compound has an ester and may undergo hydrolysis at high or low pH.

>  <s_lp_Force_Field>  (90) 
OPLS3e

>  <r_lp_Energy>  (90) 
195.337

>  <b_lp_Chiralities_Consistent>  (90) 
1

>  <s_lp_Variant>  (90) 
25:0-2

>  <s_i_glide_gridfile>  (90) 
pfpi4k_grid

>  <i_i_glide_lignum>  (90) 
37

>  <i_i_glide_rotatable_bonds>  (90) 
2

>  <r_i_docking_score>  (90) 
-2.53984

>  <r_i_glide_ligand_efficiency>  (90) 
-0.0940682

>  <r_i_glide_ligand_efficiency_sa>  (90) 
-0.282204

>  <r_i_glide_ligand_efficiency_ln>  (90) 
-0.591233

>  <r_i_glide_gscore>  (90) 
-2.53984

>  <r_i_glide_lipo>  (90) 
0

>  <r_i_glide_hbond>  (90) 
0

>  <r_i_glide_metal>  (90) 
-0

>  <r_i_glide_rewards>  (90) 
-0.856176

>  <r_i_glide_evdw>  (90) 
-22.417

>  <r_i_glide_ecoul>  (90) 
-3.51399

>  <r_i_glide_erotb>  (90) 
0

>  <r_i_glide_esite>  (90) 
-0.0357129

>  <r_i_glide_emodel>  (90) 
-30.0623

>  <r_i_glide_energy>  (90) 
-25.931

>  <r_i_glide_einternal>  (90) 
0.483169

>  <r_i_glide_intrahb_reward>  (90) 
-0

>  <i_i_glide_confnum>  (90) 
2

>  <i_i_glide_posenum>  (90) 
17

>  <r_i_glide_eff_state_penalty>  (90) 
0

>  <ligand_id>  (90) 
25

>  <original_smiles>  (90) 
C=C1C(=O)C23CC4(O)OC5CC1C2CC(O)CC3C1(C)COC(=O)C5C41C

>  <smiles>  (90) 
[H]OC1([H])C([H])([H])C2([H])C3([H])C(=C([H])[H])C(=O)C24C([H])([H])C2(O[H])OC([H])(C3([H])[H])C3([H])C(=O)OC([H])([H])C(C([H])([H])[H])(C4([H])C1([H])[H])C23C([H])([H])[H]

$$$$
26:0:0
     RDKit          3D

 60 65  0  0  1  0  0  0  0  0999 V2000
    4.5984   -0.4567   -2.1745 C   0  0  0  0  0  0  0  0  0  0  0  0
    4.6118   -1.8030   -2.1661 C   0  0  0  0  0  0  0  0  0  0  0  0
    4.6339   -2.5822   -3.4660 C   0  0  0  0  0  0  0  0  0  0  0  0
    4.6144   -2.6419   -0.8854 C   0  0  2  0  0  0  0  0  0  0  0  0
    3.6505   -3.8518   -0.9589 C   0  0  0  0  0  0  0  0  0  0  0  0
    3.1082   -4.0596    0.4488 C   0  0  0  0  0  0  0  0  0  0  0  0
    2.2632   -4.9009    0.7638 O   0  0  0  0  0  0  0  0  0  0  0  0
    3.7435   -3.0492    1.3923 C   0  0  1  0  0  0  0  0  0  0  0  0
    2.8149   -2.3793    2.4222 C   0  0  0  0  0  0  0  0  0  0  0  0
    3.7275   -1.5264    3.3475 C   0  0  1  0  0  0  0  0  0  0  0  0
    3.9086   -2.2983    4.6515 C   0  0  0  0  0  0  0  0  0  0  0  0
    3.5815   -1.5416    5.9248 C   0  0  0  0  0  0  0  0  0  0  0  0
    4.2800   -3.5990    4.6701 C   0  0  0  0  0  0  0  0  0  0  0  0
    4.6668   -4.4638    3.4583 C   0  0  2  0  0  0  0  0  0  0  0  0
    5.7689   -5.4488    3.8645 C   0  0  2  0  0  0  0  0  0  0  0  0
    6.9402   -5.7028    2.9395 C   0  0  2  0  0  0  0  0  0  0  0  0
    7.0225   -4.8391    1.6901 C   0  0  1  0  0  0  0  0  0  0  0  0
    7.7134   -5.5223    0.5200 C   0  0  0  0  0  0  0  0  0  0  0  0
    5.7458   -4.3888    1.2659 O   0  0  0  0  0  0  0  0  0  0  0  0
    5.0066   -3.6187    2.1735 C   0  0  1  0  0  0  0  0  0  0  0  0
    5.7877   -2.5326    2.6156 O   0  0  0  0  0  0  0  0  0  0  0  0
    5.1172   -1.2745    2.6569 C   0  0  1  0  0  0  0  0  0  0  0  0
    5.0109   -0.8726    1.1633 C   0  0  1  0  0  0  0  0  0  0  0  0
    6.2935   -0.6711    0.5928 O   0  0  0  0  0  0  0  0  0  0  0  0
    4.1680   -1.9333    0.4159 C   0  0  1  0  0  0  0  0  0  0  0  0
    5.9466   -6.8100    3.2201 C   0  0  0  0  0  0  0  0  0  0  0  0
    6.3914   -7.9617    4.1101 C   0  0  0  0  0  0  0  0  0  0  0  0
    5.0068   -7.3274    2.1482 C   0  0  0  0  0  0  0  0  0  0  0  0
    4.5986    0.1024   -3.0989 H   0  0  0  0  0  0  0  0  0  0  0  0
    4.5922    0.1123   -1.2594 H   0  0  0  0  0  0  0  0  0  0  0  0
    3.7687   -3.2357   -3.5683 H   0  0  0  0  0  0  0  0  0  0  0  0
    5.5391   -3.1910   -3.5190 H   0  0  0  0  0  0  0  0  0  0  0  0
    4.6226   -1.8972   -4.3138 H   0  0  0  0  0  0  0  0  0  0  0  0
    5.6332   -3.0163   -0.7679 H   0  0  0  0  0  0  0  0  0  0  0  0
    2.8059   -3.6659   -1.6236 H   0  0  0  0  0  0  0  0  0  0  0  0
    4.1940   -4.7375   -1.2942 H   0  0  0  0  0  0  0  0  0  0  0  0
    2.0808   -1.7383    1.9264 H   0  0  0  0  0  0  0  0  0  0  0  0
    2.2163   -3.1099    2.9750 H   0  0  0  0  0  0  0  0  0  0  0  0
    3.2312   -0.5754    3.5562 H   0  0  0  0  0  0  0  0  0  0  0  0
    4.2553   -0.6930    6.0515 H   0  0  0  0  0  0  0  0  0  0  0  0
    3.6894   -2.1915    6.7943 H   0  0  0  0  0  0  0  0  0  0  0  0
    2.5557   -1.1712    5.9064 H   0  0  0  0  0  0  0  0  0  0  0  0
    4.3278   -4.1032    5.6270 H   0  0  0  0  0  0  0  0  0  0  0  0
    3.7909   -5.0704    3.2379 H   0  0  0  0  0  0  0  0  0  0  0  0
    6.0221   -5.4138    4.9224 H   0  0  0  0  0  0  0  0  0  0  0  0
    7.9077   -5.8289    3.4186 H   0  0  0  0  0  0  0  0  0  0  0  0
    7.6250   -3.9660    1.9249 H   0  0  0  0  0  0  0  0  0  0  0  0
    8.6998   -5.8898    0.7915 H   0  0  0  0  0  0  0  0  0  0  0  0
    7.8246   -4.8108   -0.2949 H   0  0  0  0  0  0  0  0  0  0  0  0
    7.1206   -6.3593    0.1669 H   0  0  0  0  0  0  0  0  0  0  0  0
    5.7162   -0.5542    3.2146 H   0  0  0  0  0  0  0  0  0  0  0  0
    4.4888    0.0814    1.1106 H   0  0  0  0  0  0  0  0  0  0  0  0
    6.7893   -0.0560    1.1210 H   0  0  0  0  0  0  0  0  0  0  0  0
    3.2523   -1.4115    0.1251 H   0  0  0  0  0  0  0  0  0  0  0  0
    6.9161   -8.7168    3.5233 H   0  0  0  0  0  0  0  0  0  0  0  0
    5.5347   -8.4280    4.5975 H   0  0  0  0  0  0  0  0  0  0  0  0
    7.0702   -7.6050    4.8859 H   0  0  0  0  0  0  0  0  0  0  0  0
    5.5240   -8.0531    1.5197 H   0  0  0  0  0  0  0  0  0  0  0  0
    4.6478   -6.5197    1.5143 H   0  0  0  0  0  0  0  0  0  0  0  0
    4.1428   -7.8074    2.6097 H   0  0  0  0  0  0  0  0  0  0  0  0
  1  2  2  0
  1 29  1  0
  1 30  1  0
  2  3  1  0
  2  4  1  0
  3 31  1  0
  3 32  1  0
  3 33  1  0
  4 25  1  0
  4  5  1  0
  4 34  1  1
  5  6  1  0
  5 35  1  0
  5 36  1  0
  6  7  2  0
  8  6  1  6
  8 20  1  0
  8 25  1  0
  8  9  1  0
  9 10  1  0
  9 37  1  0
  9 38  1  0
 10 22  1  0
 10 11  1  0
 10 39  1  1
 11 12  1  0
 11 13  2  0
 12 40  1  0
 12 41  1  0
 12 42  1  0
 13 14  1  0
 13 43  1  0
 14 20  1  0
 14 15  1  0
 14 44  1  6
 15 26  1  0
 15 16  1  0
 15 45  1  1
 16 17  1  0
 16 26  1  0
 16 46  1  1
 17 18  1  0
 17 19  1  0
 17 47  1  1
 18 48  1  0
 18 49  1  0
 18 50  1  0
 20 19  1  6
 20 21  1  0
 21 22  1  0
 22 23  1  0
 22 51  1  1
 23 24  1  0
 23 25  1  0
 23 52  1  1
 24 53  1  0
 25 54  1  6
 26 27  1  0
 26 28  1  0
 27 55  1  0
 27 56  1  0
 27 57  1  0
 28 58  1  0
 28 59  1  0
 28 60  1  0
M  END
>  <i_m_ct_stereo_status>  (91) 
1

>  <s_m_source_file>  (91) 
/var/tmp/pbs.5076255.sched01/tmp9s019jnz/08u7fdliu.sdf

>  <i_m_source_file_index>  (91) 
38

>  <i_lp_mmshare_version>  (91) 
48012

>  <i_f3d_flags>  (91) 
0

>  <s_epik_input>  (91) 
Tz1DMVtDSDJdW0NAQEhdKEMoPVtDSDJdKVtDSDNdKVtDQEBIXTJbQ0BIXShbT0hdKVtDQEhdKE8zKVtDQEBIXShbQ0gyXTQpQyhbQ0gzXSk9W0NIXVtDQEBIXShbQ0BAXTM1W0NAXTEyNClbQ0BASF02W0NASF0oW0NASF0oTzUpW0NIM10pQzYoW0NIM10pW0NIM10=

>  <s_epik_cmdline>  (91) 
J2VwaWtfcHl0aG9uJywgJy1waHQnLCAnMi4wJywgJy1waCcsICc3LjAnLCAnLXRuJywgJzgnLCAnLW1hJywgJzIwMCcsICctaW1hZScsICc8aW5maWxlLm1hZT4nLCAnLW9tYWUnLCAnPG91dGZpbGUubWFlPic=

>  <r_lp_tautomer_probability>  (91) 
1

>  <r_epik_Ionization_Penalty>  (91) 
4.66842e-08

>  <r_epik_Ionization_Penalty_Charging>  (91) 
0

>  <r_epik_Ionization_Penalty_Neutral>  (91) 
4.66842e-08

>  <r_epik_State_Penalty>  (91) 
-0

>  <r_epik_Charging_Adjusted_Penalty>  (91) 
0

>  <i_epik_Tot_Q>  (91) 
0

>  <i_epik_Tot_abs_Q>  (91) 
0

>  <s_lp_Force_Field>  (91) 
OPLS3e

>  <r_lp_Energy>  (91) 
52.8209

>  <b_lp_Chiralities_Consistent>  (91) 
1

>  <s_lp_Variant>  (91) 
26:0-1

>  <s_i_glide_gridfile>  (91) 
pfpi4k_grid

>  <i_i_glide_lignum>  (91) 
38

>  <i_i_glide_rotatable_bonds>  (91) 
2

>  <r_i_docking_score>  (91) 
-3.08409

>  <r_i_glide_ligand_efficiency>  (91) 
-0.110146

>  <r_i_glide_ligand_efficiency_sa>  (91) 
-0.334469

>  <r_i_glide_ligand_efficiency_ln>  (91) 
-0.711899

>  <r_i_glide_gscore>  (91) 
-3.08409

>  <r_i_glide_lipo>  (91) 
-0.554833

>  <r_i_glide_hbond>  (91) 
-0.0137893

>  <r_i_glide_metal>  (91) 
-0

>  <r_i_glide_rewards>  (91) 
-0.83843

>  <r_i_glide_evdw>  (91) 
-22.1154

>  <r_i_glide_ecoul>  (91) 
-4.60736

>  <r_i_glide_erotb>  (91) 
0.13151

>  <r_i_glide_esite>  (91) 
-0.0116761

>  <r_i_glide_emodel>  (91) 
-31.1953

>  <r_i_glide_energy>  (91) 
-26.7228

>  <r_i_glide_einternal>  (91) 
1.26637

>  <r_i_glide_intrahb_reward>  (91) 
-0

>  <i_i_glide_confnum>  (91) 
2

>  <i_i_glide_posenum>  (91) 
30

>  <r_i_glide_eff_state_penalty>  (91) 
0

>  <ligand_id>  (91) 
26

>  <original_smiles>  (91) 
C=C(C)C1CC(=O)C23CC4C(C)=CC5C6C(C(C)OC52OC4C(O)C13)C6(C)C

>  <smiles>  (91) 
[H]OC1([H])C2([H])OC34OC([H])(C([H])([H])[H])C5([H])C([H])(C3([H])C([H])=C(C([H])([H])[H])C2([H])C([H])([H])C42C(=O)C([H])([H])C([H])(C(=C([H])[H])C([H])([H])[H])C12[H])C5(C([H])([H])[H])C([H])([H])[H]

$$$$
26:0:1
     RDKit          3D

 60 65  0  0  1  0  0  0  0  0999 V2000
    4.5771   -0.3780   -2.1433 C   0  0  0  0  0  0  0  0  0  0  0  0
    4.5730   -1.7157   -2.1885 C   0  0  0  0  0  0  0  0  0  0  0  0
    4.6134   -2.4366   -3.5207 C   0  0  0  0  0  0  0  0  0  0  0  0
    4.5451   -2.6104   -0.9450 C   0  0  2  0  0  0  0  0  0  0  0  0
    3.6331   -3.8497   -1.1167 C   0  0  0  0  0  0  0  0  0  0  0  0
    3.0408   -4.1388    0.2582 C   0  0  0  0  0  0  0  0  0  0  0  0
    2.2325   -5.0294    0.5001 O   0  0  0  0  0  0  0  0  0  0  0  0
    3.5860   -3.1453    1.2713 C   0  0  1  0  0  0  0  0  0  0  0  0
    2.5806   -2.5571    2.2785 C   0  0  0  0  0  0  0  0  0  0  0  0
    3.4106   -1.7105    3.2818 C   0  0  1  0  0  0  0  0  0  0  0  0
    3.5592   -2.5288    4.5611 C   0  0  0  0  0  0  0  0  0  0  0  0
    3.1420   -1.8409    5.8452 C   0  0  0  0  0  0  0  0  0  0  0  0
    3.9827   -3.8129    4.5425 C   0  0  0  0  0  0  0  0  0  0  0  0
    4.4663   -4.6050    3.3215 C   0  0  2  0  0  0  0  0  0  0  0  0
    5.5873   -5.5616    3.7395 C   0  0  2  0  0  0  0  0  0  0  0  0
    6.8124   -5.7248    2.8730 C   0  0  2  0  0  0  0  0  0  0  0  0
    6.9233   -4.8028    1.6730 C   0  0  1  0  0  0  0  0  0  0  0  0
    7.6905   -5.4155    0.5087 C   0  0  0  0  0  0  0  0  0  0  0  0
    5.6505   -4.3905    1.1966 O   0  0  0  0  0  0  0  0  0  0  0  0
    4.8291   -3.6952    2.0920 C   0  0  1  0  0  0  0  0  0  0  0  0
    5.5404   -2.5978    2.6137 O   0  0  0  0  0  0  0  0  0  0  0  0
    4.8160   -1.3716    2.6709 C   0  0  1  0  0  0  0  0  0  0  0  0
    4.7673   -0.9192    1.1908 C   0  0  1  0  0  0  0  0  0  0  0  0
    6.0805   -0.6800    0.7240 O   0  0  0  0  0  0  0  0  0  0  0  0
    4.0087   -1.9780    0.3602 C   0  0  1  0  0  0  0  0  0  0  0  0
    5.8543   -6.8853    3.0501 C   0  0  0  0  0  0  0  0  0  0  0  0
    6.3027   -8.0591    3.9109 C   0  0  0  0  0  0  0  0  0  0  0  0
    4.9908   -7.3957    1.9113 C   0  0  0  0  0  0  0  0  0  0  0  0
    4.5992    0.2278   -3.0333 H   0  0  0  0  0  0  0  0  0  0  0  0
    4.5635    0.1401   -1.2047 H   0  0  0  0  0  0  0  0  0  0  0  0
    3.7280   -3.0595   -3.6777 H   0  0  0  0  0  0  0  0  0  0  0  0
    5.5010   -3.0684   -3.5742 H   0  0  0  0  0  0  0  0  0  0  0  0
    4.6306   -1.7104   -4.3322 H   0  0  0  0  0  0  0  0  0  0  0  0
    5.5707   -2.9528   -0.7963 H   0  0  0  0  0  0  0  0  0  0  0  0
    2.8042   -3.6658   -1.7990 H   0  0  0  0  0  0  0  0  0  0  0  0
    4.2148   -4.6980   -1.4687 H   0  0  0  0  0  0  0  0  0  0  0  0
    1.8478   -1.9241    1.7713 H   0  0  0  0  0  0  0  0  0  0  0  0
    1.9875   -3.3330    2.7696 H   0  0  0  0  0  0  0  0  0  0  0  0
    2.8678   -0.7913    3.5030 H   0  0  0  0  0  0  0  0  0  0  0  0
    3.7734   -0.9722    6.0403 H   0  0  0  0  0  0  0  0  0  0  0  0
    3.2347   -2.5237    6.6903 H   0  0  0  0  0  0  0  0  0  0  0  0
    2.1026   -1.5116    5.7907 H   0  0  0  0  0  0  0  0  0  0  0  0
    4.0074   -4.3559    5.4791 H   0  0  0  0  0  0  0  0  0  0  0  0
    3.6324   -5.2382    3.0329 H   0  0  0  0  0  0  0  0  0  0  0  0
    5.7836   -5.5673    4.8086 H   0  0  0  0  0  0  0  0  0  0  0  0
    7.7562   -5.8418    3.3947 H   0  0  0  0  0  0  0  0  0  0  0  0
    7.4729   -3.9165    1.9770 H   0  0  0  0  0  0  0  0  0  0  0  0
    8.6823   -5.7485    0.8044 H   0  0  0  0  0  0  0  0  0  0  0  0
    7.8006   -4.6770   -0.2827 H   0  0  0  0  0  0  0  0  0  0  0  0
    7.1459   -6.2644    0.1083 H   0  0  0  0  0  0  0  0  0  0  0  0
    5.3597   -0.6523    3.2826 H   0  0  0  0  0  0  0  0  0  0  0  0
    4.2160    0.0185    1.1432 H   0  0  0  0  0  0  0  0  0  0  0  0
    6.6001   -1.4417    0.9341 H   0  0  0  0  0  0  0  0  0  0  0  0
    3.0910   -1.4772    0.0447 H   0  0  0  0  0  0  0  0  0  0  0  0
    6.8864   -8.7669    3.3219 H   0  0  0  0  0  0  0  0  0  0  0  0
    5.4440   -8.5806    4.3360 H   0  0  0  0  0  0  0  0  0  0  0  0
    6.9272   -7.7115    4.7337 H   0  0  0  0  0  0  0  0  0  0  0  0
    5.5666   -8.0732    1.2799 H   0  0  0  0  0  0  0  0  0  0  0  0
    4.6306   -6.5768    1.2955 H   0  0  0  0  0  0  0  0  0  0  0  0
    4.1260   -7.9291    2.3080 H   0  0  0  0  0  0  0  0  0  0  0  0
  1  2  2  0
  1 29  1  0
  1 30  1  0
  2  3  1  0
  2  4  1  0
  3 31  1  0
  3 32  1  0
  3 33  1  0
  4 25  1  0
  4  5  1  0
  4 34  1  1
  5  6  1  0
  5 35  1  0
  5 36  1  0
  6  7  2  0
  8  6  1  6
  8 20  1  0
  8 25  1  0
  8  9  1  0
  9 10  1  0
  9 37  1  0
  9 38  1  0
 10 22  1  0
 10 11  1  0
 10 39  1  1
 11 12  1  0
 11 13  2  0
 12 40  1  0
 12 41  1  0
 12 42  1  0
 13 14  1  0
 13 43  1  0
 14 20  1  0
 14 15  1  0
 14 44  1  6
 15 26  1  0
 15 16  1  0
 15 45  1  1
 16 17  1  0
 16 26  1  0
 16 46  1  1
 17 18  1  0
 17 19  1  0
 17 47  1  1
 18 48  1  0
 18 49  1  0
 18 50  1  0
 20 19  1  6
 20 21  1  0
 21 22  1  0
 22 23  1  0
 22 51  1  1
 23 24  1  0
 23 25  1  0
 23 52  1  1
 24 53  1  0
 25 54  1  6
 26 27  1  0
 26 28  1  0
 27 55  1  0
 27 56  1  0
 27 57  1  0
 28 58  1  0
 28 59  1  0
 28 60  1  0
M  END
>  <i_m_ct_stereo_status>  (92) 
1

>  <s_m_source_file>  (92) 
/var/tmp/pbs.5076255.sched01/tmp9s019jnz/08u7fdliu.sdf

>  <i_m_source_file_index>  (92) 
38

>  <i_lp_mmshare_version>  (92) 
48012

>  <i_f3d_flags>  (92) 
0

>  <s_epik_input>  (92) 
Tz1DMVtDSDJdW0NAQEhdKEMoPVtDSDJdKVtDSDNdKVtDQEBIXTJbQ0BIXShbT0hdKVtDQEhdKE8zKVtDQEBIXShbQ0gyXTQpQyhbQ0gzXSk9W0NIXVtDQEBIXShbQ0BAXTM1W0NAXTEyNClbQ0BASF02W0NASF0oW0NASF0oTzUpW0NIM10pQzYoW0NIM10pW0NIM10=

>  <s_epik_cmdline>  (92) 
J2VwaWtfcHl0aG9uJywgJy1waHQnLCAnMi4wJywgJy1waCcsICc3LjAnLCAnLXRuJywgJzgnLCAnLW1hJywgJzIwMCcsICctaW1hZScsICc8aW5maWxlLm1hZT4nLCAnLW9tYWUnLCAnPG91dGZpbGUubWFlPic=

>  <r_lp_tautomer_probability>  (92) 
1

>  <r_epik_Ionization_Penalty>  (92) 
4.66842e-08

>  <r_epik_Ionization_Penalty_Charging>  (92) 
0

>  <r_epik_Ionization_Penalty_Neutral>  (92) 
4.66842e-08

>  <r_epik_State_Penalty>  (92) 
-0

>  <r_epik_Charging_Adjusted_Penalty>  (92) 
0

>  <i_epik_Tot_Q>  (92) 
0

>  <i_epik_Tot_abs_Q>  (92) 
0

>  <s_lp_Force_Field>  (92) 
OPLS3e

>  <r_lp_Energy>  (92) 
52.8209

>  <b_lp_Chiralities_Consistent>  (92) 
1

>  <s_lp_Variant>  (92) 
26:0-1

>  <s_i_glide_gridfile>  (92) 
pfpi4k_grid

>  <i_i_glide_lignum>  (92) 
38

>  <i_i_glide_rotatable_bonds>  (92) 
2

>  <r_i_docking_score>  (92) 
-2.68922

>  <r_i_glide_ligand_efficiency>  (92) 
-0.0960435

>  <r_i_glide_ligand_efficiency_sa>  (92) 
-0.291644

>  <r_i_glide_ligand_efficiency_ln>  (92) 
-0.62075

>  <r_i_glide_gscore>  (92) 
-2.68922

>  <r_i_glide_lipo>  (92) 
-0.508162

>  <r_i_glide_hbond>  (92) 
-0.0166991

>  <r_i_glide_metal>  (92) 
-0

>  <r_i_glide_rewards>  (92) 
-0.82782

>  <r_i_glide_evdw>  (92) 
-23.281

>  <r_i_glide_ecoul>  (92) 
-1.90499

>  <r_i_glide_erotb>  (92) 
0.13151

>  <r_i_glide_esite>  (92) 
-0.0182453

>  <r_i_glide_emodel>  (92) 
-28.7459

>  <r_i_glide_energy>  (92) 
-25.186

>  <r_i_glide_einternal>  (92) 
1.5538

>  <r_i_glide_intrahb_reward>  (92) 
-0

>  <i_i_glide_confnum>  (92) 
2

>  <i_i_glide_posenum>  (92) 
12

>  <r_i_glide_eff_state_penalty>  (92) 
0

>  <ligand_id>  (92) 
26

>  <original_smiles>  (92) 
C=C(C)C1CC(=O)C23CC4C(C)=CC5C6C(C(C)OC52OC4C(O)C13)C6(C)C

>  <smiles>  (92) 
[H]OC1([H])C2([H])OC34OC([H])(C([H])([H])[H])C5([H])C([H])(C3([H])C([H])=C(C([H])([H])[H])C2([H])C([H])([H])C42C(=O)C([H])([H])C([H])(C(=C([H])[H])C([H])([H])[H])C12[H])C5(C([H])([H])[H])C([H])([H])[H]

$$$$
26:0:2
     RDKit          3D

 60 65  0  0  1  0  0  0  0  0999 V2000
    1.9750   -4.5572    6.9344 C   0  0  0  0  0  0  0  0  0  0  0  0
    1.6794   -3.8448    5.8310 C   0  0  0  0  0  0  0  0  0  0  0  0
    0.5959   -2.7819    5.8581 C   0  0  0  0  0  0  0  0  0  0  0  0
    2.3890   -4.0163    4.4848 C   0  0  2  0  0  0  0  0  0  0  0  0
    1.4128   -4.3544    3.3266 C   0  0  0  0  0  0  0  0  0  0  0  0
    2.1889   -5.2798    2.3868 C   0  0  0  0  0  0  0  0  0  0  0  0
    1.6986   -5.8263    1.3977 O   0  0  0  0  0  0  0  0  0  0  0  0
    3.6115   -5.4663    2.8941 C   0  0  1  0  0  0  0  0  0  0  0  0
    4.1946   -6.8906    2.8344 C   0  0  0  0  0  0  0  0  0  0  0  0
    5.6785   -6.7764    3.2766 C   0  0  1  0  0  0  0  0  0  0  0  0
    6.5364   -6.8287    2.0175 C   0  0  0  0  0  0  0  0  0  0  0  0
    7.6492   -7.8559    2.0049 C   0  0  0  0  0  0  0  0  0  0  0  0
    6.2820   -6.0439    0.9477 C   0  0  0  0  0  0  0  0  0  0  0  0
    5.2172   -4.9428    0.8346 C   0  0  2  0  0  0  0  0  0  0  0  0
    5.7552   -3.7979   -0.0295 C   0  0  2  0  0  0  0  0  0  0  0  0
    5.5345   -2.3620    0.3871 C   0  0  2  0  0  0  0  0  0  0  0  0
    4.8878   -2.1324    1.7417 C   0  0  1  0  0  0  0  0  0  0  0  0
    4.0351   -0.8612    1.8058 C   0  0  0  0  0  0  0  0  0  0  0  0
    4.0635   -3.2212    2.1267 O   0  0  0  0  0  0  0  0  0  0  0  0
    4.6686   -4.4784    2.2331 C   0  0  1  0  0  0  0  0  0  0  0  0
    5.7916   -4.3886    3.0785 O   0  0  0  0  0  0  0  0  0  0  0  0
    5.9156   -5.4303    4.0451 C   0  0  1  0  0  0  0  0  0  0  0  0
    4.8143   -5.1050    5.0867 C   0  0  1  0  0  0  0  0  0  0  0  0
    5.0705   -3.8764    5.7406 O   0  0  0  0  0  0  0  0  0  0  0  0
    3.4365   -5.1487    4.3889 C   0  0  1  0  0  0  0  0  0  0  0  0
    4.8604   -2.8995   -0.8622 C   0  0  0  0  0  0  0  0  0  0  0  0
    5.3805   -2.4403   -2.2160 C   0  0  0  0  0  0  0  0  0  0  0  0
    3.3577   -3.1113   -0.9423 C   0  0  0  0  0  0  0  0  0  0  0  0
    1.4441   -4.3910    7.8601 H   0  0  0  0  0  0  0  0  0  0  0  0
    2.7459   -5.3139    6.9437 H   0  0  0  0  0  0  0  0  0  0  0  0
   -0.1932   -3.0034    5.1396 H   0  0  0  0  0  0  0  0  0  0  0  0
    1.0187   -1.8073    5.6159 H   0  0  0  0  0  0  0  0  0  0  0  0
    0.1425   -2.7183    6.8459 H   0  0  0  0  0  0  0  0  0  0  0  0
    2.8702   -3.0601    4.2703 H   0  0  0  0  0  0  0  0  0  0  0  0
    0.5321   -4.8806    3.6889 H   0  0  0  0  0  0  0  0  0  0  0  0
    1.0954   -3.4543    2.8013 H   0  0  0  0  0  0  0  0  0  0  0  0
    3.6600   -7.5643    3.5068 H   0  0  0  0  0  0  0  0  0  0  0  0
    4.0794   -7.3427    1.8464 H   0  0  0  0  0  0  0  0  0  0  0  0
    5.9280   -7.6228    3.9180 H   0  0  0  0  0  0  0  0  0  0  0  0
    8.3846   -7.6406    2.7809 H   0  0  0  0  0  0  0  0  0  0  0  0
    8.1680   -7.8556    1.0445 H   0  0  0  0  0  0  0  0  0  0  0  0
    7.2484   -8.8589    2.1696 H   0  0  0  0  0  0  0  0  0  0  0  0
    6.9046   -6.1780    0.0784 H   0  0  0  0  0  0  0  0  0  0  0  0
    4.3906   -5.3823    0.2772 H   0  0  0  0  0  0  0  0  0  0  0  0
    6.7306   -3.9990   -0.4690 H   0  0  0  0  0  0  0  0  0  0  0  0
    6.3504   -1.6699    0.2005 H   0  0  0  0  0  0  0  0  0  0  0  0
    5.6886   -2.0305    2.4754 H   0  0  0  0  0  0  0  0  0  0  0  0
    4.6093    0.0206    1.5313 H   0  0  0  0  0  0  0  0  0  0  0  0
    3.6665   -0.7137    2.8211 H   0  0  0  0  0  0  0  0  0  0  0  0
    3.1689   -0.9199    1.1475 H   0  0  0  0  0  0  0  0  0  0  0  0
    6.9066   -5.3967    4.4992 H   0  0  0  0  0  0  0  0  0  0  0  0
    4.8353   -5.8770    5.8555 H   0  0  0  0  0  0  0  0  0  0  0  0
    5.8850   -3.9428    6.2151 H   0  0  0  0  0  0  0  0  0  0  0  0
    2.9316   -6.0176    4.8172 H   0  0  0  0  0  0  0  0  0  0  0  0
    4.9150   -1.4977   -2.5024 H   0  0  0  0  0  0  0  0  0  0  0  0
    5.1675   -3.1840   -2.9836 H   0  0  0  0  0  0  0  0  0  0  0  0
    6.4599   -2.2930   -2.1826 H   0  0  0  0  0  0  0  0  0  0  0  0
    2.8616   -2.1728   -1.1905 H   0  0  0  0  0  0  0  0  0  0  0  0
    2.9528   -3.4703    0.0013 H   0  0  0  0  0  0  0  0  0  0  0  0
    3.1216   -3.8489   -1.7112 H   0  0  0  0  0  0  0  0  0  0  0  0
  1  2  2  0
  1 29  1  0
  1 30  1  0
  2  3  1  0
  2  4  1  0
  3 31  1  0
  3 32  1  0
  3 33  1  0
  4 25  1  0
  4  5  1  0
  4 34  1  6
  5  6  1  0
  5 35  1  0
  5 36  1  0
  6  7  2  0
  8  6  1  6
  8 20  1  0
  8 25  1  0
  8  9  1  0
  9 10  1  0
  9 37  1  0
  9 38  1  0
 10 22  1  0
 10 11  1  0
 10 39  1  1
 11 12  1  0
 11 13  2  0
 12 40  1  0
 12 41  1  0
 12 42  1  0
 13 14  1  0
 13 43  1  0
 14 20  1  0
 14 15  1  0
 14 44  1  6
 15 26  1  0
 15 16  1  0
 15 45  1  6
 16 17  1  0
 16 26  1  0
 16 46  1  6
 17 18  1  0
 17 19  1  0
 17 47  1  1
 18 48  1  0
 18 49  1  0
 18 50  1  0
 20 19  1  6
 20 21  1  0
 21 22  1  0
 22 23  1  0
 22 51  1  1
 23 24  1  0
 23 25  1  0
 23 52  1  1
 24 53  1  0
 25 54  1  1
 26 27  1  0
 26 28  1  0
 27 55  1  0
 27 56  1  0
 27 57  1  0
 28 58  1  0
 28 59  1  0
 28 60  1  0
M  END
>  <i_m_ct_stereo_status>  (93) 
1

>  <s_m_source_file>  (93) 
/var/tmp/pbs.5076255.sched01/tmp9s019jnz/08u7fdliu.sdf

>  <i_m_source_file_index>  (93) 
38

>  <i_lp_mmshare_version>  (93) 
48012

>  <i_f3d_flags>  (93) 
0

>  <s_epik_input>  (93) 
Tz1DMVtDSDJdW0NAQEhdKEMoPVtDSDJdKVtDSDNdKVtDQEBIXTJbQ0BIXShbT0hdKVtDQEhdKE8zKVtDQEBIXShbQ0gyXTQpQyhbQ0gzXSk9W0NIXVtDQEBIXShbQ0BAXTM1W0NAXTEyNClbQ0BASF02W0NASF0oW0NASF0oTzUpW0NIM10pQzYoW0NIM10pW0NIM10=

>  <s_epik_cmdline>  (93) 
J2VwaWtfcHl0aG9uJywgJy1waHQnLCAnMi4wJywgJy1waCcsICc3LjAnLCAnLXRuJywgJzgnLCAnLW1hJywgJzIwMCcsICctaW1hZScsICc8aW5maWxlLm1hZT4nLCAnLW9tYWUnLCAnPG91dGZpbGUubWFlPic=

>  <r_lp_tautomer_probability>  (93) 
1

>  <r_epik_Ionization_Penalty>  (93) 
4.66842e-08

>  <r_epik_Ionization_Penalty_Charging>  (93) 
0

>  <r_epik_Ionization_Penalty_Neutral>  (93) 
4.66842e-08

>  <r_epik_State_Penalty>  (93) 
-0

>  <r_epik_Charging_Adjusted_Penalty>  (93) 
0

>  <i_epik_Tot_Q>  (93) 
0

>  <i_epik_Tot_abs_Q>  (93) 
0

>  <s_lp_Force_Field>  (93) 
OPLS3e

>  <r_lp_Energy>  (93) 
52.8209

>  <b_lp_Chiralities_Consistent>  (93) 
1

>  <s_lp_Variant>  (93) 
26:0-1

>  <s_i_glide_gridfile>  (93) 
pfpi4k_grid

>  <i_i_glide_lignum>  (93) 
38

>  <i_i_glide_rotatable_bonds>  (93) 
2

>  <r_i_docking_score>  (93) 
-2.53377

>  <r_i_glide_ligand_efficiency>  (93) 
-0.090492

>  <r_i_glide_ligand_efficiency_sa>  (93) 
-0.274787

>  <r_i_glide_ligand_efficiency_ln>  (93) 
-0.58487

>  <r_i_glide_gscore>  (93) 
-2.53377

>  <r_i_glide_lipo>  (93) 
-0.417782

>  <r_i_glide_hbond>  (93) 
-0.0643618

>  <r_i_glide_metal>  (93) 
-0

>  <r_i_glide_rewards>  (93) 
-0.808441

>  <r_i_glide_evdw>  (93) 
-22.4437

>  <r_i_glide_ecoul>  (93) 
-1.5869

>  <r_i_glide_erotb>  (93) 
0.13151

>  <r_i_glide_esite>  (93) 
-0.0144804

>  <r_i_glide_emodel>  (93) 
-28.2054

>  <r_i_glide_energy>  (93) 
-24.0306

>  <r_i_glide_einternal>  (93) 
0.33509

>  <r_i_glide_intrahb_reward>  (93) 
-0

>  <i_i_glide_confnum>  (93) 
1

>  <i_i_glide_posenum>  (93) 
6

>  <r_i_glide_eff_state_penalty>  (93) 
0

>  <ligand_id>  (93) 
26

>  <original_smiles>  (93) 
C=C(C)C1CC(=O)C23CC4C(C)=CC5C6C(C(C)OC52OC4C(O)C13)C6(C)C

>  <smiles>  (93) 
[H]OC1([H])C2([H])OC34OC([H])(C([H])([H])[H])C5([H])C([H])(C3([H])C([H])=C(C([H])([H])[H])C2([H])C([H])([H])C42C(=O)C([H])([H])C([H])(C(=C([H])[H])C([H])([H])[H])C12[H])C5(C([H])([H])[H])C([H])([H])[H]

$$$$
29:0:0
     RDKit          3D

 48 55  0  0  1  0  0  0  0  0999 V2000
    4.2151   -0.6642   -2.6028 C   0  0  0  0  0  0  0  0  0  0  0  0
    3.8151   -1.0506   -3.8839 C   0  0  0  0  0  0  0  0  0  0  0  0
    3.8138   -2.3342   -4.2979 N   0  0  0  0  0  0  0  0  0  0  0  0
    4.1724   -3.2883   -3.4041 C   0  0  0  0  0  0  0  0  0  0  0  0
    4.5547   -3.0113   -2.0830 C   0  0  0  0  0  0  0  0  0  0  0  0
    4.9737   -4.1324   -1.1444 C   0  0  0  0  0  0  0  0  0  0  0  0
    3.9142   -4.4682   -0.1634 N   0  0  0  0  0  0  0  0  0  0  0  0
    3.9807   -5.8178    0.4692 C   0  0  2  0  0  0  0  0  0  0  0  0
    2.6809   -6.0110    1.3839 C   0  0  1  0  0  0  0  0  0  0  0  0
    2.0698   -7.5183    1.6646 C   0  0  1  0  0  0  0  0  0  0  0  0
    3.2991   -8.1563    1.7441 C   0  0  0  0  0  0  0  0  0  0  0  0
    3.3711   -7.0921    2.9649 C   0  0  1  0  0  0  0  0  0  0  0  0
    3.4484   -7.9904    4.0190 C   0  0  2  0  0  0  0  0  0  0  0  0
    1.9609   -8.1814    3.1585 C   0  0  0  0  0  0  0  0  0  0  0  0
    5.0024   -7.3928    3.8069 C   0  0  1  0  0  0  0  0  0  0  0  0
    5.7935   -7.0565    2.3911 C   0  0  1  0  0  0  0  0  0  0  0  0
    5.3869   -6.0123    1.2037 C   0  0  2  0  0  0  0  0  0  0  0  0
    5.5560   -4.9291    2.2352 C   0  0  1  0  0  0  0  0  0  0  0  0
    4.3988   -4.8989    3.2243 C   0  0  1  0  0  0  0  0  0  0  0  0
    3.0724   -5.5969    2.7767 C   0  0  1  0  0  0  0  0  0  0  0  0
    5.2495   -5.8661    4.1108 C   0  0  2  0  0  0  0  0  0  0  0  0
    6.3713   -5.8521    3.1076 C   0  0  1  0  0  0  0  0  0  0  0  0
    4.5900   -1.6602   -1.6690 C   0  0  0  0  0  0  0  0  0  0  0  0
    4.2125    0.3810   -2.3289 H   0  0  0  0  0  0  0  0  0  0  0  0
    3.5184   -0.3147   -4.6210 H   0  0  0  0  0  0  0  0  0  0  0  0
    4.1626   -4.2921   -3.7952 H   0  0  0  0  0  0  0  0  0  0  0  0
    5.2155   -5.0128   -1.7377 H   0  0  0  0  0  0  0  0  0  0  0  0
    5.8872   -3.8444   -0.6221 H   0  0  0  0  0  0  0  0  0  0  0  0
    3.9354   -3.7735    0.5737 H   0  0  0  0  0  0  0  0  0  0  0  0
    3.9181   -6.4836   -0.3882 H   0  0  0  0  0  0  0  0  0  0  0  0
    1.8724   -5.3846    1.0158 H   0  0  0  0  0  0  0  0  0  0  0  0
    1.4252   -7.9481    0.8976 H   0  0  0  0  0  0  0  0  0  0  0  0
    3.3473   -9.2461    1.9084 H   0  0  0  0  0  0  0  0  0  0  0  0
    3.9553   -8.0953    0.8873 H   0  0  0  0  0  0  0  0  0  0  0  0
    2.9165   -6.6552    3.9225 H   0  0  0  0  0  0  0  0  0  0  0  0
    3.7178   -9.0490    3.9763 H   0  0  0  0  0  0  0  0  0  0  0  0
    1.1277   -7.7211    3.6971 H   0  0  0  0  0  0  0  0  0  0  0  0
    1.6626   -9.2330    3.1397 H   0  0  0  0  0  0  0  0  0  0  0  0
    5.7000   -7.9516    4.4338 H   0  0  0  0  0  0  0  0  0  0  0  0
    6.5406   -7.7912    2.1148 H   0  0  0  0  0  0  0  0  0  0  0  0
    6.2308   -5.9888    0.5126 H   0  0  0  0  0  0  0  0  0  0  0  0
    6.0306   -3.9922    1.9553 H   0  0  0  0  0  0  0  0  0  0  0  0
    4.2993   -3.9169    3.6808 H   0  0  0  0  0  0  0  0  0  0  0  0
    2.1818   -5.1440    3.2486 H   0  0  0  0  0  0  0  0  0  0  0  0
    5.4997   -5.5615    5.1200 H   0  0  0  0  0  0  0  0  0  0  0  0
    7.4301   -5.7226    3.3451 H   0  0  0  0  0  0  0  0  0  0  0  0
    4.9025   -1.3784   -0.6720 H   0  0  0  0  0  0  0  0  0  0  0  0
    3.0302   -4.4077   -0.6546 H   0  0  0  0  0  0  0  0  0  0  0  0
  1 23  2  0
  1  2  1  0
  1 24  1  0
  2  3  2  0
  2 25  1  0
  3  4  1  0
  4  5  2  0
  4 26  1  0
  5  6  1  0
  5 23  1  0
  6  7  1  0
  6 27  1  0
  6 28  1  0
  7  8  1  0
  7 29  1  0
  7 48  1  0
  8 17  1  0
  8  9  1  0
  8 30  1  6
  9 20  1  0
  9 10  1  0
  9 31  1  6
 10 14  1  0
 10 11  1  0
 10 32  1  6
 11 12  1  0
 11 33  1  0
 11 34  1  0
 12 20  1  0
 12 13  1  0
 12 35  1  6
 13 14  1  0
 13 15  1  0
 13 36  1  1
 14 37  1  0
 14 38  1  0
 15 21  1  0
 15 16  1  0
 15 39  1  1
 16 22  1  0
 16 17  1  0
 16 40  1  6
 17 18  1  0
 17 41  1  6
 18 22  1  0
 18 19  1  0
 18 42  1  6
 19 20  1  0
 19 21  1  0
 19 43  1  1
 20 44  1  1
 21 22  1  0
 21 45  1  1
 22 46  1  1
 23 47  1  0
M  CHG  1   7   1
M  END
>  <i_m_ct_stereo_status>  (94) 
1

>  <s_m_source_file>  (94) 
/var/tmp/pbs.5076255.sched01/tmp9s019jnz/08u7fdliu.sdf

>  <i_m_source_file_index>  (94) 
42

>  <i_lp_mmshare_version>  (94) 
48012

>  <i_f3d_flags>  (94) 
0

>  <s_epik_input>  (94) 
W2NIXTFbY0hdW2NIXW5bY0hdYzFbQ0gyXVtOSF1bQ0BIXTJbQ0BASF0oW0NASF0zW0NAQEhdKFtDQEBIXTQ1KVtDQEBIXTZbQ0BIXTM3KVtDQEBIXTdbQ0BASF02W0NASF0oW0NIMl04KVtDQEBIXTVbQ0gyXVtDQEBIXThbQ0BIXTI0

>  <s_epik_cmdline>  (94) 
J2VwaWtfcHl0aG9uJywgJy1waHQnLCAnMi4wJywgJy1waCcsICc3LjAnLCAnLXRuJywgJzgnLCAnLW1hJywgJzIwMCcsICctaW1hZScsICc8aW5maWxlLm1hZT4nLCAnLW9tYWUnLCAnPG91dGZpbGUubWFlPic=

>  <r_epik_Ionization_Penalty>  (94) 
0.0184144

>  <r_epik_Ionization_Penalty_Charging>  (94) 
0.0151781

>  <r_epik_Ionization_Penalty_Neutral>  (94) 
0.00323635

>  <r_epik_State_Penalty>  (94) 
0.0121052

>  <r_epik_Charging_Adjusted_Penalty>  (94) 
0.0272833

>  <i_epik_Tot_Q>  (94) 
1

>  <i_epik_Tot_abs_Q>  (94) 
1

>  <s_lp_Force_Field>  (94) 
OPLS3e

>  <r_lp_Energy>  (94) 
443.047

>  <b_lp_Chiralities_Consistent>  (94) 
1

>  <s_lp_Variant>  (94) 
29:0-1

>  <s_i_glide_gridfile>  (94) 
pfpi4k_grid

>  <i_i_glide_lignum>  (94) 
42

>  <i_i_glide_rotatable_bonds>  (94) 
3

>  <r_i_docking_score>  (94) 
-3.90756

>  <r_i_glide_ligand_efficiency>  (94) 
-0.169894

>  <r_i_glide_ligand_efficiency_sa>  (94) 
-0.483156

>  <r_i_glide_ligand_efficiency_ln>  (94) 
-0.944884

>  <r_i_glide_gscore>  (94) 
-3.90756

>  <r_i_glide_lipo>  (94) 
-0.615905

>  <r_i_glide_hbond>  (94) 
-0.32

>  <r_i_glide_metal>  (94) 
-0

>  <r_i_glide_rewards>  (94) 
-1.32657

>  <r_i_glide_evdw>  (94) 
-25.4507

>  <r_i_glide_ecoul>  (94) 
-6.31231

>  <r_i_glide_erotb>  (94) 
0.593531

>  <r_i_glide_esite>  (94) 
-0.0192372

>  <r_i_glide_emodel>  (94) 
-38.7886

>  <r_i_glide_energy>  (94) 
-31.763

>  <r_i_glide_einternal>  (94) 
1.14614

>  <r_i_glide_intrahb_reward>  (94) 
-0

>  <i_i_glide_confnum>  (94) 
1

>  <i_i_glide_posenum>  (94) 
19

>  <r_i_glide_eff_state_penalty>  (94) 
0

>  <ligand_id>  (94) 
29

>  <original_smiles>  (94) 
c1cncc(CNC2C3C4CC5C(C4)C4C6C2C2C(C53)C4C62)c1

>  <smiles>  (94) 
[H]c1nc([H])c(C([H])([H])[N+]([H])([H])C2([H])C3([H])C4([H])C([H])([H])C5([H])C([H])(C4([H])[H])C3([H])C3([H])C4([H])C5([H])C5([H])C4([H])C3([H])C52[H])c([H])c1[H]

$$$$
29:0:1
     RDKit          3D

 48 55  0  0  1  0  0  0  0  0999 V2000
    4.2277   -0.4742   -2.7403 C   0  0  0  0  0  0  0  0  0  0  0  0
    3.8902   -0.8995   -4.0418 C   0  0  0  0  0  0  0  0  0  0  0  0
    3.4251   -2.1281   -4.3196 N   0  0  0  0  0  0  0  0  0  0  0  0
    3.2613   -2.9881   -3.3039 C   0  0  0  0  0  0  0  0  0  0  0  0
    3.5906   -2.6742   -1.9697 C   0  0  0  0  0  0  0  0  0  0  0  0
    3.3352   -3.6651   -0.8821 C   0  0  0  0  0  0  0  0  0  0  0  0
    4.4385   -4.6424   -0.6804 N   0  0  0  0  0  0  0  0  0  0  0  0
    4.1652   -5.7849    0.2416 C   0  0  2  0  0  0  0  0  0  0  0  0
    2.7898   -5.5690    1.0670 C   0  0  1  0  0  0  0  0  0  0  0  0
    1.9286   -6.8574    1.6071 C   0  0  1  0  0  0  0  0  0  0  0  0
    3.0200   -7.6373    1.9456 C   0  0  0  0  0  0  0  0  0  0  0  0
    3.2058   -6.3207    2.8932 C   0  0  1  0  0  0  0  0  0  0  0  0
    3.0469   -6.9391    4.1217 C   0  0  2  0  0  0  0  0  0  0  0  0
    1.5964   -7.0895    3.1870 C   0  0  0  0  0  0  0  0  0  0  0  0
    4.6991   -6.6806    3.9355 C   0  0  1  0  0  0  0  0  0  0  0  0
    5.6276   -6.8396    2.5641 C   0  0  1  0  0  0  0  0  0  0  0  0
    5.4808   -6.0524    1.1305 C   0  0  2  0  0  0  0  0  0  0  0  0
    5.8096   -4.7975    1.9012 C   0  0  1  0  0  0  0  0  0  0  0  0
    4.6199   -4.3364    2.7437 C   0  0  1  0  0  0  0  0  0  0  0  0
    3.2043   -4.8883    2.3478 C   0  0  1  0  0  0  0  0  0  0  0  0
    5.2230   -5.1894    3.9114 C   0  0  2  0  0  0  0  0  0  0  0  0
    6.3816   -5.6103    3.0416 C   0  0  1  0  0  0  0  0  0  0  0  0
    4.0574   -1.3807   -1.6752 C   0  0  0  0  0  0  0  0  0  0  0  0
    4.5904    0.5230   -2.5728 H   0  0  0  0  0  0  0  0  0  0  0  0
    4.0379   -0.2463   -4.8829 H   0  0  0  0  0  0  0  0  0  0  0  0
    2.8301   -3.9448   -3.5578 H   0  0  0  0  0  0  0  0  0  0  0  0
    3.1401   -3.1256    0.0482 H   0  0  0  0  0  0  0  0  0  0  0  0
    2.4190   -4.1898   -1.1641 H   0  0  0  0  0  0  0  0  0  0  0  0
    4.6822   -5.0229   -1.5882 H   0  0  0  0  0  0  0  0  0  0  0  0
    4.0419   -6.6120   -0.4588 H   0  0  0  0  0  0  0  0  0  0  0  0
    2.0244   -4.9983    0.5712 H   0  0  0  0  0  0  0  0  0  0  0  0
    1.2695   -7.3294    0.8836 H   0  0  0  0  0  0  0  0  0  0  0  0
    2.8493   -8.6529    2.3485 H   0  0  0  0  0  0  0  0  0  0  0  0
    3.7171   -7.8856    1.1539 H   0  0  0  0  0  0  0  0  0  0  0  0
    2.7766   -5.5947    3.6718 H   0  0  0  0  0  0  0  0  0  0  0  0
    3.1122   -8.0062    4.3449 H   0  0  0  0  0  0  0  0  0  0  0  0
    0.8357   -6.3569    3.4871 H   0  0  0  0  0  0  0  0  0  0  0  0
    1.0929   -8.0460    3.3707 H   0  0  0  0  0  0  0  0  0  0  0  0
    5.2257   -7.1887    4.7420 H   0  0  0  0  0  0  0  0  0  0  0  0
    6.2150   -7.7580    2.5267 H   0  0  0  0  0  0  0  0  0  0  0  0
    6.3389   -6.3286    0.5128 H   0  0  0  0  0  0  0  0  0  0  0  0
    6.4605   -4.0455    1.4528 H   0  0  0  0  0  0  0  0  0  0  0  0
    4.6719   -3.2692    2.9434 H   0  0  0  0  0  0  0  0  0  0  0  0
    2.4020   -4.1739    2.5954 H   0  0  0  0  0  0  0  0  0  0  0  0
    5.4397   -4.6905    4.8554 H   0  0  0  0  0  0  0  0  0  0  0  0
    7.4266   -5.6148    3.3545 H   0  0  0  0  0  0  0  0  0  0  0  0
    4.2539   -1.0725   -0.6556 H   0  0  0  0  0  0  0  0  0  0  0  0
    5.2356   -4.1306   -0.3242 H   0  0  0  0  0  0  0  0  0  0  0  0
  1 23  2  0
  1  2  1  0
  1 24  1  0
  2  3  2  0
  2 25  1  0
  3  4  1  0
  4  5  2  0
  4 26  1  0
  5  6  1  0
  5 23  1  0
  6  7  1  0
  6 27  1  0
  6 28  1  0
  7  8  1  0
  7 29  1  0
  7 48  1  0
  8 17  1  0
  8  9  1  0
  8 30  1  6
  9 20  1  0
  9 10  1  0
  9 31  1  6
 10 14  1  0
 10 11  1  0
 10 32  1  6
 11 12  1  0
 11 33  1  0
 11 34  1  0
 12 20  1  0
 12 13  1  0
 12 35  1  1
 13 14  1  0
 13 15  1  0
 13 36  1  1
 14 37  1  0
 14 38  1  0
 15 21  1  0
 15 16  1  0
 15 39  1  1
 16 22  1  0
 16 17  1  0
 16 40  1  6
 17 18  1  0
 17 41  1  6
 18 22  1  0
 18 19  1  0
 18 42  1  6
 19 20  1  0
 19 21  1  0
 19 43  1  1
 20 44  1  1
 21 22  1  0
 21 45  1  1
 22 46  1  1
 23 47  1  0
M  CHG  1   7   1
M  END
>  <i_m_ct_stereo_status>  (95) 
1

>  <s_m_source_file>  (95) 
/var/tmp/pbs.5076255.sched01/tmp9s019jnz/08u7fdliu.sdf

>  <i_m_source_file_index>  (95) 
42

>  <i_lp_mmshare_version>  (95) 
48012

>  <i_f3d_flags>  (95) 
0

>  <s_epik_input>  (95) 
W2NIXTFbY0hdW2NIXW5bY0hdYzFbQ0gyXVtOSF1bQ0BIXTJbQ0BASF0oW0NASF0zW0NAQEhdKFtDQEBIXTQ1KVtDQEBIXTZbQ0BIXTM3KVtDQEBIXTdbQ0BASF02W0NASF0oW0NIMl04KVtDQEBIXTVbQ0gyXVtDQEBIXThbQ0BIXTI0

>  <s_epik_cmdline>  (95) 
J2VwaWtfcHl0aG9uJywgJy1waHQnLCAnMi4wJywgJy1waCcsICc3LjAnLCAnLXRuJywgJzgnLCAnLW1hJywgJzIwMCcsICctaW1hZScsICc8aW5maWxlLm1hZT4nLCAnLW9tYWUnLCAnPG91dGZpbGUubWFlPic=

>  <r_epik_Ionization_Penalty>  (95) 
0.0184144

>  <r_epik_Ionization_Penalty_Charging>  (95) 
0.0151781

>  <r_epik_Ionization_Penalty_Neutral>  (95) 
0.00323635

>  <r_epik_State_Penalty>  (95) 
0.0121052

>  <r_epik_Charging_Adjusted_Penalty>  (95) 
0.0272833

>  <i_epik_Tot_Q>  (95) 
1

>  <i_epik_Tot_abs_Q>  (95) 
1

>  <s_lp_Force_Field>  (95) 
OPLS3e

>  <r_lp_Energy>  (95) 
443.047

>  <b_lp_Chiralities_Consistent>  (95) 
1

>  <s_lp_Variant>  (95) 
29:0-1

>  <s_i_glide_gridfile>  (95) 
pfpi4k_grid

>  <i_i_glide_lignum>  (95) 
42

>  <i_i_glide_rotatable_bonds>  (95) 
3

>  <r_i_docking_score>  (95) 
-3.86143

>  <r_i_glide_ligand_efficiency>  (95) 
-0.167888

>  <r_i_glide_ligand_efficiency_sa>  (95) 
-0.477451

>  <r_i_glide_ligand_efficiency_ln>  (95) 
-0.933728

>  <r_i_glide_gscore>  (95) 
-3.86143

>  <r_i_glide_lipo>  (95) 
-0.661033

>  <r_i_glide_hbond>  (95) 
-0.32

>  <r_i_glide_metal>  (95) 
-0

>  <r_i_glide_rewards>  (95) 
-1.32657

>  <r_i_glide_evdw>  (95) 
-24.4027

>  <r_i_glide_ecoul>  (95) 
-6.00284

>  <r_i_glide_erotb>  (95) 
0.593531

>  <r_i_glide_esite>  (95) 
-0.0267955

>  <r_i_glide_emodel>  (95) 
-28.9832

>  <r_i_glide_energy>  (95) 
-30.4055

>  <r_i_glide_einternal>  (95) 
16.0313

>  <r_i_glide_intrahb_reward>  (95) 
-0

>  <i_i_glide_confnum>  (95) 
1

>  <i_i_glide_posenum>  (95) 
24

>  <r_i_glide_eff_state_penalty>  (95) 
0

>  <ligand_id>  (95) 
29

>  <original_smiles>  (95) 
c1cncc(CNC2C3C4CC5C(C4)C4C6C2C2C(C53)C4C62)c1

>  <smiles>  (95) 
[H]c1nc([H])c(C([H])([H])[N+]([H])([H])C2([H])C3([H])C4([H])C([H])([H])C5([H])C([H])(C4([H])[H])C3([H])C3([H])C4([H])C5([H])C5([H])C4([H])C3([H])C52[H])c([H])c1[H]

$$$$
29:0:2
     RDKit          3D

 48 55  0  0  1  0  0  0  0  0999 V2000
    3.0210   -1.8699   -3.6122 C   0  0  0  0  0  0  0  0  0  0  0  0
    3.6237   -0.6724   -3.2197 C   0  0  0  0  0  0  0  0  0  0  0  0
    4.6247   -0.6200   -2.3165 N   0  0  0  0  0  0  0  0  0  0  0  0
    5.0253   -1.7693   -1.7390 C   0  0  0  0  0  0  0  0  0  0  0  0
    4.4752   -3.0213   -2.0477 C   0  0  0  0  0  0  0  0  0  0  0  0
    5.0004   -4.2833   -1.3882 C   0  0  0  0  0  0  0  0  0  0  0  0
    4.1432   -4.7074   -0.2536 N   0  0  0  0  0  0  0  0  0  0  0  0
    4.4036   -6.0616    0.3219 C   0  0  2  0  0  0  0  0  0  0  0  0
    3.2266   -6.4007    1.3606 C   0  0  1  0  0  0  0  0  0  0  0  0
    2.8038   -7.9688    1.6737 C   0  0  1  0  0  0  0  0  0  0  0  0
    4.0958   -8.4744    1.6155 C   0  0  0  0  0  0  0  0  0  0  0  0
    4.1795   -7.4192    2.8443 C   0  0  1  0  0  0  0  0  0  0  0  0
    4.4556   -8.3156    3.8665 C   0  0  2  0  0  0  0  0  0  0  0  0
    2.9151   -8.6550    3.1567 C   0  0  0  0  0  0  0  0  0  0  0  0
    5.9104   -7.5580    3.5149 C   0  0  1  0  0  0  0  0  0  0  0  0
    6.5192   -7.1268    2.0354 C   0  0  1  0  0  0  0  0  0  0  0  0
    5.8865   -6.1180    0.9153 C   0  0  2  0  0  0  0  0  0  0  0  0
    6.0480   -5.0308    1.9479 C   0  0  1  0  0  0  0  0  0  0  0  0
    4.9982   -5.1340    3.0483 C   0  0  1  0  0  0  0  0  0  0  0  0
    3.7119   -5.9610    2.7172 C   0  0  1  0  0  0  0  0  0  0  0  0
    6.0305   -6.0158    3.8270 C   0  0  2  0  0  0  0  0  0  0  0  0
    7.0370   -5.8718    2.7162 C   0  0  1  0  0  0  0  0  0  0  0  0
    3.4572   -3.0736   -3.0260 C   0  0  0  0  0  0  0  0  0  0  0  0
    2.2121   -1.8702   -4.3304 H   0  0  0  0  0  0  0  0  0  0  0  0
    3.3021    0.2733   -3.6376 H   0  0  0  0  0  0  0  0  0  0  0  0
    5.8361   -1.6662   -1.0312 H   0  0  0  0  0  0  0  0  0  0  0  0
    5.0196   -5.0641   -2.1417 H   0  0  0  0  0  0  0  0  0  0  0  0
    6.0264   -4.1253   -1.0588 H   0  0  0  0  0  0  0  0  0  0  0  0
    4.2251   -4.0257    0.4870 H   0  0  0  0  0  0  0  0  0  0  0  0
    4.3152   -6.7157   -0.5454 H   0  0  0  0  0  0  0  0  0  0  0  0
    2.3236   -5.8587    1.0891 H   0  0  0  0  0  0  0  0  0  0  0  0
    2.1322   -8.4567    0.9668 H   0  0  0  0  0  0  0  0  0  0  0  0
    4.2711   -9.5563    1.7469 H   0  0  0  0  0  0  0  0  0  0  0  0
    4.6500   -8.3348    0.6974 H   0  0  0  0  0  0  0  0  0  0  0  0
    3.7831   -7.0439    3.8539 H   0  0  0  0  0  0  0  0  0  0  0  0
    4.8253   -9.3404    3.7752 H   0  0  0  0  0  0  0  0  0  0  0  0
    2.0956   -8.2889    3.7829 H   0  0  0  0  0  0  0  0  0  0  0  0
    2.7245   -9.7321    3.1431 H   0  0  0  0  0  0  0  0  0  0  0  0
    6.7191   -8.0510    4.0593 H   0  0  0  0  0  0  0  0  0  0  0  0
    7.3042   -7.7823    1.6672 H   0  0  0  0  0  0  0  0  0  0  0  0
    6.6491   -5.9981    0.1452 H   0  0  0  0  0  0  0  0  0  0  0  0
    6.3868   -4.0442    1.6371 H   0  0  0  0  0  0  0  0  0  0  0  0
    4.8394   -4.1733    3.5338 H   0  0  0  0  0  0  0  0  0  0  0  0
    2.8302   -5.6085    3.2831 H   0  0  0  0  0  0  0  0  0  0  0  0
    6.3430   -5.6993    4.8173 H   0  0  0  0  0  0  0  0  0  0  0  0
    8.0947   -5.6364    2.8518 H   0  0  0  0  0  0  0  0  0  0  0  0
    3.0027   -3.9966   -3.3361 H   0  0  0  0  0  0  0  0  0  0  0  0
    3.1952   -4.7138   -0.6030 H   0  0  0  0  0  0  0  0  0  0  0  0
  1 23  2  0
  1  2  1  0
  1 24  1  0
  2  3  2  0
  2 25  1  0
  3  4  1  0
  4  5  2  0
  4 26  1  0
  5  6  1  0
  5 23  1  0
  6  7  1  0
  6 27  1  0
  6 28  1  0
  7  8  1  0
  7 29  1  0
  7 48  1  0
  8 17  1  0
  8  9  1  0
  8 30  1  6
  9 20  1  0
  9 10  1  0
  9 31  1  6
 10 14  1  0
 10 11  1  0
 10 32  1  6
 11 12  1  0
 11 33  1  0
 11 34  1  0
 12 20  1  0
 12 13  1  0
 12 35  1  6
 13 14  1  0
 13 15  1  0
 13 36  1  1
 14 37  1  0
 14 38  1  0
 15 21  1  0
 15 16  1  0
 15 39  1  1
 16 22  1  0
 16 17  1  0
 16 40  1  6
 17 18  1  0
 17 41  1  6
 18 22  1  0
 18 19  1  0
 18 42  1  6
 19 20  1  0
 19 21  1  0
 19 43  1  1
 20 44  1  1
 21 22  1  0
 21 45  1  1
 22 46  1  1
 23 47  1  0
M  CHG  1   7   1
M  END
>  <i_m_ct_stereo_status>  (96) 
1

>  <s_m_source_file>  (96) 
/var/tmp/pbs.5076255.sched01/tmp9s019jnz/08u7fdliu.sdf

>  <i_m_source_file_index>  (96) 
42

>  <i_lp_mmshare_version>  (96) 
48012

>  <i_f3d_flags>  (96) 
0

>  <s_epik_input>  (96) 
W2NIXTFbY0hdW2NIXW5bY0hdYzFbQ0gyXVtOSF1bQ0BIXTJbQ0BASF0oW0NASF0zW0NAQEhdKFtDQEBIXTQ1KVtDQEBIXTZbQ0BIXTM3KVtDQEBIXTdbQ0BASF02W0NASF0oW0NIMl04KVtDQEBIXTVbQ0gyXVtDQEBIXThbQ0BIXTI0

>  <s_epik_cmdline>  (96) 
J2VwaWtfcHl0aG9uJywgJy1waHQnLCAnMi4wJywgJy1waCcsICc3LjAnLCAnLXRuJywgJzgnLCAnLW1hJywgJzIwMCcsICctaW1hZScsICc8aW5maWxlLm1hZT4nLCAnLW9tYWUnLCAnPG91dGZpbGUubWFlPic=

>  <r_epik_Ionization_Penalty>  (96) 
0.0184144

>  <r_epik_Ionization_Penalty_Charging>  (96) 
0.0151781

>  <r_epik_Ionization_Penalty_Neutral>  (96) 
0.00323635

>  <r_epik_State_Penalty>  (96) 
0.0121052

>  <r_epik_Charging_Adjusted_Penalty>  (96) 
0.0272833

>  <i_epik_Tot_Q>  (96) 
1

>  <i_epik_Tot_abs_Q>  (96) 
1

>  <s_lp_Force_Field>  (96) 
OPLS3e

>  <r_lp_Energy>  (96) 
443.047

>  <b_lp_Chiralities_Consistent>  (96) 
1

>  <s_lp_Variant>  (96) 
29:0-1

>  <s_i_glide_gridfile>  (96) 
pfpi4k_grid

>  <i_i_glide_lignum>  (96) 
42

>  <i_i_glide_rotatable_bonds>  (96) 
3

>  <r_i_docking_score>  (96) 
-3.40317

>  <r_i_glide_ligand_efficiency>  (96) 
-0.147964

>  <r_i_glide_ligand_efficiency_sa>  (96) 
-0.420789

>  <r_i_glide_ligand_efficiency_ln>  (96) 
-0.822916

>  <r_i_glide_gscore>  (96) 
-3.40317

>  <r_i_glide_lipo>  (96) 
-0.76174

>  <r_i_glide_hbond>  (96) 
0

>  <r_i_glide_metal>  (96) 
-0

>  <r_i_glide_rewards>  (96) 
-1.32657

>  <r_i_glide_evdw>  (96) 
-25.3783

>  <r_i_glide_ecoul>  (96) 
-4.11001

>  <r_i_glide_erotb>  (96) 
0.593531

>  <r_i_glide_esite>  (96) 
-0.0229718

>  <r_i_glide_emodel>  (96) 
-35.9591

>  <r_i_glide_energy>  (96) 
-29.4883

>  <r_i_glide_einternal>  (96) 
0.286398

>  <r_i_glide_intrahb_reward>  (96) 
-0

>  <i_i_glide_confnum>  (96) 
1

>  <i_i_glide_posenum>  (96) 
1

>  <r_i_glide_eff_state_penalty>  (96) 
0

>  <ligand_id>  (96) 
29

>  <original_smiles>  (96) 
c1cncc(CNC2C3C4CC5C(C4)C4C6C2C2C(C53)C4C62)c1

>  <smiles>  (96) 
[H]c1nc([H])c(C([H])([H])[N+]([H])([H])C2([H])C3([H])C4([H])C([H])([H])C5([H])C([H])(C4([H])[H])C3([H])C3([H])C4([H])C5([H])C5([H])C4([H])C3([H])C52[H])c([H])c1[H]

$$$$
29:1:0
     RDKit          3D

 47 54  0  0  1  0  0  0  0  0999 V2000
    4.2370   -0.6633   -2.6149 C   0  0  0  0  0  0  0  0  0  0  0  0
    3.8001   -1.0546   -3.8958 C   0  0  0  0  0  0  0  0  0  0  0  0
    3.8155   -2.3323   -4.3193 N   0  0  0  0  0  0  0  0  0  0  0  0
    4.2400   -3.2787   -3.4653 C   0  0  0  0  0  0  0  0  0  0  0  0
    4.6911   -2.9993   -2.1571 C   0  0  0  0  0  0  0  0  0  0  0  0
    5.1489   -4.1173   -1.2474 C   0  0  0  0  0  0  0  0  0  0  0  0
    4.1509   -4.4554   -0.2471 N   0  0  0  0  0  0  0  0  0  0  0  0
    4.3271   -5.7892    0.3398 C   0  0  2  0  0  0  0  0  0  0  0  0
    3.1115   -6.0231    1.3625 C   0  0  1  0  0  0  0  0  0  0  0  0
    2.5434   -7.5576    1.6223 C   0  0  1  0  0  0  0  0  0  0  0  0
    3.7916   -8.1712    1.5682 C   0  0  0  0  0  0  0  0  0  0  0  0
    3.9496   -7.1567    2.8274 C   0  0  1  0  0  0  0  0  0  0  0  0
    4.1390   -8.1047    3.8222 C   0  0  2  0  0  0  0  0  0  0  0  0
    2.5832   -8.2983    3.0838 C   0  0  0  0  0  0  0  0  0  0  0  0
    5.6596   -7.4688    3.5079 C   0  0  1  0  0  0  0  0  0  0  0  0
    6.3261   -7.0511    2.0496 C   0  0  1  0  0  0  0  0  0  0  0  0
    5.7952   -5.9599    0.9521 C   0  0  2  0  0  0  0  0  0  0  0  0
    6.0334   -4.9160    2.0174 C   0  0  1  0  0  0  0  0  0  0  0  0
    4.9664   -4.9602    3.1070 C   0  0  1  0  0  0  0  0  0  0  0  0
    3.6181   -5.6605    2.7381 C   0  0  1  0  0  0  0  0  0  0  0  0
    5.9124   -5.9505    3.8706 C   0  0  2  0  0  0  0  0  0  0  0  0
    6.9426   -5.8615    2.7697 C   0  0  1  0  0  0  0  0  0  0  0  0
    4.6886   -1.6565   -1.7241 C   0  0  0  0  0  0  0  0  0  0  0  0
    4.2140    0.3738   -2.3276 H   0  0  0  0  0  0  0  0  0  0  0  0
    3.4490   -0.3195   -4.6024 H   0  0  0  0  0  0  0  0  0  0  0  0
    4.2288   -4.2943   -3.8358 H   0  0  0  0  0  0  0  0  0  0  0  0
    5.3557   -4.9916   -1.8648 H   0  0  0  0  0  0  0  0  0  0  0  0
    6.0883   -3.8313   -0.7720 H   0  0  0  0  0  0  0  0  0  0  0  0
    3.2422   -4.3983   -0.6854 H   0  0  0  0  0  0  0  0  0  0  0  0
    4.2056   -6.4446   -0.5256 H   0  0  0  0  0  0  0  0  0  0  0  0
    2.2683   -5.3839    1.0996 H   0  0  0  0  0  0  0  0  0  0  0  0
    1.8458   -7.9574    0.8851 H   0  0  0  0  0  0  0  0  0  0  0  0
    3.8813   -9.2682    1.6626 H   0  0  0  0  0  0  0  0  0  0  0  0
    4.3723   -8.0656    0.6620 H   0  0  0  0  0  0  0  0  0  0  0  0
    3.5701   -6.7820    3.8419 H   0  0  0  0  0  0  0  0  0  0  0  0
    4.4225   -9.1533    3.7022 H   0  0  0  0  0  0  0  0  0  0  0  0
    1.7829   -7.8924    3.7141 H   0  0  0  0  0  0  0  0  0  0  0  0
    2.3060   -9.3598    3.0284 H   0  0  0  0  0  0  0  0  0  0  0  0
    6.4093   -8.0526    4.0456 H   0  0  0  0  0  0  0  0  0  0  0  0
    7.0427   -7.7748    1.6564 H   0  0  0  0  0  0  0  0  0  0  0  0
    6.5697   -5.8871    0.1893 H   0  0  0  0  0  0  0  0  0  0  0  0
    6.4420   -3.9458    1.7254 H   0  0  0  0  0  0  0  0  0  0  0  0
    4.8779   -4.0014    3.6131 H   0  0  0  0  0  0  0  0  0  0  0  0
    2.7645   -5.2409    3.2997 H   0  0  0  0  0  0  0  0  0  0  0  0
    6.2305   -5.6921    4.8825 H   0  0  0  0  0  0  0  0  0  0  0  0
    8.0138   -5.7230    2.9174 H   0  0  0  0  0  0  0  0  0  0  0  0
    5.0273   -1.3945   -0.7330 H   0  0  0  0  0  0  0  0  0  0  0  0
  1 23  2  0
  1  2  1  0
  1 24  1  0
  2  3  2  0
  2 25  1  0
  3  4  1  0
  4  5  2  0
  4 26  1  0
  5  6  1  0
  5 23  1  0
  6  7  1  0
  6 27  1  0
  6 28  1  0
  7  8  1  0
  7 29  1  0
  8 17  1  0
  8  9  1  0
  8 30  1  6
  9 20  1  0
  9 10  1  0
  9 31  1  6
 10 14  1  0
 10 11  1  0
 10 32  1  6
 11 12  1  0
 11 33  1  0
 11 34  1  0
 12 20  1  0
 12 13  1  0
 12 35  1  6
 13 14  1  0
 13 15  1  0
 13 36  1  1
 14 37  1  0
 14 38  1  0
 15 21  1  0
 15 16  1  0
 15 39  1  1
 16 22  1  0
 16 17  1  0
 16 40  1  6
 17 18  1  0
 17 41  1  6
 18 22  1  0
 18 19  1  0
 18 42  1  6
 19 20  1  0
 19 21  1  0
 19 43  1  1
 20 44  1  1
 21 22  1  0
 21 45  1  1
 22 46  1  1
 23 47  1  0
M  END
>  <i_m_ct_stereo_status>  (97) 
1

>  <s_m_source_file>  (97) 
/var/tmp/pbs.5076255.sched01/tmp9s019jnz/08u7fdliu.sdf

>  <i_m_source_file_index>  (97) 
43

>  <i_lp_mmshare_version>  (97) 
48012

>  <i_f3d_flags>  (97) 
0

>  <s_epik_input>  (97) 
W2NIXTFbY0hdW2NIXW5bY0hdYzFbQ0gyXVtOSF1bQ0BIXTJbQ0BASF0oW0NASF0zW0NAQEhdKFtDQEBIXTQ1KVtDQEBIXTZbQ0BIXTM3KVtDQEBIXTdbQ0BASF02W0NASF0oW0NIMl04KVtDQEBIXTVbQ0gyXVtDQEBIXThbQ0BIXTI0

>  <s_epik_cmdline>  (97) 
J2VwaWtfcHl0aG9uJywgJy1waHQnLCAnMi4wJywgJy1waCcsICc3LjAnLCAnLXRuJywgJzgnLCAnLW1hJywgJzIwMCcsICctaW1hZScsICc8aW5maWxlLm1hZT4nLCAnLW9tYWUnLCAnPG91dGZpbGUubWFlPic=

>  <r_epik_Ionization_Penalty>  (97) 
2.19108

>  <r_epik_Ionization_Penalty_Charging>  (97) 
0

>  <r_epik_Ionization_Penalty_Neutral>  (97) 
2.19108

>  <r_epik_State_Penalty>  (97) 
2.32078

>  <r_epik_Charging_Adjusted_Penalty>  (97) 
2.32078

>  <i_epik_Tot_Q>  (97) 
0

>  <i_epik_Tot_abs_Q>  (97) 
0

>  <s_lp_Force_Field>  (97) 
OPLS3e

>  <r_lp_Energy>  (97) 
446.949

>  <b_lp_Chiralities_Consistent>  (97) 
1

>  <s_lp_Variant>  (97) 
29:0-2

>  <s_i_glide_gridfile>  (97) 
pfpi4k_grid

>  <i_i_glide_lignum>  (97) 
43

>  <i_i_glide_rotatable_bonds>  (97) 
3

>  <r_i_docking_score>  (97) 
-3.77528

>  <r_i_glide_ligand_efficiency>  (97) 
-0.164143

>  <r_i_glide_ligand_efficiency_sa>  (97) 
-0.4668

>  <r_i_glide_ligand_efficiency_ln>  (97) 
-0.912897

>  <r_i_glide_gscore>  (97) 
-3.77528

>  <r_i_glide_lipo>  (97) 
-0.788522

>  <r_i_glide_hbond>  (97) 
-0.32

>  <r_i_glide_metal>  (97) 
-0

>  <r_i_glide_rewards>  (97) 
-1.33344

>  <r_i_glide_evdw>  (97) 
-26.0673

>  <r_i_glide_ecoul>  (97) 
-4.17955

>  <r_i_glide_erotb>  (97) 
0.59698

>  <r_i_glide_esite>  (97) 
0

>  <r_i_glide_emodel>  (97) 
-36.0726

>  <r_i_glide_energy>  (97) 
-30.2468

>  <r_i_glide_einternal>  (97) 
2.01695

>  <r_i_glide_intrahb_reward>  (97) 
-0

>  <i_i_glide_confnum>  (97) 
5

>  <i_i_glide_posenum>  (97) 
20

>  <r_i_glide_eff_state_penalty>  (97) 
0

>  <ligand_id>  (97) 
29

>  <original_smiles>  (97) 
c1cncc(CNC2C3C4CC5C(C4)C4C6C2C2C(C53)C4C62)c1

>  <smiles>  (97) 
[H]c1nc([H])c(C([H])([H])N([H])C2([H])C3([H])C4([H])C([H])([H])C5([H])C([H])(C4([H])[H])C4([H])C6([H])C2([H])C2([H])C([H])(C53[H])C4([H])C62[H])c([H])c1[H]

$$$$
29:1:1
     RDKit          3D

 47 54  0  0  1  0  0  0  0  0999 V2000
    3.1839   -1.8417   -3.5679 C   0  0  0  0  0  0  0  0  0  0  0  0
    3.8116   -0.6639   -3.1206 C   0  0  0  0  0  0  0  0  0  0  0  0
    4.7719   -0.6599   -2.1743 N   0  0  0  0  0  0  0  0  0  0  0  0
    5.1187   -1.8269   -1.6069 C   0  0  0  0  0  0  0  0  0  0  0  0
    4.5579   -3.0590   -1.9803 C   0  0  0  0  0  0  0  0  0  0  0  0
    5.0072   -4.3438   -1.3150 C   0  0  0  0  0  0  0  0  0  0  0  0
    4.1417   -4.7177   -0.2030 N   0  0  0  0  0  0  0  0  0  0  0  0
    4.4351   -6.0380    0.3663 C   0  0  2  0  0  0  0  0  0  0  0  0
    3.2599   -6.3865    1.4080 C   0  0  1  0  0  0  0  0  0  0  0  0
    2.8421   -7.9691    1.6752 C   0  0  1  0  0  0  0  0  0  0  0  0
    4.1408   -8.4631    1.6013 C   0  0  0  0  0  0  0  0  0  0  0  0
    4.2206   -7.4372    2.8596 C   0  0  1  0  0  0  0  0  0  0  0  0
    4.5143   -8.3629    3.8508 C   0  0  2  0  0  0  0  0  0  0  0  0
    2.9714   -8.7018    3.1353 C   0  0  0  0  0  0  0  0  0  0  0  0
    5.9619   -7.5890    3.5161 C   0  0  1  0  0  0  0  0  0  0  0  0
    6.5668   -7.1109    2.0487 C   0  0  1  0  0  0  0  0  0  0  0  0
    5.9199   -6.0767    0.9596 C   0  0  2  0  0  0  0  0  0  0  0  0
    6.0755   -5.0128    2.0216 C   0  0  1  0  0  0  0  0  0  0  0  0
    5.0334   -5.1561    3.1274 C   0  0  1  0  0  0  0  0  0  0  0  0
    3.7513   -5.9774    2.7770 C   0  0  1  0  0  0  0  0  0  0  0  0
    6.0787   -6.0526    3.8759 C   0  0  2  0  0  0  0  0  0  0  0  0
    7.0791   -5.8682    2.7604 C   0  0  1  0  0  0  0  0  0  0  0  0
    3.5658   -3.0613   -2.9833 C   0  0  0  0  0  0  0  0  0  0  0  0
    2.4117   -1.8115   -4.3205 H   0  0  0  0  0  0  0  0  0  0  0  0
    3.5352    0.2920   -3.5367 H   0  0  0  0  0  0  0  0  0  0  0  0
    5.8855   -1.7794   -0.8471 H   0  0  0  0  0  0  0  0  0  0  0  0
    5.0173   -5.1358   -2.0629 H   0  0  0  0  0  0  0  0  0  0  0  0
    6.0398   -4.2228   -0.9850 H   0  0  0  0  0  0  0  0  0  0  0  0
    3.1951   -4.7308   -0.5545 H   0  0  0  0  0  0  0  0  0  0  0  0
    4.3487   -6.7011   -0.4987 H   0  0  0  0  0  0  0  0  0  0  0  0
    2.3567   -5.8302    1.1591 H   0  0  0  0  0  0  0  0  0  0  0  0
    2.1744   -8.4343    0.9479 H   0  0  0  0  0  0  0  0  0  0  0  0
    4.3334   -9.5476    1.6918 H   0  0  0  0  0  0  0  0  0  0  0  0
    4.6955   -8.3026    0.6865 H   0  0  0  0  0  0  0  0  0  0  0  0
    3.8238   -7.0996    3.8812 H   0  0  0  0  0  0  0  0  0  0  0  0
    4.8911   -9.3814    3.7257 H   0  0  0  0  0  0  0  0  0  0  0  0
    2.1452   -8.3716    3.7771 H   0  0  0  0  0  0  0  0  0  0  0  0
    2.7934   -9.7859    3.0818 H   0  0  0  0  0  0  0  0  0  0  0  0
    6.7714   -8.0999    4.0421 H   0  0  0  0  0  0  0  0  0  0  0  0
    7.3433   -7.7662    1.6436 H   0  0  0  0  0  0  0  0  0  0  0  0
    6.6753   -5.9367    0.1871 H   0  0  0  0  0  0  0  0  0  0  0  0
    6.3864   -4.0076    1.7229 H   0  0  0  0  0  0  0  0  0  0  0  0
    4.8627   -4.2093    3.6367 H   0  0  0  0  0  0  0  0  0  0  0  0
    2.8697   -5.6404    3.3518 H   0  0  0  0  0  0  0  0  0  0  0  0
    6.3855   -5.7659    4.8859 H   0  0  0  0  0  0  0  0  0  0  0  0
    8.1340   -5.6312    2.8934 H   0  0  0  0  0  0  0  0  0  0  0  0
    3.0990   -3.9749   -3.3109 H   0  0  0  0  0  0  0  0  0  0  0  0
  1 23  2  0
  1  2  1  0
  1 24  1  0
  2  3  2  0
  2 25  1  0
  3  4  1  0
  4  5  2  0
  4 26  1  0
  5  6  1  0
  5 23  1  0
  6  7  1  0
  6 27  1  0
  6 28  1  0
  7  8  1  0
  7 29  1  0
  8 17  1  0
  8  9  1  0
  8 30  1  6
  9 20  1  0
  9 10  1  0
  9 31  1  6
 10 14  1  0
 10 11  1  0
 10 32  1  6
 11 12  1  0
 11 33  1  0
 11 34  1  0
 12 20  1  0
 12 13  1  0
 12 35  1  6
 13 14  1  0
 13 15  1  0
 13 36  1  1
 14 37  1  0
 14 38  1  0
 15 21  1  0
 15 16  1  0
 15 39  1  1
 16 22  1  0
 16 17  1  0
 16 40  1  6
 17 18  1  0
 17 41  1  6
 18 22  1  0
 18 19  1  0
 18 42  1  6
 19 20  1  0
 19 21  1  0
 19 43  1  1
 20 44  1  1
 21 22  1  0
 21 45  1  1
 22 46  1  1
 23 47  1  0
M  END
>  <i_m_ct_stereo_status>  (98) 
1

>  <s_m_source_file>  (98) 
/var/tmp/pbs.5076255.sched01/tmp9s019jnz/08u7fdliu.sdf

>  <i_m_source_file_index>  (98) 
43

>  <i_lp_mmshare_version>  (98) 
48012

>  <i_f3d_flags>  (98) 
0

>  <s_epik_input>  (98) 
W2NIXTFbY0hdW2NIXW5bY0hdYzFbQ0gyXVtOSF1bQ0BIXTJbQ0BASF0oW0NASF0zW0NAQEhdKFtDQEBIXTQ1KVtDQEBIXTZbQ0BIXTM3KVtDQEBIXTdbQ0BASF02W0NASF0oW0NIMl04KVtDQEBIXTVbQ0gyXVtDQEBIXThbQ0BIXTI0

>  <s_epik_cmdline>  (98) 
J2VwaWtfcHl0aG9uJywgJy1waHQnLCAnMi4wJywgJy1waCcsICc3LjAnLCAnLXRuJywgJzgnLCAnLW1hJywgJzIwMCcsICctaW1hZScsICc8aW5maWxlLm1hZT4nLCAnLW9tYWUnLCAnPG91dGZpbGUubWFlPic=

>  <r_epik_Ionization_Penalty>  (98) 
2.19108

>  <r_epik_Ionization_Penalty_Charging>  (98) 
0

>  <r_epik_Ionization_Penalty_Neutral>  (98) 
2.19108

>  <r_epik_State_Penalty>  (98) 
2.32078

>  <r_epik_Charging_Adjusted_Penalty>  (98) 
2.32078

>  <i_epik_Tot_Q>  (98) 
0

>  <i_epik_Tot_abs_Q>  (98) 
0

>  <s_lp_Force_Field>  (98) 
OPLS3e

>  <r_lp_Energy>  (98) 
446.949

>  <b_lp_Chiralities_Consistent>  (98) 
1

>  <s_lp_Variant>  (98) 
29:0-2

>  <s_i_glide_gridfile>  (98) 
pfpi4k_grid

>  <i_i_glide_lignum>  (98) 
43

>  <i_i_glide_rotatable_bonds>  (98) 
3

>  <r_i_docking_score>  (98) 
-3.06081

>  <r_i_glide_ligand_efficiency>  (98) 
-0.133079

>  <r_i_glide_ligand_efficiency_sa>  (98) 
-0.378458

>  <r_i_glide_ligand_efficiency_ln>  (98) 
-0.740131

>  <r_i_glide_gscore>  (98) 
-3.06081

>  <r_i_glide_lipo>  (98) 
-0.754574

>  <r_i_glide_hbond>  (98) 
0

>  <r_i_glide_metal>  (98) 
-0

>  <r_i_glide_rewards>  (98) 
-1.33344

>  <r_i_glide_evdw>  (98) 
-25.6486

>  <r_i_glide_ecoul>  (98) 
-1.91562

>  <r_i_glide_erotb>  (98) 
0.59698

>  <r_i_glide_esite>  (98) 
0

>  <r_i_glide_emodel>  (98) 
-32.714

>  <r_i_glide_energy>  (98) 
-27.5642

>  <r_i_glide_einternal>  (98) 
0.675678

>  <r_i_glide_intrahb_reward>  (98) 
-0

>  <i_i_glide_confnum>  (98) 
5

>  <i_i_glide_posenum>  (98) 
2

>  <r_i_glide_eff_state_penalty>  (98) 
0

>  <ligand_id>  (98) 
29

>  <original_smiles>  (98) 
c1cncc(CNC2C3C4CC5C(C4)C4C6C2C2C(C53)C4C62)c1

>  <smiles>  (98) 
[H]c1nc([H])c(C([H])([H])N([H])C2([H])C3([H])C4([H])C([H])([H])C5([H])C([H])(C4([H])[H])C4([H])C6([H])C2([H])C2([H])C([H])(C53[H])C4([H])C62[H])c([H])c1[H]

$$$$
29:1:2
     RDKit          3D

 47 54  0  0  1  0  0  0  0  0999 V2000
   -0.1351   -1.2461    4.9882 C   0  0  0  0  0  0  0  0  0  0  0  0
   -1.0409   -0.2231    4.6448 C   0  0  0  0  0  0  0  0  0  0  0  0
   -0.8156    0.6669    3.6616 N   0  0  0  0  0  0  0  0  0  0  0  0
    0.3368    0.5709    2.9696 C   0  0  0  0  0  0  0  0  0  0  0  0
    1.3181   -0.4138    3.2274 C   0  0  0  0  0  0  0  0  0  0  0  0
    2.5912   -0.4686    2.4035 C   0  0  0  0  0  0  0  0  0  0  0  0
    2.5950   -1.6122    1.5031 N   0  0  0  0  0  0  0  0  0  0  0  0
    3.5228   -1.4728    0.3779 C   0  0  2  0  0  0  0  0  0  0  0  0
    3.0414   -2.4850   -0.7703 C   0  0  1  0  0  0  0  0  0  0  0  0
    3.3004   -2.0849   -2.3538 C   0  0  1  0  0  0  0  0  0  0  0  0
    4.5567   -1.5274   -2.1436 C   0  0  0  0  0  0  0  0  0  0  0  0
    4.7610   -3.0667   -1.6528 C   0  0  1  0  0  0  0  0  0  0  0  0
    5.6970   -3.4499   -2.5900 C   0  0  2  0  0  0  0  0  0  0  0  0
    4.2117   -2.9995   -3.3618 C   0  0  0  0  0  0  0  0  0  0  0  0
    6.5541   -3.1948   -1.1697 C   0  0  1  0  0  0  0  0  0  0  0  0
    6.3527   -2.0030   -0.0329 C   0  0  1  0  0  0  0  0  0  0  0  0
    5.0292   -1.6504    0.8668 C   0  0  2  0  0  0  0  0  0  0  0  0
    5.2054   -3.0217    1.4842 C   0  0  1  0  0  0  0  0  0  0  0  0
    4.7849   -4.1450    0.5386 C   0  0  1  0  0  0  0  0  0  0  0  0
    3.8397   -3.7479   -0.6327 C   0  0  1  0  0  0  0  0  0  0  0  0
    6.2691   -4.1729    0.0451 C   0  0  2  0  0  0  0  0  0  0  0  0
    6.6359   -3.0745    1.0053 C   0  0  1  0  0  0  0  0  0  0  0  0
    1.0730   -1.3389    4.2608 C   0  0  0  0  0  0  0  0  0  0  0  0
   -0.3541   -1.9370    5.7837 H   0  0  0  0  0  0  0  0  0  0  0  0
   -1.9770   -0.1202    5.1746 H   0  0  0  0  0  0  0  0  0  0  0  0
    0.4804    1.3006    2.1847 H   0  0  0  0  0  0  0  0  0  0  0  0
    2.6639    0.4609    1.8380 H   0  0  0  0  0  0  0  0  0  0  0  0
    3.4568   -0.5055    3.0661 H   0  0  0  0  0  0  0  0  0  0  0  0
    1.6674   -1.6901    1.1042 H   0  0  0  0  0  0  0  0  0  0  0  0
    3.3402   -0.4530    0.0374 H   0  0  0  0  0  0  0  0  0  0  0  0
    1.9871   -2.7278   -0.6438 H   0  0  0  0  0  0  0  0  0  0  0  0
    2.6003   -1.3816   -2.8036 H   0  0  0  0  0  0  0  0  0  0  0  0
    5.1022   -1.0764   -2.9862 H   0  0  0  0  0  0  0  0  0  0  0  0
    4.6348   -0.6850   -1.4704 H   0  0  0  0  0  0  0  0  0  0  0  0
    4.6909   -4.1881   -1.8779 H   0  0  0  0  0  0  0  0  0  0  0  0
    6.3191   -2.8086   -3.2137 H   0  0  0  0  0  0  0  0  0  0  0  0
    3.6296   -3.8785   -3.6690 H   0  0  0  0  0  0  0  0  0  0  0  0
    4.4008   -2.5087   -4.3247 H   0  0  0  0  0  0  0  0  0  0  0  0
    7.6249   -3.2602   -1.3831 H   0  0  0  0  0  0  0  0  0  0  0  0
    7.0967   -1.2024   -0.0680 H   0  0  0  0  0  0  0  0  0  0  0  0
    5.3192   -0.8861    1.5876 H   0  0  0  0  0  0  0  0  0  0  0  0
    5.0300   -3.1460    2.5574 H   0  0  0  0  0  0  0  0  0  0  0  0
    4.5118   -5.0458    1.0820 H   0  0  0  0  0  0  0  0  0  0  0  0
    3.1778   -4.5787   -0.9329 H   0  0  0  0  0  0  0  0  0  0  0  0
    6.8254   -5.1118    0.1211 H   0  0  0  0  0  0  0  0  0  0  0  0
    7.5053   -3.1001    1.6495 H   0  0  0  0  0  0  0  0  0  0  0  0
    1.7915   -2.1075    4.4970 H   0  0  0  0  0  0  0  0  0  0  0  0
  1 23  2  0
  1  2  1  0
  1 24  1  0
  2  3  2  0
  2 25  1  0
  3  4  1  0
  4  5  2  0
  4 26  1  0
  5  6  1  0
  5 23  1  0
  6  7  1  0
  6 27  1  0
  6 28  1  0
  7  8  1  0
  7 29  1  0
  8 17  1  0
  8  9  1  0
  8 30  1  6
  9 20  1  0
  9 10  1  0
  9 31  1  6
 10 14  1  0
 10 11  1  0
 10 32  1  6
 11 12  1  0
 11 33  1  0
 11 34  1  0
 12 20  1  0
 12 13  1  0
 12 35  1  1
 13 14  1  0
 13 15  1  0
 13 36  1  1
 14 37  1  0
 14 38  1  0
 15 21  1  0
 15 16  1  0
 15 39  1  6
 16 22  1  0
 16 17  1  0
 16 40  1  6
 17 18  1  0
 17 41  1  1
 18 22  1  0
 18 19  1  0
 18 42  1  1
 19 20  1  0
 19 21  1  0
 19 43  1  1
 20 44  1  6
 21 22  1  0
 21 45  1  6
 22 46  1  1
 23 47  1  0
M  END
>  <i_m_ct_stereo_status>  (99) 
1

>  <s_m_source_file>  (99) 
/var/tmp/pbs.5076255.sched01/tmp9s019jnz/08u7fdliu.sdf

>  <i_m_source_file_index>  (99) 
43

>  <i_lp_mmshare_version>  (99) 
48012

>  <i_f3d_flags>  (99) 
0

>  <s_epik_input>  (99) 
W2NIXTFbY0hdW2NIXW5bY0hdYzFbQ0gyXVtOSF1bQ0BIXTJbQ0BASF0oW0NASF0zW0NAQEhdKFtDQEBIXTQ1KVtDQEBIXTZbQ0BIXTM3KVtDQEBIXTdbQ0BASF02W0NASF0oW0NIMl04KVtDQEBIXTVbQ0gyXVtDQEBIXThbQ0BIXTI0

>  <s_epik_cmdline>  (99) 
J2VwaWtfcHl0aG9uJywgJy1waHQnLCAnMi4wJywgJy1waCcsICc3LjAnLCAnLXRuJywgJzgnLCAnLW1hJywgJzIwMCcsICctaW1hZScsICc8aW5maWxlLm1hZT4nLCAnLW9tYWUnLCAnPG91dGZpbGUubWFlPic=

>  <r_epik_Ionization_Penalty>  (99) 
2.19108

>  <r_epik_Ionization_Penalty_Charging>  (99) 
0

>  <r_epik_Ionization_Penalty_Neutral>  (99) 
2.19108

>  <r_epik_State_Penalty>  (99) 
2.32078

>  <r_epik_Charging_Adjusted_Penalty>  (99) 
2.32078

>  <i_epik_Tot_Q>  (99) 
0

>  <i_epik_Tot_abs_Q>  (99) 
0

>  <s_lp_Force_Field>  (99) 
OPLS3e

>  <r_lp_Energy>  (99) 
446.949

>  <b_lp_Chiralities_Consistent>  (99) 
1

>  <s_lp_Variant>  (99) 
29:0-2

>  <s_i_glide_gridfile>  (99) 
pfpi4k_grid

>  <i_i_glide_lignum>  (99) 
43

>  <i_i_glide_rotatable_bonds>  (99) 
3

>  <r_i_docking_score>  (99) 
-3.00357

>  <r_i_glide_ligand_efficiency>  (99) 
-0.13059

>  <r_i_glide_ligand_efficiency_sa>  (99) 
-0.371381

>  <r_i_glide_ligand_efficiency_ln>  (99) 
-0.726291

>  <r_i_glide_gscore>  (99) 
-3.00357

>  <r_i_glide_lipo>  (99) 
-0.797269

>  <r_i_glide_hbond>  (99) 
-0.0596493

>  <r_i_glide_metal>  (99) 
-0

>  <r_i_glide_rewards>  (99) 
-1.33344

>  <r_i_glide_evdw>  (99) 
-27.4877

>  <r_i_glide_ecoul>  (99) 
-0.238709

>  <r_i_glide_erotb>  (99) 
0.59698

>  <r_i_glide_esite>  (99) 
0

>  <r_i_glide_emodel>  (99) 
-32.5923

>  <r_i_glide_energy>  (99) 
-27.7264

>  <r_i_glide_einternal>  (99) 
1.00961

>  <r_i_glide_intrahb_reward>  (99) 
-0

>  <i_i_glide_confnum>  (99) 
3

>  <i_i_glide_posenum>  (99) 
4

>  <r_i_glide_eff_state_penalty>  (99) 
0

>  <ligand_id>  (99) 
29

>  <original_smiles>  (99) 
c1cncc(CNC2C3C4CC5C(C4)C4C6C2C2C(C53)C4C62)c1

>  <smiles>  (99) 
[H]c1nc([H])c(C([H])([H])N([H])C2([H])C3([H])C4([H])C([H])([H])C5([H])C([H])(C4([H])[H])C4([H])C6([H])C2([H])C2([H])C([H])(C53[H])C4([H])C62[H])c([H])c1[H]

$$$$
30:0:0
     RDKit          3D

 38 41  0  0  1  0  0  0  0  0999 V2000
    4.0646   -3.3293   -2.7697 C   0  0  0  0  0  0  0  0  0  0  0  0
    4.0357   -3.0675   -1.2780 C   0  0  0  0  0  0  0  0  0  0  0  0
    2.9685   -3.3624   -0.5081 C   0  0  0  0  0  0  0  0  0  0  0  0
    2.7869   -3.0954    0.9940 C   0  0  0  0  0  0  0  0  0  0  0  0
    3.9804   -3.2566    2.0120 C   0  0  1  0  0  0  0  0  0  0  0  0
    3.4559   -2.7402    3.3721 C   0  0  0  0  0  0  0  0  0  0  0  0
    4.3095   -4.7527    2.2277 C   0  0  0  0  0  0  0  0  0  0  0  0
    4.8206   -5.4340    0.9654 C   0  0  0  0  0  0  0  0  0  0  0  0
    6.0071   -4.6801    0.3633 C   0  0  0  0  0  0  0  0  0  0  0  0
    6.0025   -3.1196    0.4184 C   0  0  2  0  0  0  0  0  0  0  0  0
    7.4986   -2.7060    0.3588 C   0  0  0  0  0  0  0  0  0  0  0  0
    5.3207   -2.5189    1.6627 C   0  0  1  0  0  0  0  0  0  0  0  0
    5.1395   -1.0280    1.2889 C   0  0  0  0  0  0  0  0  0  0  0  0
    4.8258   -1.0234   -0.1897 C   0  0  1  0  0  0  0  0  0  0  0  0
    5.7902   -1.2138   -1.2199 O   0  0  0  0  0  0  0  0  0  0  0  0
    5.2177   -2.4104   -0.6764 C   0  0  2  0  0  0  0  0  0  0  0  0
    4.8797   -4.0072   -3.0216 H   0  0  0  0  0  0  0  0  0  0  0  0
    4.1836   -2.4035   -3.3322 H   0  0  0  0  0  0  0  0  0  0  0  0
    3.1292   -3.7973   -3.0894 H   0  0  0  0  0  0  0  0  0  0  0  0
    2.1071   -3.8015   -0.9900 H   0  0  0  0  0  0  0  0  0  0  0  0
    2.3366   -2.1036    1.0833 H   0  0  0  0  0  0  0  0  0  0  0  0
    2.0057   -3.7874    1.3195 H   0  0  0  0  0  0  0  0  0  0  0  0
    4.2171   -2.8132    4.1498 H   0  0  0  0  0  0  0  0  0  0  0  0
    2.5927   -3.3244    3.7048 H   0  0  0  0  0  0  0  0  0  0  0  0
    3.1288   -1.6999    3.3222 H   0  0  0  0  0  0  0  0  0  0  0  0
    5.0853   -4.8319    2.9918 H   0  0  0  0  0  0  0  0  0  0  0  0
    3.4488   -5.2954    2.6219 H   0  0  0  0  0  0  0  0  0  0  0  0
    5.1306   -6.4493    1.2033 H   0  0  0  0  0  0  0  0  0  0  0  0
    4.0274   -5.5538    0.2379 H   0  0  0  0  0  0  0  0  0  0  0  0
    6.8980   -5.0467    0.8754 H   0  0  0  0  0  0  0  0  0  0  0  0
    6.1208   -4.9927   -0.6747 H   0  0  0  0  0  0  0  0  0  0  0  0
    7.6517   -1.6295    0.4191 H   0  0  0  0  0  0  0  0  0  0  0  0
    7.9703   -3.0568   -0.5602 H   0  0  0  0  0  0  0  0  0  0  0  0
    8.0397   -3.1474    1.1976 H   0  0  0  0  0  0  0  0  0  0  0  0
    5.9903   -2.6018    2.5213 H   0  0  0  0  0  0  0  0  0  0  0  0
    4.3385   -0.5423    1.8436 H   0  0  0  0  0  0  0  0  0  0  0  0
    6.0450   -0.4525    1.4685 H   0  0  0  0  0  0  0  0  0  0  0  0
    3.9057   -0.5446   -0.5137 H   0  0  0  0  0  0  0  0  0  0  0  0
  1  2  1  0
  1 17  1  0
  1 18  1  0
  1 19  1  0
  2 16  1  0
  2  3  2  0
  3  4  1  0
  3 20  1  0
  4  5  1  0
  4 21  1  0
  4 22  1  0
  5 12  1  0
  5  6  1  1
  5  7  1  0
  6 23  1  0
  6 24  1  0
  6 25  1  0
  7  8  1  0
  7 26  1  0
  7 27  1  0
  8  9  1  0
  8 28  1  0
  8 29  1  0
  9 10  1  0
  9 30  1  0
  9 31  1  0
 10 16  1  0
 10 11  1  1
 10 12  1  0
 11 32  1  0
 11 33  1  0
 11 34  1  0
 12 13  1  0
 12 35  1  1
 13 14  1  0
 13 36  1  0
 13 37  1  0
 14 16  1  0
 14 15  1  0
 14 38  1  6
 16 15  1  6
M  END
>  <i_m_ct_stereo_status>  (100) 
1

>  <s_m_source_file>  (100) 
/var/tmp/pbs.5076255.sched01/tmp9s019jnz/08u7fdliu.sdf

>  <i_m_source_file_index>  (100) 
44

>  <i_lp_mmshare_version>  (100) 
48012

>  <i_f3d_flags>  (100) 
0

>  <s_epik_input>  (100) 
W0NIM11DMT1bQ0hdW0NIMl1bQ0BAXShbQ0gzXSkoW0NIMl1bQ0gyXVtDSDJdMilbQ0BASF0oW0NAQF0yKFtDQEBdMTM0KVtDSDNdKVtDSDJdW0NASF0zTzQ=

>  <s_epik_cmdline>  (100) 
J2VwaWtfcHl0aG9uJywgJy1waHQnLCAnMi4wJywgJy1waCcsICc3LjAnLCAnLXRuJywgJzgnLCAnLW1hJywgJzIwMCcsICctaW1hZScsICc8aW5maWxlLm1hZT4nLCAnLW9tYWUnLCAnPG91dGZpbGUubWFlPic=

>  <r_lp_tautomer_probability>  (100) 
1

>  <r_epik_Ionization_Penalty>  (100) 
3.47864e-11

>  <r_epik_Ionization_Penalty_Charging>  (100) 
0

>  <r_epik_Ionization_Penalty_Neutral>  (100) 
3.47864e-11

>  <r_epik_State_Penalty>  (100) 
-0

>  <r_epik_Charging_Adjusted_Penalty>  (100) 
0

>  <i_epik_Tot_Q>  (100) 
0

>  <i_epik_Tot_abs_Q>  (100) 
0

>  <s_lp_Force_Field>  (100) 
OPLS3e

>  <r_lp_Energy>  (100) 
45.578

>  <b_lp_Chiralities_Consistent>  (100) 
1

>  <s_lp_Variant>  (100) 
30:0-1

>  <s_i_glide_gridfile>  (100) 
pfpi4k_grid

>  <i_i_glide_lignum>  (100) 
44

>  <i_i_glide_rotatable_bonds>  (100) 
0

>  <r_i_docking_score>  (100) 
-3.76573

>  <r_i_glide_ligand_efficiency>  (100) 
-0.235358

>  <r_i_glide_ligand_efficiency_sa>  (100) 
-0.593066

>  <r_i_glide_ligand_efficiency_ln>  (100) 
-0.998183

>  <r_i_glide_gscore>  (100) 
-3.76573

>  <r_i_glide_lipo>  (100) 
-0.615144

>  <r_i_glide_hbond>  (100) 
-0.0678597

>  <r_i_glide_metal>  (100) 
-0

>  <r_i_glide_rewards>  (100) 
-1.92045

>  <r_i_glide_evdw>  (100) 
-18.3602

>  <r_i_glide_ecoul>  (100) 
-1.6285

>  <r_i_glide_erotb>  (100) 
0

>  <r_i_glide_esite>  (100) 
0

>  <r_i_glide_emodel>  (100) 
-25.1474

>  <r_i_glide_energy>  (100) 
-19.9887

>  <r_i_glide_einternal>  (100) 
0

>  <r_i_glide_intrahb_reward>  (100) 
-0

>  <i_i_glide_confnum>  (100) 
1

>  <i_i_glide_posenum>  (100) 
32

>  <r_i_glide_eff_state_penalty>  (100) 
0

>  <ligand_id>  (100) 
30

>  <original_smiles>  (100) 
CC1=CCC2(C)CCCC3(C)C2CC2OC123

>  <smiles>  (100) 
[H]C1=C(C([H])([H])[H])C23OC2([H])C([H])([H])C2([H])C(C([H])([H])[H])(C1([H])[H])C([H])([H])C([H])([H])C([H])([H])C32C([H])([H])[H]

$$$$
30:0:1
     RDKit          3D

 38 41  0  0  1  0  0  0  0  0999 V2000
    5.0618   -1.1039    2.9809 C   0  0  0  0  0  0  0  0  0  0  0  0
    4.8121   -1.5883    1.5685 C   0  0  0  0  0  0  0  0  0  0  0  0
    5.0136   -0.8085    0.4872 C   0  0  0  0  0  0  0  0  0  0  0  0
    4.7518   -1.1524   -0.9860 C   0  0  0  0  0  0  0  0  0  0  0  0
    5.0407   -2.5947   -1.5532 C   0  0  1  0  0  0  0  0  0  0  0  0
    4.4950   -2.5969   -3.0014 C   0  0  0  0  0  0  0  0  0  0  0  0
    6.5604   -2.8478   -1.6658 C   0  0  0  0  0  0  0  0  0  0  0  0
    7.2672   -2.8609   -0.3183 C   0  0  0  0  0  0  0  0  0  0  0  0
    6.6166   -3.8503    0.6523 C   0  0  0  0  0  0  0  0  0  0  0  0
    5.0599   -3.9929    0.6170 C   0  0  2  0  0  0  0  0  0  0  0  0
    4.7734   -5.4218    1.1579 C   0  0  0  0  0  0  0  0  0  0  0  0
    4.4200   -3.8058   -0.7722 C   0  0  1  0  0  0  0  0  0  0  0  0
    2.9113   -3.6428   -0.4553 C   0  0  0  0  0  0  0  0  0  0  0  0
    2.8579   -2.8657    0.8393 C   0  0  1  0  0  0  0  0  0  0  0  0
    3.1157   -3.4199    2.1244 O   0  0  0  0  0  0  0  0  0  0  0  0
    4.2699   -2.9563    1.4054 C   0  0  2  0  0  0  0  0  0  0  0  0
    5.7976   -1.7376    3.4744 H   0  0  0  0  0  0  0  0  0  0  0  0
    4.1425   -1.1164    3.5679 H   0  0  0  0  0  0  0  0  0  0  0  0
    5.4434   -0.0800    2.9742 H   0  0  0  0  0  0  0  0  0  0  0  0
    5.3692    0.1983    0.6455 H   0  0  0  0  0  0  0  0  0  0  0  0
    3.7225   -0.8561   -1.1991 H   0  0  0  0  0  0  0  0  0  0  0  0
    5.3674   -0.4524   -1.5572 H   0  0  0  0  0  0  0  0  0  0  0  0
    4.6435   -3.5627   -3.4856 H   0  0  0  0  0  0  0  0  0  0  0  0
    5.0026   -1.8422   -3.6068 H   0  0  0  0  0  0  0  0  0  0  0  0
    3.4285   -2.3661   -3.0420 H   0  0  0  0  0  0  0  0  0  0  0  0
    6.7059   -3.8196   -2.1401 H   0  0  0  0  0  0  0  0  0  0  0  0
    7.0404   -2.1282   -2.3163 H   0  0  0  0  0  0  0  0  0  0  0  0
    8.3092   -3.1384   -0.4639 H   0  0  0  0  0  0  0  0  0  0  0  0
    7.3041   -1.8689    0.1128 H   0  0  0  0  0  0  0  0  0  0  0  0
    7.0617   -4.8251    0.4443 H   0  0  0  0  0  0  0  0  0  0  0  0
    6.9351   -3.6082    1.6690 H   0  0  0  0  0  0  0  0  0  0  0  0
    3.7136   -5.6704    1.1782 H   0  0  0  0  0  0  0  0  0  0  0  0
    5.1569   -5.5375    2.1729 H   0  0  0  0  0  0  0  0  0  0  0  0
    5.2604   -6.1718    0.5291 H   0  0  0  0  0  0  0  0  0  0  0  0
    4.5766   -4.7082   -1.3694 H   0  0  0  0  0  0  0  0  0  0  0  0
    2.3637   -3.1139   -1.2338 H   0  0  0  0  0  0  0  0  0  0  0  0
    2.4242   -4.6081   -0.3253 H   0  0  0  0  0  0  0  0  0  0  0  0
    2.2866   -1.9390    0.8588 H   0  0  0  0  0  0  0  0  0  0  0  0
  1  2  1  0
  1 17  1  0
  1 18  1  0
  1 19  1  0
  2 16  1  0
  2  3  2  0
  3  4  1  0
  3 20  1  0
  4  5  1  0
  4 21  1  0
  4 22  1  0
  5 12  1  0
  5  6  1  6
  5  7  1  0
  6 23  1  0
  6 24  1  0
  6 25  1  0
  7  8  1  0
  7 26  1  0
  7 27  1  0
  8  9  1  0
  8 28  1  0
  8 29  1  0
  9 10  1  0
  9 30  1  0
  9 31  1  0
 10 16  1  0
 10 11  1  1
 10 12  1  0
 11 32  1  0
 11 33  1  0
 11 34  1  0
 12 13  1  0
 12 35  1  6
 13 14  1  0
 13 36  1  0
 13 37  1  0
 14 16  1  0
 14 15  1  0
 14 38  1  1
 16 15  1  1
M  END
>  <i_m_ct_stereo_status>  (101) 
1

>  <s_m_source_file>  (101) 
/var/tmp/pbs.5076255.sched01/tmp9s019jnz/08u7fdliu.sdf

>  <i_m_source_file_index>  (101) 
44

>  <i_lp_mmshare_version>  (101) 
48012

>  <i_f3d_flags>  (101) 
0

>  <s_epik_input>  (101) 
W0NIM11DMT1bQ0hdW0NIMl1bQ0BAXShbQ0gzXSkoW0NIMl1bQ0gyXVtDSDJdMilbQ0BASF0oW0NAQF0yKFtDQEBdMTM0KVtDSDNdKVtDSDJdW0NASF0zTzQ=

>  <s_epik_cmdline>  (101) 
J2VwaWtfcHl0aG9uJywgJy1waHQnLCAnMi4wJywgJy1waCcsICc3LjAnLCAnLXRuJywgJzgnLCAnLW1hJywgJzIwMCcsICctaW1hZScsICc8aW5maWxlLm1hZT4nLCAnLW9tYWUnLCAnPG91dGZpbGUubWFlPic=

>  <r_lp_tautomer_probability>  (101) 
1

>  <r_epik_Ionization_Penalty>  (101) 
3.47864e-11

>  <r_epik_Ionization_Penalty_Charging>  (101) 
0

>  <r_epik_Ionization_Penalty_Neutral>  (101) 
3.47864e-11

>  <r_epik_State_Penalty>  (101) 
-0

>  <r_epik_Charging_Adjusted_Penalty>  (101) 
0

>  <i_epik_Tot_Q>  (101) 
0

>  <i_epik_Tot_abs_Q>  (101) 
0

>  <s_lp_Force_Field>  (101) 
OPLS3e

>  <r_lp_Energy>  (101) 
45.578

>  <b_lp_Chiralities_Consistent>  (101) 
1

>  <s_lp_Variant>  (101) 
30:0-1

>  <s_i_glide_gridfile>  (101) 
pfpi4k_grid

>  <i_i_glide_lignum>  (101) 
44

>  <i_i_glide_rotatable_bonds>  (101) 
0

>  <r_i_docking_score>  (101) 
-3.73302

>  <r_i_glide_ligand_efficiency>  (101) 
-0.233314

>  <r_i_glide_ligand_efficiency_sa>  (101) 
-0.587913

>  <r_i_glide_ligand_efficiency_ln>  (101) 
-0.989511

>  <r_i_glide_gscore>  (101) 
-3.73302

>  <r_i_glide_lipo>  (101) 
-0.653863

>  <r_i_glide_hbond>  (101) 
0

>  <r_i_glide_metal>  (101) 
-0

>  <r_i_glide_rewards>  (101) 
-1.92045

>  <r_i_glide_evdw>  (101) 
-22.4114

>  <r_i_glide_ecoul>  (101) 
-0.254246

>  <r_i_glide_erotb>  (101) 
0

>  <r_i_glide_esite>  (101) 
0

>  <r_i_glide_emodel>  (101) 
-27.8023

>  <r_i_glide_energy>  (101) 
-22.6657

>  <r_i_glide_einternal>  (101) 
0

>  <r_i_glide_intrahb_reward>  (101) 
-0

>  <i_i_glide_confnum>  (101) 
1

>  <i_i_glide_posenum>  (101) 
1

>  <r_i_glide_eff_state_penalty>  (101) 
0

>  <ligand_id>  (101) 
30

>  <original_smiles>  (101) 
CC1=CCC2(C)CCCC3(C)C2CC2OC123

>  <smiles>  (101) 
[H]C1=C(C([H])([H])[H])C23OC2([H])C([H])([H])C2([H])C(C([H])([H])[H])(C1([H])[H])C([H])([H])C([H])([H])C([H])([H])C32C([H])([H])[H]

$$$$
30:0:2
     RDKit          3D

 38 41  0  0  1  0  0  0  0  0999 V2000
    2.4905   -3.2112   -1.8832 C   0  0  0  0  0  0  0  0  0  0  0  0
    3.8752   -3.3357   -1.2907 C   0  0  0  0  0  0  0  0  0  0  0  0
    4.9651   -2.8283   -1.8998 C   0  0  0  0  0  0  0  0  0  0  0  0
    6.4258   -2.9179   -1.4467 C   0  0  0  0  0  0  0  0  0  0  0  0
    6.8210   -2.8303    0.0789 C   0  0  1  0  0  0  0  0  0  0  0  0
    8.3368   -3.1418    0.1323 C   0  0  0  0  0  0  0  0  0  0  0  0
    6.6524   -1.3886    0.6109 C   0  0  0  0  0  0  0  0  0  0  0  0
    5.2092   -0.9016    0.5800 C   0  0  0  0  0  0  0  0  0  0  0  0
    4.2829   -1.8597    1.3312 C   0  0  0  0  0  0  0  0  0  0  0  0
    4.5700   -3.3915    1.2141 C   0  0  2  0  0  0  0  0  0  0  0  0
    3.9689   -4.0154    2.5056 C   0  0  0  0  0  0  0  0  0  0  0  0
    6.0598   -3.7720    1.0783 C   0  0  1  0  0  0  0  0  0  0  0  0
    6.0125   -5.2555    0.6373 C   0  0  0  0  0  0  0  0  0  0  0  0
    4.8122   -5.3587   -0.2707 C   0  0  1  0  0  0  0  0  0  0  0  0
    3.4573   -5.3966    0.1695 O   0  0  0  0  0  0  0  0  0  0  0  0
    4.0133   -4.0865   -0.0185 C   0  0  2  0  0  0  0  0  0  0  0  0
    1.8442   -2.6883   -1.1873 H   0  0  0  0  0  0  0  0  0  0  0  0
    2.0405   -4.1838   -2.0842 H   0  0  0  0  0  0  0  0  0  0  0  0
    2.5100   -2.6459   -2.8183 H   0  0  0  0  0  0  0  0  0  0  0  0
    4.8233   -2.3174   -2.8413 H   0  0  0  0  0  0  0  0  0  0  0  0
    6.8276   -3.8269   -1.8950 H   0  0  0  0  0  0  0  0  0  0  0  0
    6.9374   -2.1056   -1.9655 H   0  0  0  0  0  0  0  0  0  0  0  0
    8.7165   -3.1150    1.1525 H   0  0  0  0  0  0  0  0  0  0  0  0
    8.9114   -2.4147   -0.4479 H   0  0  0  0  0  0  0  0  0  0  0  0
    8.5719   -4.1259   -0.2758 H   0  0  0  0  0  0  0  0  0  0  0  0
    6.9933   -1.3541    1.6473 H   0  0  0  0  0  0  0  0  0  0  0  0
    7.2939   -0.6863    0.0793 H   0  0  0  0  0  0  0  0  0  0  0  0
    5.1538    0.0804    1.0469 H   0  0  0  0  0  0  0  0  0  0  0  0
    4.8675   -0.7392   -0.4368 H   0  0  0  0  0  0  0  0  0  0  0  0
    4.3322   -1.5756    2.3840 H   0  0  0  0  0  0  0  0  0  0  0  0
    3.2507   -1.6597    1.0366 H   0  0  0  0  0  0  0  0  0  0  0  0
    4.1050   -5.0952    2.5695 H   0  0  0  0  0  0  0  0  0  0  0  0
    2.8972   -3.8187    2.5740 H   0  0  0  0  0  0  0  0  0  0  0  0
    4.4423   -3.5890    3.3936 H   0  0  0  0  0  0  0  0  0  0  0  0
    6.5459   -3.7019    2.0542 H   0  0  0  0  0  0  0  0  0  0  0  0
    6.9093   -5.5712    0.1084 H   0  0  0  0  0  0  0  0  0  0  0  0
    5.8879   -5.9304    1.4829 H   0  0  0  0  0  0  0  0  0  0  0  0
    4.9730   -5.7437   -1.2749 H   0  0  0  0  0  0  0  0  0  0  0  0
  1  2  1  0
  1 17  1  0
  1 18  1  0
  1 19  1  0
  2 16  1  0
  2  3  2  0
  3  4  1  0
  3 20  1  0
  4  5  1  0
  4 21  1  0
  4 22  1  0
  5 12  1  0
  5  6  1  6
  5  7  1  0
  6 23  1  0
  6 24  1  0
  6 25  1  0
  7  8  1  0
  7 26  1  0
  7 27  1  0
  8  9  1  0
  8 28  1  0
  8 29  1  0
  9 10  1  0
  9 30  1  0
  9 31  1  0
 10 16  1  0
 10 11  1  1
 10 12  1  0
 11 32  1  0
 11 33  1  0
 11 34  1  0
 12 13  1  0
 12 35  1  1
 13 14  1  0
 13 36  1  0
 13 37  1  0
 14 16  1  0
 14 15  1  0
 14 38  1  6
 16 15  1  1
M  END
>  <i_m_ct_stereo_status>  (102) 
1

>  <s_m_source_file>  (102) 
/var/tmp/pbs.5076255.sched01/tmp9s019jnz/08u7fdliu.sdf

>  <i_m_source_file_index>  (102) 
44

>  <i_lp_mmshare_version>  (102) 
48012

>  <i_f3d_flags>  (102) 
0

>  <s_epik_input>  (102) 
W0NIM11DMT1bQ0hdW0NIMl1bQ0BAXShbQ0gzXSkoW0NIMl1bQ0gyXVtDSDJdMilbQ0BASF0oW0NAQF0yKFtDQEBdMTM0KVtDSDNdKVtDSDJdW0NASF0zTzQ=

>  <s_epik_cmdline>  (102) 
J2VwaWtfcHl0aG9uJywgJy1waHQnLCAnMi4wJywgJy1waCcsICc3LjAnLCAnLXRuJywgJzgnLCAnLW1hJywgJzIwMCcsICctaW1hZScsICc8aW5maWxlLm1hZT4nLCAnLW9tYWUnLCAnPG91dGZpbGUubWFlPic=

>  <r_lp_tautomer_probability>  (102) 
1

>  <r_epik_Ionization_Penalty>  (102) 
3.47864e-11

>  <r_epik_Ionization_Penalty_Charging>  (102) 
0

>  <r_epik_Ionization_Penalty_Neutral>  (102) 
3.47864e-11

>  <r_epik_State_Penalty>  (102) 
-0

>  <r_epik_Charging_Adjusted_Penalty>  (102) 
0

>  <i_epik_Tot_Q>  (102) 
0

>  <i_epik_Tot_abs_Q>  (102) 
0

>  <s_lp_Force_Field>  (102) 
OPLS3e

>  <r_lp_Energy>  (102) 
45.578

>  <b_lp_Chiralities_Consistent>  (102) 
1

>  <s_lp_Variant>  (102) 
30:0-1

>  <s_i_glide_gridfile>  (102) 
pfpi4k_grid

>  <i_i_glide_lignum>  (102) 
44

>  <i_i_glide_rotatable_bonds>  (102) 
0

>  <r_i_docking_score>  (102) 
-3.58897

>  <r_i_glide_ligand_efficiency>  (102) 
-0.224311

>  <r_i_glide_ligand_efficiency_sa>  (102) 
-0.565227

>  <r_i_glide_ligand_efficiency_ln>  (102) 
-0.951328

>  <r_i_glide_gscore>  (102) 
-3.58897

>  <r_i_glide_lipo>  (102) 
-0.741077

>  <r_i_glide_hbond>  (102) 
0

>  <r_i_glide_metal>  (102) 
-0

>  <r_i_glide_rewards>  (102) 
-1.92045

>  <r_i_glide_evdw>  (102) 
-19.185

>  <r_i_glide_ecoul>  (102) 
0.212024

>  <r_i_glide_erotb>  (102) 
0

>  <r_i_glide_esite>  (102) 
0

>  <r_i_glide_emodel>  (102) 
-23.8767

>  <r_i_glide_energy>  (102) 
-18.973

>  <r_i_glide_einternal>  (102) 
0

>  <r_i_glide_intrahb_reward>  (102) 
-0

>  <i_i_glide_confnum>  (102) 
1

>  <i_i_glide_posenum>  (102) 
2

>  <r_i_glide_eff_state_penalty>  (102) 
0

>  <ligand_id>  (102) 
30

>  <original_smiles>  (102) 
CC1=CCC2(C)CCCC3(C)C2CC2OC123

>  <smiles>  (102) 
[H]C1=C(C([H])([H])[H])C23OC2([H])C([H])([H])C2([H])C(C([H])([H])[H])(C1([H])[H])C([H])([H])C([H])([H])C([H])([H])C32C([H])([H])[H]

$$$$
31:1:0
     RDKit          3D

 70 75  0  0  1  0  0  0  0  0999 V2000
    7.8987   -4.2789    0.8420 C   0  0  0  0  0  0  0  0  0  0  0  0
    6.3516   -4.1191    0.7766 C   0  0  2  0  0  0  0  0  0  0  0  0
    6.0513   -3.8288   -0.7483 C   0  0  0  0  0  0  0  0  0  0  0  0
    5.0104   -2.7684   -0.9408 C   0  0  0  0  0  0  0  0  0  0  0  0
    4.5076   -2.1292   -2.1282 C   0  0  0  0  0  0  0  0  0  0  0  0
    3.5944   -1.2166   -1.8244 N   0  0  0  0  0  0  0  0  0  0  0  0
    3.4574   -1.3081   -0.4831 N   0  0  0  0  0  0  0  0  0  0  0  0
    4.2810   -2.2606    0.0460 C   0  0  0  0  0  0  0  0  0  0  0  0
    4.4590   -2.6193    1.4690 C   0  0  2  0  0  0  0  0  0  0  0  0
    5.9418   -2.9206    1.6737 C   0  0  0  0  0  0  0  0  0  0  0  0
    3.6234   -3.8335    1.9598 C   0  0  0  0  0  0  0  0  0  0  0  0
    4.0182   -5.2856    1.4679 C   0  0  1  0  0  0  0  0  0  0  0  0
    3.3719   -5.5980    0.0976 C   0  0  0  0  0  0  0  0  0  0  0  0
    5.5987   -5.3953    1.3371 C   0  0  2  0  0  0  0  0  0  0  0  0
    6.1950   -5.8647    2.6881 C   0  0  0  0  0  0  0  0  0  0  0  0
    5.7521   -7.2637    3.1170 C   0  0  0  0  0  0  0  0  0  0  0  0
    4.2894   -7.6287    2.7723 C   0  0  1  0  0  0  0  0  0  0  0  0
    4.2702   -8.5665    1.5348 C   0  0  0  0  0  0  0  0  0  0  0  0
    3.6940   -8.3546    4.0246 C   0  0  2  0  0  0  0  0  0  0  0  0
    4.3846   -9.6087    4.6062 C   0  0  0  0  0  0  0  0  0  0  0  0
    3.2435  -10.5962    4.9296 C   0  0  1  0  0  0  0  0  0  0  0  0
    3.5079  -11.3059    6.1206 O   0  0  0  0  0  0  0  0  0  0  0  0
    1.9370   -9.7721    4.9785 C   0  0  0  0  0  0  0  0  0  0  0  0
    0.7413  -10.6594    4.6179 C   0  0  0  0  0  0  0  0  0  0  0  0
    1.6850   -9.1023    6.3484 C   0  0  0  0  0  0  0  0  0  0  0  0
    2.2329   -8.7540    3.8509 C   0  0  1  0  0  0  0  0  0  0  0  0
    1.3905   -7.4819    3.7098 C   0  0  0  0  0  0  0  0  0  0  0  0
    1.8909   -6.6562    2.4904 C   0  0  1  0  0  0  0  0  0  0  0  0
    1.0588   -5.5129    2.4552 O   0  0  0  0  0  0  0  0  0  0  0  0
    3.4398   -6.3176    2.5607 C   0  0  2  0  0  0  0  0  0  0  0  0
    2.7411   -0.7806    0.0073 H   0  0  0  0  0  0  0  0  0  0  0  0
    8.2177   -5.2211    0.3988 H   0  0  0  0  0  0  0  0  0  0  0  0
    8.2845   -4.2405    1.8619 H   0  0  0  0  0  0  0  0  0  0  0  0
    8.4197   -3.4690    0.3196 H   0  0  0  0  0  0  0  0  0  0  0  0
    6.9506   -3.4809   -1.2606 H   0  0  0  0  0  0  0  0  0  0  0  0
    5.7667   -4.7362   -1.2605 H   0  0  0  0  0  0  0  0  0  0  0  0
    4.7570   -2.2650   -3.1583 H   0  0  0  0  0  0  0  0  0  0  0  0
    4.1843   -1.7530    2.0809 H   0  0  0  0  0  0  0  0  0  0  0  0
    6.1351   -3.1016    2.7297 H   0  0  0  0  0  0  0  0  0  0  0  0
    6.5270   -2.0380    1.3954 H   0  0  0  0  0  0  0  0  0  0  0  0
    3.6051   -3.7718    3.0434 H   0  0  0  0  0  0  0  0  0  0  0  0
    2.5933   -3.6316    1.6519 H   0  0  0  0  0  0  0  0  0  0  0  0
    3.6427   -6.5936   -0.2407 H   0  0  0  0  0  0  0  0  0  0  0  0
    3.6590   -4.9270   -0.6966 H   0  0  0  0  0  0  0  0  0  0  0  0
    2.2856   -5.5557    0.1155 H   0  0  0  0  0  0  0  0  0  0  0  0
    5.8271   -6.1887    0.6259 H   0  0  0  0  0  0  0  0  0  0  0  0
    7.2791   -5.8871    2.6959 H   0  0  0  0  0  0  0  0  0  0  0  0
    5.8927   -5.1657    3.4737 H   0  0  0  0  0  0  0  0  0  0  0  0
    6.4148   -7.9840    2.6376 H   0  0  0  0  0  0  0  0  0  0  0  0
    5.9513   -7.3633    4.1836 H   0  0  0  0  0  0  0  0  0  0  0  0
    3.2790   -8.6902    1.1070 H   0  0  0  0  0  0  0  0  0  0  0  0
    4.6278   -9.5638    1.7699 H   0  0  0  0  0  0  0  0  0  0  0  0
    4.9043   -8.1998    0.7326 H   0  0  0  0  0  0  0  0  0  0  0  0
    3.7295   -7.6331    4.8508 H   0  0  0  0  0  0  0  0  0  0  0  0
    5.1196  -10.0581    3.9331 H   0  0  0  0  0  0  0  0  0  0  0  0
    4.9209   -9.3293    5.5157 H   0  0  0  0  0  0  0  0  0  0  0  0
    3.1934  -11.3083    4.1069 H   0  0  0  0  0  0  0  0  0  0  0  0
    2.7404  -11.8184    6.3731 H   0  0  0  0  0  0  0  0  0  0  0  0
   -0.1726  -10.0697    4.5590 H   0  0  0  0  0  0  0  0  0  0  0  0
    0.5842  -11.4343    5.3688 H   0  0  0  0  0  0  0  0  0  0  0  0
    0.8721  -11.1632    3.6592 H   0  0  0  0  0  0  0  0  0  0  0  0
    0.7875   -8.4892    6.3320 H   0  0  0  0  0  0  0  0  0  0  0  0
    2.5158   -8.4719    6.6689 H   0  0  0  0  0  0  0  0  0  0  0  0
    1.5326   -9.8485    7.1246 H   0  0  0  0  0  0  0  0  0  0  0  0
    2.1325   -9.3128    2.9181 H   0  0  0  0  0  0  0  0  0  0  0  0
    0.3432   -7.7491    3.5796 H   0  0  0  0  0  0  0  0  0  0  0  0
    1.4566   -6.8773    4.6162 H   0  0  0  0  0  0  0  0  0  0  0  0
    1.6776   -7.2414    1.5970 H   0  0  0  0  0  0  0  0  0  0  0  0
    1.3467   -4.9129    3.1209 H   0  0  0  0  0  0  0  0  0  0  0  0
    3.5341   -5.8037    3.5145 H   0  0  0  0  0  0  0  0  0  0  0  0
  2  1  1  6
  1 32  1  0
  1 33  1  0
  1 34  1  0
  2 10  1  0
  2 14  1  0
  2  3  1  0
  3 35  1  0
  3 36  1  0
  3  4  1  0
  4  8  2  0
  4  5  1  0
  5 37  1  0
  5  6  2  0
  6  7  1  0
  7 31  1  0
  7  8  1  0
  8  9  1  0
  9 10  1  0
  9 11  1  0
  9 38  1  1
 10 39  1  0
 10 40  1  0
 11 12  1  0
 11 41  1  0
 11 42  1  0
 12 30  1  0
 12 13  1  6
 12 14  1  0
 13 43  1  0
 13 44  1  0
 13 45  1  0
 14 15  1  0
 14 46  1  6
 15 16  1  0
 15 47  1  0
 15 48  1  0
 16 17  1  0
 16 49  1  0
 16 50  1  0
 17 30  1  0
 17 18  1  6
 17 19  1  0
 18 51  1  0
 18 52  1  0
 18 53  1  0
 19 26  1  0
 19 20  1  0
 19 54  1  1
 20 21  1  0
 20 55  1  0
 20 56  1  0
 21 22  1  0
 21 23  1  0
 21 57  1  6
 22 58  1  0
 23 24  1  0
 23 25  1  0
 23 26  1  0
 24 59  1  0
 24 60  1  0
 24 61  1  0
 25 62  1  0
 25 63  1  0
 25 64  1  0
 26 27  1  0
 26 65  1  6
 27 28  1  0
 27 66  1  0
 27 67  1  0
 28 29  1  0
 28 30  1  0
 28 68  1  6
 29 69  1  0
 30 70  1  1
M  END
>  <i_m_ct_stereo_status>  (103) 
1

>  <s_m_source_file>  (103) 
/var/tmp/pbs.5076255.sched01/tmp7dp07en1/447ppmqug5.sdf

>  <i_m_source_file_index>  (103) 
2

>  <i_lp_mmshare_version>  (103) 
48012

>  <i_f3d_flags>  (103) 
0

>  <s_epik_input>  (103) 
W0NIMl0xW0NAQEhdKFtPSF0pQyhbQ0gzXSkoW0NIM10pW0NAQEhdKFtDSDJdW0NASF0yW09IXSlbQ0BASF0xW0NAXShbQ0gzXSkoW0NIMl1bQ0gyXTMpW0NASF0yW0NAXShbQ0gzXSkoW0NASF0zW0NAQF00NVtDSDNdKVtDSDJdW0NAQEhdKFtDSDJdNSljNmMoW0NIMl00KVtjSF1bbkhdbjY=

>  <s_epik_cmdline>  (103) 
J2VwaWtfcHl0aG9uJywgJy1waHQnLCAnMi4wJywgJy1waCcsICc3LjAnLCAnLXRuJywgJzgnLCAnLW1hJywgJzIwMCcsICctaW1hZScsICc8aW5maWxlLm1hZT4nLCAnLW9tYWUnLCAnPG91dGZpbGUubWFlPic=

>  <r_lp_tautomer_probability>  (103) 
0.5

>  <r_epik_Ionization_Penalty>  (103) 
0.0070281

>  <r_epik_Ionization_Penalty_Charging>  (103) 
0

>  <r_epik_Ionization_Penalty_Neutral>  (103) 
0.0070281

>  <r_epik_State_Penalty>  (103) 
0.523524

>  <r_epik_Charging_Adjusted_Penalty>  (103) 
0.523524

>  <i_epik_Tot_Q>  (103) 
0

>  <i_epik_Tot_abs_Q>  (103) 
0

>  <s_lp_Force_Field>  (103) 
OPLS3e

>  <r_lp_Energy>  (103) 
77.6579

>  <b_lp_Chiralities_Consistent>  (103) 
1

>  <s_lp_Variant>  (103) 
31:0-2

>  <s_i_glide_gridfile>  (103) 
pfpi4k_grid

>  <i_i_glide_lignum>  (103) 
2

>  <i_i_glide_rotatable_bonds>  (103) 
2

>  <r_i_docking_score>  (103) 
-3.42796

>  <r_i_glide_ligand_efficiency>  (103) 
-0.114265

>  <r_i_glide_ligand_efficiency_sa>  (103) 
-0.355049

>  <r_i_glide_ligand_efficiency_ln>  (103) 
-0.778871

>  <r_i_glide_gscore>  (103) 
-3.42796

>  <r_i_glide_lipo>  (103) 
-0.501946

>  <r_i_glide_hbond>  (103) 
-0.226883

>  <r_i_glide_metal>  (103) 
-0

>  <r_i_glide_rewards>  (103) 
-0.595855

>  <r_i_glide_evdw>  (103) 
-25.9045

>  <r_i_glide_ecoul>  (103) 
-4.72036

>  <r_i_glide_erotb>  (103) 
0

>  <r_i_glide_esite>  (103) 
-0.1

>  <r_i_glide_emodel>  (103) 
-36.996

>  <r_i_glide_energy>  (103) 
-30.6249

>  <r_i_glide_einternal>  (103) 
0.666172

>  <r_i_glide_intrahb_reward>  (103) 
-0

>  <i_i_glide_confnum>  (103) 
2

>  <i_i_glide_posenum>  (103) 
35

>  <r_i_glide_eff_state_penalty>  (103) 
0

>  <ligand_id>  (103) 
31

>  <original_smiles>  (103) 
CC12Cc3c[nH]nc3C(C1)CC1(C)C2CCC2(C)C3CC(O)C(C)(C)C3CC(O)C21

>  <smiles>  (103) 
[H]OC1([H])C([H])([H])C2([H])C([H])(C([H])([H])C([H])(O[H])C2(C([H])([H])[H])C([H])([H])[H])C2(C([H])([H])[H])C([H])([H])C([H])([H])C3([H])C4(C([H])([H])[H])C([H])([H])c5c([H])nn([H])c5C([H])(C4([H])[H])C([H])([H])C3(C([H])([H])[H])C12[H]

$$$$
32:0:0
     RDKit          3D

 21 22  0  0  1  0  0  0  0  0999 V2000
    7.1260   -2.6726    0.2350 C   0  0  0  0  0  0  0  0  0  0  0  0
    6.4195   -1.4401    0.2247 O   0  0  0  0  0  0  0  0  0  0  0  0
    5.1307   -1.5081    0.8460 C   0  0  0  0  0  0  0  0  0  0  0  0
    4.1750   -2.3127    0.0147 C   0  0  0  0  0  0  0  0  0  0  0  0
    3.5045   -3.3905    0.4276 N   0  0  0  0  0  0  0  0  0  0  0  0
    2.7264   -3.8593   -0.6550 N   0  0  0  0  0  0  0  0  0  0  0  0
    2.9701   -3.0566   -1.6611 C   0  0  0  0  0  0  0  0  0  0  0  0
    2.6123   -2.7241   -3.3513 S   0  0  0  0  0  0  0  0  0  0  0  0
    3.6540   -1.2795   -3.1837 C   0  0  0  0  0  0  0  0  0  0  0  0
    3.8207   -0.1445   -4.5221 S   0  0  0  0  0  0  0  0  0  0  0  0
    2.1379    0.3278   -4.9891 C   0  0  0  0  0  0  0  0  0  0  0  0
    4.2953   -1.1084   -2.0247 N   0  0  0  0  0  0  0  0  0  0  0  0
    3.8441   -2.1078   -1.2537 N   0  0  0  0  0  0  0  0  0  0  0  0
    8.0878   -2.5350   -0.2545 H   0  0  0  0  0  0  0  0  0  0  0  0
    6.5868   -3.4521   -0.3035 H   0  0  0  0  0  0  0  0  0  0  0  0
    7.3150   -3.0417    1.2509 H   0  0  0  0  0  0  0  0  0  0  0  0
    5.2026   -2.0243    1.7980 H   0  0  0  0  0  0  0  0  0  0  0  0
    4.7306   -0.5060    1.0686 H   0  0  0  0  0  0  0  0  0  0  0  0
    2.1517    0.9960   -5.8489 H   0  0  0  0  0  0  0  0  0  0  0  0
    1.7200    0.8720   -4.1642 H   0  0  0  0  0  0  0  0  0  0  0  0
    1.4823   -0.5256   -5.1400 H   0  0  0  0  0  0  0  0  0  0  0  0
  1  2  1  0
  1 14  1  0
  1 15  1  0
  1 16  1  0
  2  3  1  0
  3  4  1  0
  3 17  1  0
  3 18  1  0
  4 13  1  0
  4  5  2  0
  5  6  1  0
  6  7  2  0
  7 13  1  0
  7  8  1  0
  8  9  1  0
  9 10  1  0
  9 12  2  0
 10 11  1  0
 11 19  1  0
 11 20  1  0
 11 21  1  0
 12 13  1  0
M  END
>  <i_m_ct_stereo_status>  (104) 
1

>  <s_m_source_file>  (104) 
/var/tmp/pbs.5076255.sched01/tmp7dp07en1/447ppmqug5.sdf

>  <i_m_source_file_index>  (104) 
3

>  <i_lp_mmshare_version>  (104) 
48012

>  <i_f3d_flags>  (104) 
0

>  <s_epik_input>  (104) 
W0NIM11PW0NIMl1jKG5uMSluKGMxMiluYyhzMilTW0NIM10=

>  <s_epik_cmdline>  (104) 
J2VwaWtfcHl0aG9uJywgJy1waHQnLCAnMi4wJywgJy1waCcsICc3LjAnLCAnLXRuJywgJzgnLCAnLW1hJywgJzIwMCcsICctaW1hZScsICc8aW5maWxlLm1hZT4nLCAnLW9tYWUnLCAnPG91dGZpbGUubWFlPic=

>  <r_lp_tautomer_probability>  (104) 
1

>  <r_epik_Ionization_Penalty>  (104) 
1.85422e-07

>  <r_epik_Ionization_Penalty_Charging>  (104) 
0

>  <r_epik_Ionization_Penalty_Neutral>  (104) 
1.85422e-07

>  <r_epik_State_Penalty>  (104) 
-0

>  <r_epik_Charging_Adjusted_Penalty>  (104) 
0

>  <i_epik_Tot_Q>  (104) 
0

>  <i_epik_Tot_abs_Q>  (104) 
0

>  <s_lp_Force_Field>  (104) 
OPLS3e

>  <r_lp_Energy>  (104) 
5.79907

>  <b_lp_Chiralities_Consistent>  (104) 
1

>  <s_lp_Variant>  (104) 
32:0-1

>  <s_i_glide_gridfile>  (104) 
pfpi4k_grid

>  <i_i_glide_lignum>  (104) 
3

>  <i_i_glide_rotatable_bonds>  (104) 
3

>  <r_i_docking_score>  (104) 
-3.86006

>  <r_i_glide_ligand_efficiency>  (104) 
-0.296928

>  <r_i_glide_ligand_efficiency_sa>  (104) 
-0.698177

>  <r_i_glide_ligand_efficiency_ln>  (104) 
-1.08278

>  <r_i_glide_gscore>  (104) 
-3.86006

>  <r_i_glide_lipo>  (104) 
-0.694909

>  <r_i_glide_hbond>  (104) 
0

>  <r_i_glide_metal>  (104) 
-0

>  <r_i_glide_rewards>  (104) 
-1.95932

>  <r_i_glide_evdw>  (104) 
-24.9253

>  <r_i_glide_ecoul>  (104) 
-1.4631

>  <r_i_glide_erotb>  (104) 
0.358144

>  <r_i_glide_esite>  (104) 
-0.0982427

>  <r_i_glide_emodel>  (104) 
-31.7275

>  <r_i_glide_energy>  (104) 
-26.3884

>  <r_i_glide_einternal>  (104) 
2.22476

>  <r_i_glide_intrahb_reward>  (104) 
-0

>  <i_i_glide_confnum>  (104) 
4

>  <i_i_glide_posenum>  (104) 
11

>  <r_i_glide_eff_state_penalty>  (104) 
0

>  <ligand_id>  (104) 
32

>  <original_smiles>  (104) 
COCc1nnc2sc(SC)nn12

>  <smiles>  (104) 
[H]C([H])([H])OC([H])([H])c1nnc2sc(SC([H])([H])[H])nn12

$$$$
32:0:1
     RDKit          3D

 21 22  0  0  1  0  0  0  0  0999 V2000
    6.2051   -1.1837    0.9533 C   0  0  0  0  0  0  0  0  0  0  0  0
    4.9896   -0.9832    1.6509 O   0  0  0  0  0  0  0  0  0  0  0  0
    3.9241   -0.5428    0.8218 C   0  0  0  0  0  0  0  0  0  0  0  0
    3.4640   -1.7195    0.0010 C   0  0  0  0  0  0  0  0  0  0  0  0
    3.0075   -2.8831    0.5077 N   0  0  0  0  0  0  0  0  0  0  0  0
    2.6720   -3.7239   -0.5869 N   0  0  0  0  0  0  0  0  0  0  0  0
    2.9349   -3.0495   -1.6865 C   0  0  0  0  0  0  0  0  0  0  0  0
    2.8831   -3.0615   -3.4273 S   0  0  0  0  0  0  0  0  0  0  0  0
    3.5401   -1.4130   -3.3706 C   0  0  0  0  0  0  0  0  0  0  0  0
    3.8069   -0.5834   -4.8792 S   0  0  0  0  0  0  0  0  0  0  0  0
    3.2353    1.0855   -4.7127 C   0  0  0  0  0  0  0  0  0  0  0  0
    3.8330   -0.8923   -2.1795 N   0  0  0  0  0  0  0  0  0  0  0  0
    3.4516   -1.8547   -1.3171 N   0  0  0  0  0  0  0  0  0  0  0  0
    6.9937   -1.4958    1.6376 H   0  0  0  0  0  0  0  0  0  0  0  0
    6.5152   -0.2558    0.4759 H   0  0  0  0  0  0  0  0  0  0  0  0
    6.1065   -1.9562    0.1906 H   0  0  0  0  0  0  0  0  0  0  0  0
    3.1043   -0.2694    1.4834 H   0  0  0  0  0  0  0  0  0  0  0  0
    4.2009    0.3500    0.2447 H   0  0  0  0  0  0  0  0  0  0  0  0
    3.3473    1.6618   -5.6317 H   0  0  0  0  0  0  0  0  0  0  0  0
    3.8209    1.5467   -3.9213 H   0  0  0  0  0  0  0  0  0  0  0  0
    2.1826    1.0042   -4.4565 H   0  0  0  0  0  0  0  0  0  0  0  0
  1  2  1  0
  1 14  1  0
  1 15  1  0
  1 16  1  0
  2  3  1  0
  3  4  1  0
  3 17  1  0
  3 18  1  0
  4 13  1  0
  4  5  2  0
  5  6  1  0
  6  7  2  0
  7 13  1  0
  7  8  1  0
  8  9  1  0
  9 10  1  0
  9 12  2  0
 10 11  1  0
 11 19  1  0
 11 20  1  0
 11 21  1  0
 12 13  1  0
M  END
>  <i_m_ct_stereo_status>  (105) 
1

>  <s_m_source_file>  (105) 
/var/tmp/pbs.5076255.sched01/tmp7dp07en1/447ppmqug5.sdf

>  <i_m_source_file_index>  (105) 
3

>  <i_lp_mmshare_version>  (105) 
48012

>  <i_f3d_flags>  (105) 
0

>  <s_epik_input>  (105) 
W0NIM11PW0NIMl1jKG5uMSluKGMxMiluYyhzMilTW0NIM10=

>  <s_epik_cmdline>  (105) 
J2VwaWtfcHl0aG9uJywgJy1waHQnLCAnMi4wJywgJy1waCcsICc3LjAnLCAnLXRuJywgJzgnLCAnLW1hJywgJzIwMCcsICctaW1hZScsICc8aW5maWxlLm1hZT4nLCAnLW9tYWUnLCAnPG91dGZpbGUubWFlPic=

>  <r_lp_tautomer_probability>  (105) 
1

>  <r_epik_Ionization_Penalty>  (105) 
1.85422e-07

>  <r_epik_Ionization_Penalty_Charging>  (105) 
0

>  <r_epik_Ionization_Penalty_Neutral>  (105) 
1.85422e-07

>  <r_epik_State_Penalty>  (105) 
-0

>  <r_epik_Charging_Adjusted_Penalty>  (105) 
0

>  <i_epik_Tot_Q>  (105) 
0

>  <i_epik_Tot_abs_Q>  (105) 
0

>  <s_lp_Force_Field>  (105) 
OPLS3e

>  <r_lp_Energy>  (105) 
5.79907

>  <b_lp_Chiralities_Consistent>  (105) 
1

>  <s_lp_Variant>  (105) 
32:0-1

>  <s_i_glide_gridfile>  (105) 
pfpi4k_grid

>  <i_i_glide_lignum>  (105) 
3

>  <i_i_glide_rotatable_bonds>  (105) 
3

>  <r_i_docking_score>  (105) 
-3.84722

>  <r_i_glide_ligand_efficiency>  (105) 
-0.29594

>  <r_i_glide_ligand_efficiency_sa>  (105) 
-0.695854

>  <r_i_glide_ligand_efficiency_ln>  (105) 
-1.07918

>  <r_i_glide_gscore>  (105) 
-3.84722

>  <r_i_glide_lipo>  (105) 
-0.617331

>  <r_i_glide_hbond>  (105) 
0

>  <r_i_glide_metal>  (105) 
-0

>  <r_i_glide_rewards>  (105) 
-1.95185

>  <r_i_glide_evdw>  (105) 
-22.4259

>  <r_i_glide_ecoul>  (105) 
-1.95015

>  <r_i_glide_erotb>  (105) 
0.358144

>  <r_i_glide_esite>  (105) 
-0.222362

>  <r_i_glide_emodel>  (105) 
-29.6924

>  <r_i_glide_energy>  (105) 
-24.3761

>  <r_i_glide_einternal>  (105) 
1.63755

>  <r_i_glide_intrahb_reward>  (105) 
-0

>  <i_i_glide_confnum>  (105) 
4

>  <i_i_glide_posenum>  (105) 
12

>  <r_i_glide_eff_state_penalty>  (105) 
0

>  <ligand_id>  (105) 
32

>  <original_smiles>  (105) 
COCc1nnc2sc(SC)nn12

>  <smiles>  (105) 
[H]C([H])([H])OC([H])([H])c1nnc2sc(SC([H])([H])[H])nn12

$$$$
32:0:2
     RDKit          3D

 21 22  0  0  1  0  0  0  0  0999 V2000
    2.3640   -6.6950    1.3059 C   0  0  0  0  0  0  0  0  0  0  0  0
    1.8189   -5.4556    0.8710 O   0  0  0  0  0  0  0  0  0  0  0  0
    2.5030   -4.2946    1.3673 C   0  0  0  0  0  0  0  0  0  0  0  0
    3.8600   -4.1898    0.7231 C   0  0  0  0  0  0  0  0  0  0  0  0
    5.0058   -4.6125    1.2837 N   0  0  0  0  0  0  0  0  0  0  0  0
    6.0483   -4.3515    0.3649 N   0  0  0  0  0  0  0  0  0  0  0  0
    5.5065   -3.7739   -0.6754 C   0  0  0  0  0  0  0  0  0  0  0  0
    5.8380   -3.0617   -2.2387 S   0  0  0  0  0  0  0  0  0  0  0  0
    4.0784   -2.7475   -2.3676 C   0  0  0  0  0  0  0  0  0  0  0  0
    3.4603   -1.9548   -3.8157 S   0  0  0  0  0  0  0  0  0  0  0  0
    3.1287   -0.2614   -3.2782 C   0  0  0  0  0  0  0  0  0  0  0  0
    3.3062   -3.1194   -1.3354 N   0  0  0  0  0  0  0  0  0  0  0  0
    4.1744   -3.6762   -0.4596 N   0  0  0  0  0  0  0  0  0  0  0  0
    1.7807   -7.5194    0.8940 H   0  0  0  0  0  0  0  0  0  0  0  0
    2.3532   -6.7997    2.3953 H   0  0  0  0  0  0  0  0  0  0  0  0
    3.3926   -6.8386    0.9663 H   0  0  0  0  0  0  0  0  0  0  0  0
    1.9185   -3.3831    1.2209 H   0  0  0  0  0  0  0  0  0  0  0  0
    2.6556   -4.3920    2.4418 H   0  0  0  0  0  0  0  0  0  0  0  0
    2.7890    0.3591   -4.1086 H   0  0  0  0  0  0  0  0  0  0  0  0
    4.0116    0.1973   -2.8280 H   0  0  0  0  0  0  0  0  0  0  0  0
    2.3446   -0.3091   -2.5264 H   0  0  0  0  0  0  0  0  0  0  0  0
  1  2  1  0
  1 14  1  0
  1 15  1  0
  1 16  1  0
  2  3  1  0
  3  4  1  0
  3 17  1  0
  3 18  1  0
  4 13  1  0
  4  5  2  0
  5  6  1  0
  6  7  2  0
  7 13  1  0
  7  8  1  0
  8  9  1  0
  9 10  1  0
  9 12  2  0
 10 11  1  0
 11 19  1  0
 11 20  1  0
 11 21  1  0
 12 13  1  0
M  END
>  <i_m_ct_stereo_status>  (106) 
1

>  <s_m_source_file>  (106) 
/var/tmp/pbs.5076255.sched01/tmp7dp07en1/447ppmqug5.sdf

>  <i_m_source_file_index>  (106) 
3

>  <i_lp_mmshare_version>  (106) 
48012

>  <i_f3d_flags>  (106) 
0

>  <s_epik_input>  (106) 
W0NIM11PW0NIMl1jKG5uMSluKGMxMiluYyhzMilTW0NIM10=

>  <s_epik_cmdline>  (106) 
J2VwaWtfcHl0aG9uJywgJy1waHQnLCAnMi4wJywgJy1waCcsICc3LjAnLCAnLXRuJywgJzgnLCAnLW1hJywgJzIwMCcsICctaW1hZScsICc8aW5maWxlLm1hZT4nLCAnLW9tYWUnLCAnPG91dGZpbGUubWFlPic=

>  <r_lp_tautomer_probability>  (106) 
1

>  <r_epik_Ionization_Penalty>  (106) 
1.85422e-07

>  <r_epik_Ionization_Penalty_Charging>  (106) 
0

>  <r_epik_Ionization_Penalty_Neutral>  (106) 
1.85422e-07

>  <r_epik_State_Penalty>  (106) 
-0

>  <r_epik_Charging_Adjusted_Penalty>  (106) 
0

>  <i_epik_Tot_Q>  (106) 
0

>  <i_epik_Tot_abs_Q>  (106) 
0

>  <s_lp_Force_Field>  (106) 
OPLS3e

>  <r_lp_Energy>  (106) 
5.79907

>  <b_lp_Chiralities_Consistent>  (106) 
1

>  <s_lp_Variant>  (106) 
32:0-1

>  <s_i_glide_gridfile>  (106) 
pfpi4k_grid

>  <i_i_glide_lignum>  (106) 
3

>  <i_i_glide_rotatable_bonds>  (106) 
3

>  <r_i_docking_score>  (106) 
-3.71654

>  <r_i_glide_ligand_efficiency>  (106) 
-0.285888

>  <r_i_glide_ligand_efficiency_sa>  (106) 
-0.672218

>  <r_i_glide_ligand_efficiency_ln>  (106) 
-1.04252

>  <r_i_glide_gscore>  (106) 
-3.71654

>  <r_i_glide_lipo>  (106) 
-0.379257

>  <r_i_glide_hbond>  (106) 
-0.100161

>  <r_i_glide_metal>  (106) 
-0

>  <r_i_glide_rewards>  (106) 
-2.03614

>  <r_i_glide_evdw>  (106) 
-22.2913

>  <r_i_glide_ecoul>  (106) 
-2.96374

>  <r_i_glide_erotb>  (106) 
0.358144

>  <r_i_glide_esite>  (106) 
0

>  <r_i_glide_emodel>  (106) 
-30.3621

>  <r_i_glide_energy>  (106) 
-25.2551

>  <r_i_glide_einternal>  (106) 
2.431

>  <r_i_glide_intrahb_reward>  (106) 
-0

>  <i_i_glide_confnum>  (106) 
2

>  <i_i_glide_posenum>  (106) 
40

>  <r_i_glide_eff_state_penalty>  (106) 
0

>  <ligand_id>  (106) 
32

>  <original_smiles>  (106) 
COCc1nnc2sc(SC)nn12

>  <smiles>  (106) 
[H]C([H])([H])OC([H])([H])c1nnc2sc(SC([H])([H])[H])nn12

$$$$
33:0:0
     RDKit          3D

 32 34  0  0  1  0  0  0  0  0999 V2000
   -4.7898   -7.7047   -5.3467 C   0  0  0  0  0  0  0  0  0  0  0  0
   -6.0293   -7.0061   -5.7583 C   0  0  0  0  0  0  0  0  0  0  0  0
   -6.8417   -7.5085   -6.6885 N   0  0  0  0  0  0  0  0  0  0  0  0
   -7.9221   -6.6754   -6.9571 C   0  0  0  0  0  0  0  0  0  0  0  0
   -8.9849   -7.0125   -7.9309 C   0  0  0  0  0  0  0  0  0  0  0  0
   -8.8997   -8.1760   -8.6237 C   0  0  0  0  0  0  0  0  0  0  0  0
   -9.9136   -8.6239   -9.6597 C   0  0  1  0  0  0  0  0  0  0  0  0
  -10.9800   -9.5369   -9.0102 C   0  0  0  0  0  0  0  0  0  0  0  0
  -11.6733   -8.8061   -7.9198 N   0  0  0  0  0  0  0  0  0  0  0  0
  -12.2961   -7.5456   -8.3939 C   0  0  0  0  0  0  0  0  0  0  0  0
  -11.2589   -6.6265   -9.1005 C   0  0  1  0  0  0  0  0  0  0  0  0
  -10.1795   -6.0753   -8.1394 C   0  0  0  0  0  0  0  0  0  0  0  0
  -10.6025   -7.3904  -10.2620 C   0  0  0  0  0  0  0  0  0  0  0  0
   -7.9282   -5.5241   -6.2088 C   0  0  0  0  0  0  0  0  0  0  0  0
   -6.5601   -5.4538   -5.1190 S   0  0  0  0  0  0  0  0  0  0  0  0
   -4.7182   -8.6538   -5.8762 H   0  0  0  0  0  0  0  0  0  0  0  0
   -4.8104   -7.9097   -4.2790 H   0  0  0  0  0  0  0  0  0  0  0  0
   -3.9162   -7.1044   -5.5976 H   0  0  0  0  0  0  0  0  0  0  0  0
   -8.0759   -8.8563   -8.4641 H   0  0  0  0  0  0  0  0  0  0  0  0
   -9.3786   -9.1638  -10.4442 H   0  0  0  0  0  0  0  0  0  0  0  0
  -11.7036   -9.8621   -9.7604 H   0  0  0  0  0  0  0  0  0  0  0  0
  -10.5235  -10.4445   -8.6096 H   0  0  0  0  0  0  0  0  0  0  0  0
  -10.9781   -8.5604   -7.2308 H   0  0  0  0  0  0  0  0  0  0  0  0
  -13.1030   -7.7851   -9.0886 H   0  0  0  0  0  0  0  0  0  0  0  0
  -12.7687   -7.0536   -7.5421 H   0  0  0  0  0  0  0  0  0  0  0  0
  -11.7856   -5.7703   -9.5168 H   0  0  0  0  0  0  0  0  0  0  0  0
  -10.6395   -5.8496   -7.1756 H   0  0  0  0  0  0  0  0  0  0  0  0
   -9.7867   -5.1368   -8.5281 H   0  0  0  0  0  0  0  0  0  0  0  0
   -9.8686   -6.7612  -10.7663 H   0  0  0  0  0  0  0  0  0  0  0  0
  -11.3368   -7.6835  -11.0143 H   0  0  0  0  0  0  0  0  0  0  0  0
   -8.6583   -4.7303   -6.2126 H   0  0  0  0  0  0  0  0  0  0  0  0
  -12.3721   -9.3861   -7.4720 H   0  0  0  0  0  0  0  0  0  0  0  0
  1  2  1  0
  1 16  1  0
  1 17  1  0
  1 18  1  0
  2 15  1  0
  2  3  2  0
  3  4  1  0
  4  5  1  0
  4 14  2  0
  5 12  1  0
  5  6  2  0
  6  7  1  0
  6 19  1  0
  7 13  1  0
  7  8  1  0
  7 20  1  6
  8  9  1  0
  8 21  1  0
  8 22  1  0
  9 10  1  0
  9 23  1  0
  9 32  1  0
 10 11  1  0
 10 24  1  0
 10 25  1  0
 11 12  1  0
 11 13  1  0
 11 26  1  6
 12 27  1  0
 12 28  1  0
 13 29  1  0
 13 30  1  0
 14 15  1  0
 14 31  1  0
M  CHG  1   9   1
M  END
>  <i_m_ct_stereo_status>  (107) 
1

>  <s_m_source_file>  (107) 
/var/tmp/pbs.5076255.sched01/tmp7dp07en1/447ppmqug5.sdf

>  <i_m_source_file_index>  (107) 
4

>  <i_lp_mmshare_version>  (107) 
48012

>  <i_f3d_flags>  (107) 
0

>  <s_epik_input>  (107) 
W0NIM11jMW5jKFtjSF1zMSlDKD1bQ0hdW0NIXTIzKVtDSDJdW0NAQEhdKFtDSDJdMylbQ0gyXVtOSF1bQ0gyXTI=

>  <s_epik_cmdline>  (107) 
J2VwaWtfcHl0aG9uJywgJy1waHQnLCAnMi4wJywgJy1waCcsICc3LjAnLCAnLXRuJywgJzgnLCAnLW1hJywgJzIwMCcsICctaW1hZScsICc8aW5maWxlLm1hZT4nLCAnLW9tYWUnLCAnPG91dGZpbGUubWFlPic=

>  <r_lp_tautomer_probability>  (107) 
1

>  <r_epik_Ionization_Penalty>  (107) 
0.000705542

>  <r_epik_Ionization_Penalty_Charging>  (107) 
0.000235037

>  <r_epik_Ionization_Penalty_Neutral>  (107) 
0.000470505

>  <r_epik_State_Penalty>  (107) 
-0

>  <r_epik_Charging_Adjusted_Penalty>  (107) 
0.000235037

>  <i_epik_Tot_Q>  (107) 
1

>  <i_epik_Tot_abs_Q>  (107) 
1

>  <s_lp_Force_Field>  (107) 
OPLS3e

>  <r_lp_Energy>  (107) 
19.3965

>  <b_lp_Chiralities_Consistent>  (107) 
1

>  <s_lp_Variant>  (107) 
33:0-1

>  <s_i_glide_gridfile>  (107) 
pfpi4k_grid

>  <i_i_glide_lignum>  (107) 
4

>  <i_i_glide_rotatable_bonds>  (107) 
1

>  <r_i_docking_score>  (107) 
-5.24885

>  <r_i_glide_ligand_efficiency>  (107) 
-0.349924

>  <r_i_glide_ligand_efficiency_sa>  (107) 
-0.862986

>  <r_i_glide_ligand_efficiency_ln>  (107) 
-1.41553

>  <r_i_glide_gscore>  (107) 
-5.24885

>  <r_i_glide_lipo>  (107) 
-1.55983

>  <r_i_glide_hbond>  (107) 
0

>  <r_i_glide_metal>  (107) 
-0

>  <r_i_glide_rewards>  (107) 
-2.40827

>  <r_i_glide_evdw>  (107) 
-21.4435

>  <r_i_glide_ecoul>  (107) 
-3.46336

>  <r_i_glide_erotb>  (107) 
0.344455

>  <r_i_glide_esite>  (107) 
-0.0335252

>  <r_i_glide_emodel>  (107) 
-35.0146

>  <r_i_glide_energy>  (107) 
-24.9068

>  <r_i_glide_einternal>  (107) 
0.00352503

>  <r_i_glide_intrahb_reward>  (107) 
-0

>  <i_i_glide_confnum>  (107) 
2

>  <i_i_glide_posenum>  (107) 
2

>  <r_i_glide_eff_state_penalty>  (107) 
0

>  <ligand_id>  (107) 
33

>  <original_smiles>  (107) 
Cc1nc(C2=CC3CNCC(C2)C3)cs1

>  <smiles>  (107) 
[H]C1=C(c2nc(C([H])([H])[H])sc2[H])C([H])([H])C2([H])C([H])([H])C1([H])C([H])([H])[N+]([H])([H])C2([H])[H]

$$$$
33:0:1
     RDKit          3D

 32 34  0  0  1  0  0  0  0  0999 V2000
   -5.6862   -6.1208   -5.0761 C   0  0  0  0  0  0  0  0  0  0  0  0
   -6.9741   -5.7348   -5.6971 C   0  0  0  0  0  0  0  0  0  0  0  0
   -7.5069   -6.4288   -6.7013 N   0  0  0  0  0  0  0  0  0  0  0  0
   -8.6984   -5.8733   -7.1581 C   0  0  0  0  0  0  0  0  0  0  0  0
   -9.4965   -6.4661   -8.2563 C   0  0  0  0  0  0  0  0  0  0  0  0
   -9.0331   -7.5655   -8.8942 C   0  0  0  0  0  0  0  0  0  0  0  0
   -9.7575   -8.2392  -10.0467 C   0  0  1  0  0  0  0  0  0  0  0  0
  -10.6481   -9.3877   -9.5213 C   0  0  0  0  0  0  0  0  0  0  0  0
  -11.6429   -8.8535   -8.5546 N   0  0  0  0  0  0  0  0  0  0  0  0
  -12.4847   -7.7845   -9.1447 C   0  0  0  0  0  0  0  0  0  0  0  0
  -11.6179   -6.6365   -9.7309 C   0  0  1  0  0  0  0  0  0  0  0  0
  -10.8403   -5.8544   -8.6446 C   0  0  0  0  0  0  0  0  0  0  0  0
  -10.6380   -7.2065  -10.7689 C   0  0  0  0  0  0  0  0  0  0  0  0
   -9.0773   -4.7433   -6.4750 C   0  0  0  0  0  0  0  0  0  0  0  0
   -7.9239   -4.3314   -5.2282 S   0  0  0  0  0  0  0  0  0  0  0  0
   -5.3202   -7.0360   -5.5421 H   0  0  0  0  0  0  0  0  0  0  0  0
   -5.8196   -6.3052   -4.0118 H   0  0  0  0  0  0  0  0  0  0  0  0
   -4.9459   -5.3372   -5.2303 H   0  0  0  0  0  0  0  0  0  0  0  0
   -8.1000   -8.0234   -8.6025 H   0  0  0  0  0  0  0  0  0  0  0  0
   -9.0011   -8.6257  -10.7354 H   0  0  0  0  0  0  0  0  0  0  0  0
  -11.1597   -9.8739  -10.3557 H   0  0  0  0  0  0  0  0  0  0  0  0
  -10.0447  -10.1587   -9.0400 H   0  0  0  0  0  0  0  0  0  0  0  0
  -11.1332   -8.4460   -7.7848 H   0  0  0  0  0  0  0  0  0  0  0  0
  -13.0990   -8.2149   -9.9390 H   0  0  0  0  0  0  0  0  0  0  0  0
  -13.1838   -7.4272   -8.3879 H   0  0  0  0  0  0  0  0  0  0  0  0
  -12.2881   -5.9360  -10.2296 H   0  0  0  0  0  0  0  0  0  0  0  0
  -11.4528   -5.7619   -7.7480 H   0  0  0  0  0  0  0  0  0  0  0  0
  -10.6291   -4.8494   -8.9952 H   0  0  0  0  0  0  0  0  0  0  0  0
  -10.0175   -6.4138  -11.1860 H   0  0  0  0  0  0  0  0  0  0  0  0
  -11.1655   -7.6679  -11.6048 H   0  0  0  0  0  0  0  0  0  0  0  0
   -9.9595   -4.1388   -6.6077 H   0  0  0  0  0  0  0  0  0  0  0  0
  -12.2261   -9.5941   -8.1901 H   0  0  0  0  0  0  0  0  0  0  0  0
  1  2  1  0
  1 16  1  0
  1 17  1  0
  1 18  1  0
  2 15  1  0
  2  3  2  0
  3  4  1  0
  4  5  1  0
  4 14  2  0
  5 12  1  0
  5  6  2  0
  6  7  1  0
  6 19  1  0
  7 13  1  0
  7  8  1  0
  7 20  1  6
  8  9  1  0
  8 21  1  0
  8 22  1  0
  9 10  1  0
  9 23  1  0
  9 32  1  0
 10 11  1  0
 10 24  1  0
 10 25  1  0
 11 12  1  0
 11 13  1  0
 11 26  1  6
 12 27  1  0
 12 28  1  0
 13 29  1  0
 13 30  1  0
 14 15  1  0
 14 31  1  0
M  CHG  1   9   1
M  END
>  <i_m_ct_stereo_status>  (108) 
1

>  <s_m_source_file>  (108) 
/var/tmp/pbs.5076255.sched01/tmp7dp07en1/447ppmqug5.sdf

>  <i_m_source_file_index>  (108) 
4

>  <i_lp_mmshare_version>  (108) 
48012

>  <i_f3d_flags>  (108) 
0

>  <s_epik_input>  (108) 
W0NIM11jMW5jKFtjSF1zMSlDKD1bQ0hdW0NIXTIzKVtDSDJdW0NAQEhdKFtDSDJdMylbQ0gyXVtOSF1bQ0gyXTI=

>  <s_epik_cmdline>  (108) 
J2VwaWtfcHl0aG9uJywgJy1waHQnLCAnMi4wJywgJy1waCcsICc3LjAnLCAnLXRuJywgJzgnLCAnLW1hJywgJzIwMCcsICctaW1hZScsICc8aW5maWxlLm1hZT4nLCAnLW9tYWUnLCAnPG91dGZpbGUubWFlPic=

>  <r_lp_tautomer_probability>  (108) 
1

>  <r_epik_Ionization_Penalty>  (108) 
0.000705542

>  <r_epik_Ionization_Penalty_Charging>  (108) 
0.000235037

>  <r_epik_Ionization_Penalty_Neutral>  (108) 
0.000470505

>  <r_epik_State_Penalty>  (108) 
-0

>  <r_epik_Charging_Adjusted_Penalty>  (108) 
0.000235037

>  <i_epik_Tot_Q>  (108) 
1

>  <i_epik_Tot_abs_Q>  (108) 
1

>  <s_lp_Force_Field>  (108) 
OPLS3e

>  <r_lp_Energy>  (108) 
19.3965

>  <b_lp_Chiralities_Consistent>  (108) 
1

>  <s_lp_Variant>  (108) 
33:0-1

>  <s_i_glide_gridfile>  (108) 
pfpi4k_grid

>  <i_i_glide_lignum>  (108) 
4

>  <i_i_glide_rotatable_bonds>  (108) 
1

>  <r_i_docking_score>  (108) 
-4.85999

>  <r_i_glide_ligand_efficiency>  (108) 
-0.324

>  <r_i_glide_ligand_efficiency_sa>  (108) 
-0.799052

>  <r_i_glide_ligand_efficiency_ln>  (108) 
-1.31066

>  <r_i_glide_gscore>  (108) 
-4.85999

>  <r_i_glide_lipo>  (108) 
-1.502

>  <r_i_glide_hbond>  (108) 
0

>  <r_i_glide_metal>  (108) 
-0

>  <r_i_glide_rewards>  (108) 
-2.27835

>  <r_i_glide_evdw>  (108) 
-20.8319

>  <r_i_glide_ecoul>  (108) 
-2.40327

>  <r_i_glide_erotb>  (108) 
0.344455

>  <r_i_glide_esite>  (108) 
-0.0220064

>  <r_i_glide_emodel>  (108) 
-32.5865

>  <r_i_glide_energy>  (108) 
-23.2352

>  <r_i_glide_einternal>  (108) 
0.00122823

>  <r_i_glide_intrahb_reward>  (108) 
-0

>  <i_i_glide_confnum>  (108) 
4

>  <i_i_glide_posenum>  (108) 
37

>  <r_i_glide_eff_state_penalty>  (108) 
0

>  <ligand_id>  (108) 
33

>  <original_smiles>  (108) 
Cc1nc(C2=CC3CNCC(C2)C3)cs1

>  <smiles>  (108) 
[H]C1=C(c2nc(C([H])([H])[H])sc2[H])C([H])([H])C2([H])C([H])([H])C1([H])C([H])([H])[N+]([H])([H])C2([H])[H]

$$$$
33:0:2
     RDKit          3D

 32 34  0  0  1  0  0  0  0  0999 V2000
   -4.4192    3.3550    8.9235 C   0  0  0  0  0  0  0  0  0  0  0  0
   -3.0316    3.3814    8.4137 C   0  0  0  0  0  0  0  0  0  0  0  0
   -2.6771    2.6987    7.3272 N   0  0  0  0  0  0  0  0  0  0  0  0
   -1.3138    2.8696    7.0212 C   0  0  0  0  0  0  0  0  0  0  0  0
   -0.6525    2.2254    5.8639 C   0  0  0  0  0  0  0  0  0  0  0  0
   -1.4076    1.6180    4.9252 C   0  0  0  0  0  0  0  0  0  0  0  0
   -0.8642    0.8526    3.7322 C   0  0  1  0  0  0  0  0  0  0  0  0
   -0.7455    1.7976    2.5189 C   0  0  0  0  0  0  0  0  0  0  0  0
    0.1453    2.9330    2.8822 N   0  0  0  0  0  0  0  0  0  0  0  0
    1.5000    2.5000    3.3004 C   0  0  0  0  0  0  0  0  0  0  0  0
    1.4154    1.5028    4.4850 C   0  0  1  0  0  0  0  0  0  0  0  0
    0.8758    2.1654    5.7754 C   0  0  0  0  0  0  0  0  0  0  0  0
    0.5282    0.3066    4.0868 C   0  0  0  0  0  0  0  0  0  0  0  0
   -0.6529    3.7077    7.8739 C   0  0  0  0  0  0  0  0  0  0  0  0
   -1.7116    4.3287    9.1149 S   0  0  0  0  0  0  0  0  0  0  0  0
   -5.0053    2.7268    8.2593 H   0  0  0  0  0  0  0  0  0  0  0  0
   -4.8187    4.3661    8.8822 H   0  0  0  0  0  0  0  0  0  0  0  0
   -4.4222    2.9493    9.9348 H   0  0  0  0  0  0  0  0  0  0  0  0
   -2.4847    1.6511    4.9810 H   0  0  0  0  0  0  0  0  0  0  0  0
   -1.5439    0.0275    3.5056 H   0  0  0  0  0  0  0  0  0  0  0  0
   -0.3353    1.2699    1.6552 H   0  0  0  0  0  0  0  0  0  0  0  0
   -1.7235    2.1812    2.2180 H   0  0  0  0  0  0  0  0  0  0  0  0
   -0.2826    3.4445    3.6293 H   0  0  0  0  0  0  0  0  0  0  0  0
    1.9893    2.0218    2.4485 H   0  0  0  0  0  0  0  0  0  0  0  0
    2.0977    3.3777    3.5585 H   0  0  0  0  0  0  0  0  0  0  0  0
    2.4259    1.1454    4.6960 H   0  0  0  0  0  0  0  0  0  0  0  0
    1.2798    3.1711    5.8609 H   0  0  0  0  0  0  0  0  0  0  0  0
    1.2180    1.6037    6.6436 H   0  0  0  0  0  0  0  0  0  0  0  0
    0.4561   -0.4045    4.9141 H   0  0  0  0  0  0  0  0  0  0  0  0
    0.9552   -0.2321    3.2405 H   0  0  0  0  0  0  0  0  0  0  0  0
    0.3890    4.0143    7.8676 H   0  0  0  0  0  0  0  0  0  0  0  0
    0.2140    3.5887    2.0798 H   0  0  0  0  0  0  0  0  0  0  0  0
  1  2  1  0
  1 16  1  0
  1 17  1  0
  1 18  1  0
  2 15  1  0
  2  3  2  0
  3  4  1  0
  4  5  1  0
  4 14  2  0
  5 12  1  0
  5  6  2  0
  6  7  1  0
  6 19  1  0
  7 13  1  0
  7  8  1  0
  7 20  1  6
  8  9  1  0
  8 21  1  0
  8 22  1  0
  9 10  1  0
  9 23  1  0
  9 32  1  0
 10 11  1  0
 10 24  1  0
 10 25  1  0
 11 12  1  0
 11 13  1  0
 11 26  1  1
 12 27  1  0
 12 28  1  0
 13 29  1  0
 13 30  1  0
 14 15  1  0
 14 31  1  0
M  CHG  1   9   1
M  END
>  <i_m_ct_stereo_status>  (109) 
1

>  <s_m_source_file>  (109) 
/var/tmp/pbs.5076255.sched01/tmp7dp07en1/447ppmqug5.sdf

>  <i_m_source_file_index>  (109) 
4

>  <i_lp_mmshare_version>  (109) 
48012

>  <i_f3d_flags>  (109) 
0

>  <s_epik_input>  (109) 
W0NIM11jMW5jKFtjSF1zMSlDKD1bQ0hdW0NIXTIzKVtDSDJdW0NAQEhdKFtDSDJdMylbQ0gyXVtOSF1bQ0gyXTI=

>  <s_epik_cmdline>  (109) 
J2VwaWtfcHl0aG9uJywgJy1waHQnLCAnMi4wJywgJy1waCcsICc3LjAnLCAnLXRuJywgJzgnLCAnLW1hJywgJzIwMCcsICctaW1hZScsICc8aW5maWxlLm1hZT4nLCAnLW9tYWUnLCAnPG91dGZpbGUubWFlPic=

>  <r_lp_tautomer_probability>  (109) 
1

>  <r_epik_Ionization_Penalty>  (109) 
0.000705542

>  <r_epik_Ionization_Penalty_Charging>  (109) 
0.000235037

>  <r_epik_Ionization_Penalty_Neutral>  (109) 
0.000470505

>  <r_epik_State_Penalty>  (109) 
-0

>  <r_epik_Charging_Adjusted_Penalty>  (109) 
0.000235037

>  <i_epik_Tot_Q>  (109) 
1

>  <i_epik_Tot_abs_Q>  (109) 
1

>  <s_lp_Force_Field>  (109) 
OPLS3e

>  <r_lp_Energy>  (109) 
19.3965

>  <b_lp_Chiralities_Consistent>  (109) 
1

>  <s_lp_Variant>  (109) 
33:0-1

>  <s_i_glide_gridfile>  (109) 
pfpi4k_grid

>  <i_i_glide_lignum>  (109) 
4

>  <i_i_glide_rotatable_bonds>  (109) 
1

>  <r_i_docking_score>  (109) 
-3.88079

>  <r_i_glide_ligand_efficiency>  (109) 
-0.258719

>  <r_i_glide_ligand_efficiency_sa>  (109) 
-0.638056

>  <r_i_glide_ligand_efficiency_ln>  (109) 
-1.04658

>  <r_i_glide_gscore>  (109) 
-3.88079

>  <r_i_glide_lipo>  (109) 
-0.118775

>  <r_i_glide_hbond>  (109) 
-0.196912

>  <r_i_glide_metal>  (109) 
-0

>  <r_i_glide_rewards>  (109) 
-1.89994

>  <r_i_glide_evdw>  (109) 
-15.3786

>  <r_i_glide_ecoul>  (109) 
-7.60459

>  <r_i_glide_erotb>  (109) 
0.344455

>  <r_i_glide_esite>  (109) 
-0.1

>  <r_i_glide_emodel>  (109) 
-30.2232

>  <r_i_glide_energy>  (109) 
-22.9832

>  <r_i_glide_einternal>  (109) 
0.219225

>  <r_i_glide_intrahb_reward>  (109) 
-0

>  <i_i_glide_confnum>  (109) 
1

>  <i_i_glide_posenum>  (109) 
1

>  <r_i_glide_eff_state_penalty>  (109) 
0

>  <ligand_id>  (109) 
33

>  <original_smiles>  (109) 
Cc1nc(C2=CC3CNCC(C2)C3)cs1

>  <smiles>  (109) 
[H]C1=C(c2nc(C([H])([H])[H])sc2[H])C([H])([H])C2([H])C([H])([H])C1([H])C([H])([H])[N+]([H])([H])C2([H])[H]

$$$$
34:0:0
     RDKit          3D

 43 48  0  0  1  0  0  0  0  0999 V2000
   -4.0854    3.4226    2.0994 C   0  0  0  0  0  0  0  0  0  0  0  0
   -3.0276    3.9915    2.8798 O   0  0  0  0  0  0  0  0  0  0  0  0
   -1.9555    3.2109    3.2593 C   0  0  0  0  0  0  0  0  0  0  0  0
   -1.5829    2.0314    2.5642 C   0  0  0  0  0  0  0  0  0  0  0  0
   -0.2639    1.5497    2.6881 C   0  0  0  0  0  0  0  0  0  0  0  0
    0.6022    2.0978    3.6652 C   0  0  0  0  0  0  0  0  0  0  0  0
   -0.0104    2.8110    4.6800 C   0  0  0  0  0  0  0  0  0  0  0  0
   -1.0341    3.7233    4.2059 C   0  0  0  0  0  0  0  0  0  0  0  0
   -0.7018    5.1071    4.1137 O   0  0  0  0  0  0  0  0  0  0  0  0
    0.7050    5.4095    3.7119 C   0  0  1  0  0  0  0  0  0  0  0  0
    1.6382    6.5744    4.2866 C   0  0  1  0  0  0  0  0  0  0  0  0
    0.8734    7.7470    4.4976 O   0  0  0  0  0  0  0  0  0  0  0  0
    2.6078    6.2421    5.5573 C   0  0  1  0  0  0  0  0  0  0  0  0
    1.7438    5.6926    6.6632 C   0  0  0  0  0  0  0  0  0  0  0  0
    0.9018    4.6832    5.9501 C   0  0  2  0  0  0  0  0  0  0  0  0
    1.1420    3.4536    5.4467 C   0  0  1  0  0  0  0  0  0  0  0  0
    2.4630    2.8601    6.0003 C   0  0  0  0  0  0  0  0  0  0  0  0
    3.7286    3.8777    6.0207 C   0  0  0  0  0  0  0  0  0  0  0  0
    3.7388    5.2413    5.2971 N   0  0  2  0  0  0  0  0  0  0  0  0
    5.0747    5.8860    5.4078 C   0  0  0  0  0  0  0  0  0  0  0  0
    1.4435    4.3333    4.3646 C   0  0  2  0  0  0  0  0  0  0  0  0
    1.6256    3.1222    3.3759 C   0  0  0  0  0  0  0  0  0  0  0  0
    2.5087    3.0717    2.5272 O   0  0  0  0  0  0  0  0  0  0  0  0
   -4.8871    4.1549    1.9844 H   0  0  0  0  0  0  0  0  0  0  0  0
   -4.5168    2.5467    2.5708 H   0  0  0  0  0  0  0  0  0  0  0  0
   -3.7885    3.1279    1.0976 H   0  0  0  0  0  0  0  0  0  0  0  0
   -2.1997    1.6286    1.7770 H   0  0  0  0  0  0  0  0  0  0  0  0
    0.1111    0.8703    1.9337 H   0  0  0  0  0  0  0  0  0  0  0  0
    0.8090    5.3756    2.6254 H   0  0  0  0  0  0  0  0  0  0  0  0
    2.3048    6.8671    3.4819 H   0  0  0  0  0  0  0  0  0  0  0  0
    0.6047    8.0861    3.6188 H   0  0  0  0  0  0  0  0  0  0  0  0
    3.0455    7.1719    5.9049 H   0  0  0  0  0  0  0  0  0  0  0  0
    2.2763    5.2943    7.5304 H   0  0  0  0  0  0  0  0  0  0  0  0
    1.0921    6.4846    7.0418 H   0  0  0  0  0  0  0  0  0  0  0  0
   -0.1241    4.7906    6.2905 H   0  0  0  0  0  0  0  0  0  0  0  0
    2.2964    2.5014    7.0185 H   0  0  0  0  0  0  0  0  0  0  0  0
    2.7386    1.9532    5.4571 H   0  0  0  0  0  0  0  0  0  0  0  0
    4.0452    4.0179    7.0535 H   0  0  0  0  0  0  0  0  0  0  0  0
    4.5597    3.3219    5.5990 H   0  0  0  0  0  0  0  0  0  0  0  0
    5.3068    6.1812    6.4317 H   0  0  0  0  0  0  0  0  0  0  0  0
    5.1391    6.7779    4.7842 H   0  0  0  0  0  0  0  0  0  0  0  0
    5.8694    5.2168    5.0837 H   0  0  0  0  0  0  0  0  0  0  0  0
    3.6537    5.0143    4.3178 H   0  0  0  0  0  0  0  0  0  0  0  0
  1  2  1  0
  1 24  1  0
  1 25  1  0
  1 26  1  0
  2  3  1  0
  3  8  2  0
  3  4  1  0
  4  5  2  0
  4 27  1  0
  5  6  1  0
  5 28  1  0
  6 22  1  0
  6  7  2  0
  7 16  1  0
  7  8  1  0
  8  9  1  0
  9 10  1  0
 10 21  1  0
 10 11  1  0
 10 29  1  6
 11 12  1  0
 11 13  1  0
 11 30  1  6
 12 31  1  0
 13 19  1  0
 13 14  1  0
 13 32  1  1
 14 15  1  0
 14 33  1  0
 14 34  1  0
 15 21  1  0
 15 16  1  0
 15 35  1  6
 16 17  1  1
 16 21  1  0
 17 18  1  0
 17 36  1  0
 17 37  1  0
 18 19  1  0
 18 38  1  0
 18 39  1  0
 19 20  1  0
 19 43  1  6
 20 40  1  0
 20 41  1  0
 20 42  1  0
 21 22  1  1
 22 23  2  0
M  CHG  1  19   1
M  END
>  <i_m_ct_stereo_status>  (110) 
1

>  <s_m_source_file>  (110) 
/var/tmp/pbs.5076255.sched01/tmp7dp07en1/447ppmqug5.sdf

>  <i_m_source_file_index>  (110) 
5

>  <i_lp_mmshare_version>  (110) 
48012

>  <i_f3d_flags>  (110) 
0

>  <s_epik_input>  (110) 
W0NIM11PYzFbY0hdW2NIXWMoQzI9TyljM2MxT1tDQEhdKFtDQEBdMjRbQ0BdMzU2KVtDQEBIXShbT0hdKVtDQEBIXShbQ0gyXVtDQEBIXTQ1KU4oW0NIM10pW0NIMl1bQ0gyXTY=

>  <s_epik_cmdline>  (110) 
J2VwaWtfcHl0aG9uJywgJy1waHQnLCAnMi4wJywgJy1waCcsICc3LjAnLCAnLXRuJywgJzgnLCAnLW1hJywgJzIwMCcsICctaW1hZScsICc8aW5maWxlLm1hZT4nLCAnLW9tYWUnLCAnPG91dGZpbGUubWFlPic=

>  <r_epik_Ionization_Penalty>  (110) 
0.0520828

>  <r_epik_Ionization_Penalty_Charging>  (110) 
0.0520785

>  <r_epik_Ionization_Penalty_Neutral>  (110) 
4.28036e-06

>  <r_epik_State_Penalty>  (110) 
0.0446548

>  <r_epik_Charging_Adjusted_Penalty>  (110) 
0.0967333

>  <i_epik_Tot_Q>  (110) 
1

>  <i_epik_Tot_abs_Q>  (110) 
1

>  <s_lp_Force_Field>  (110) 
OPLS3e

>  <r_lp_Energy>  (110) 
345.626

>  <b_lp_Chiralities_Consistent>  (110) 
1

>  <s_lp_Variant>  (110) 
34:0-1

>  <s_i_glide_gridfile>  (110) 
pfpi4k_grid

>  <i_i_glide_lignum>  (110) 
5

>  <i_i_glide_rotatable_bonds>  (110) 
2

>  <r_i_docking_score>  (110) 
-3.84819

>  <r_i_glide_ligand_efficiency>  (110) 
-0.167313

>  <r_i_glide_ligand_efficiency_sa>  (110) 
-0.475815

>  <r_i_glide_ligand_efficiency_ln>  (110) 
-0.930527

>  <r_i_glide_gscore>  (110) 
-3.84819

>  <r_i_glide_lipo>  (110) 
-0.196585

>  <r_i_glide_hbond>  (110) 
-0.0730484

>  <r_i_glide_metal>  (110) 
-0

>  <r_i_glide_rewards>  (110) 
-1.26576

>  <r_i_glide_evdw>  (110) 
-16.2553

>  <r_i_glide_ecoul>  (110) 
-9.66277

>  <r_i_glide_erotb>  (110) 
0

>  <r_i_glide_esite>  (110) 
-0.0506157

>  <r_i_glide_emodel>  (110) 
-32.368

>  <r_i_glide_energy>  (110) 
-25.9181

>  <r_i_glide_einternal>  (110) 
0.963258

>  <r_i_glide_intrahb_reward>  (110) 
-0

>  <i_i_glide_confnum>  (110) 
1

>  <i_i_glide_posenum>  (110) 
17

>  <r_i_glide_eff_state_penalty>  (110) 
0

>  <ligand_id>  (110) 
34

>  <original_smiles>  (110) 
COc1ccc2c3c1OC1C(O)C4CC5C3(CCN4C)C15C2=O

>  <smiles>  (110) 
[H]OC1([H])C2([H])Oc3c(OC([H])([H])[H])c([H])c([H])c4c3C35C([H])([H])C([H])([H])[N+]([H])(C([H])([H])[H])C1([H])C([H])([H])C3([H])C25C4=O

$$$$
34:0:1
     RDKit          3D

 43 48  0  0  1  0  0  0  0  0999 V2000
   -2.5603    6.8102    1.5135 C   0  0  0  0  0  0  0  0  0  0  0  0
   -1.5579    6.1377    2.2866 O   0  0  0  0  0  0  0  0  0  0  0  0
   -1.8801    4.9391    2.8842 C   0  0  0  0  0  0  0  0  0  0  0  0
   -3.0276    4.1940    2.5214 C   0  0  0  0  0  0  0  0  0  0  0  0
   -3.0588    2.8459    2.8748 C   0  0  0  0  0  0  0  0  0  0  0  0
   -2.1157    2.2960    3.7795 C   0  0  0  0  0  0  0  0  0  0  0  0
   -1.4536    3.2064    4.5681 C   0  0  0  0  0  0  0  0  0  0  0  0
   -0.9782    4.3586    3.8205 C   0  0  0  0  0  0  0  0  0  0  0  0
    0.4001    4.4067    3.5057 O   0  0  0  0  0  0  0  0  0  0  0  0
    1.0147    3.0923    3.1633 C   0  0  1  0  0  0  0  0  0  0  0  0
    2.4948    2.6130    3.5442 C   0  0  1  0  0  0  0  0  0  0  0  0
    3.3868    3.7063    3.4707 O   0  0  0  0  0  0  0  0  0  0  0  0
    2.6976    1.7637    4.9296 C   0  0  1  0  0  0  0  0  0  0  0  0
    2.1153    2.5927    6.0470 C   0  0  0  0  0  0  0  0  0  0  0  0
    0.7885    3.0130    5.5059 C   0  0  2  0  0  0  0  0  0  0  0  0
   -0.3802    2.3783    5.2829 C   0  0  1  0  0  0  0  0  0  0  0  0
   -0.4539    1.0270    6.0568 C   0  0  0  0  0  0  0  0  0  0  0  0
    0.8941    0.1112    5.9683 C   0  0  0  0  0  0  0  0  0  0  0  0
    2.0514    0.3739    4.9779 N   0  0  2  0  0  0  0  0  0  0  0  0
    3.0742   -0.6988    5.0605 C   0  0  0  0  0  0  0  0  0  0  0  0
    0.3435    2.1835    4.0777 C   0  0  2  0  0  0  0  0  0  0  0  0
   -0.9095    1.5431    3.3768 C   0  0  0  0  0  0  0  0  0  0  0  0
   -0.8448    0.5599    2.6407 O   0  0  0  0  0  0  0  0  0  0  0  0
   -2.1898    7.7675    1.1747 H   0  0  0  0  0  0  0  0  0  0  0  0
   -3.4661    7.0261    2.0794 H   0  0  0  0  0  0  0  0  0  0  0  0
   -2.8473    6.2756    0.6172 H   0  0  0  0  0  0  0  0  0  0  0  0
   -3.7608    4.5435    1.8073 H   0  0  0  0  0  0  0  0  0  0  0  0
   -3.7037    2.2016    2.2992 H   0  0  0  0  0  0  0  0  0  0  0  0
    0.8274    2.8283    2.1176 H   0  0  0  0  0  0  0  0  0  0  0  0
    2.8173    1.9434    2.7440 H   0  0  0  0  0  0  0  0  0  0  0  0
    4.0803    3.4692    2.8606 H   0  0  0  0  0  0  0  0  0  0  0  0
    3.7672    1.6588    5.1104 H   0  0  0  0  0  0  0  0  0  0  0  0
    2.0533    2.1012    7.0238 H   0  0  0  0  0  0  0  0  0  0  0  0
    2.7223    3.4855    6.1952 H   0  0  0  0  0  0  0  0  0  0  0  0
    0.6368    4.0662    5.7372 H   0  0  0  0  0  0  0  0  0  0  0  0
   -0.6523    1.2396    7.1113 H   0  0  0  0  0  0  0  0  0  0  0  0
   -1.3118    0.4400    5.7289 H   0  0  0  0  0  0  0  0  0  0  0  0
    1.3052    0.0039    6.9731 H   0  0  0  0  0  0  0  0  0  0  0  0
    0.5453   -0.8943    5.7400 H   0  0  0  0  0  0  0  0  0  0  0  0
    3.5961   -0.6883    6.0183 H   0  0  0  0  0  0  0  0  0  0  0  0
    3.8176   -0.5931    4.2706 H   0  0  0  0  0  0  0  0  0  0  0  0
    2.6170   -1.6815    4.9439 H   0  0  0  0  0  0  0  0  0  0  0  0
    1.6375    0.2611    4.0621 H   0  0  0  0  0  0  0  0  0  0  0  0
  1  2  1  0
  1 24  1  0
  1 25  1  0
  1 26  1  0
  2  3  1  0
  3  8  2  0
  3  4  1  0
  4  5  2  0
  4 27  1  0
  5  6  1  0
  5 28  1  0
  6 22  1  0
  6  7  2  0
  7 16  1  0
  7  8  1  0
  8  9  1  0
  9 10  1  0
 10 21  1  0
 10 11  1  0
 10 29  1  6
 11 12  1  0
 11 13  1  0
 11 30  1  6
 12 31  1  0
 13 19  1  0
 13 14  1  0
 13 32  1  1
 14 15  1  0
 14 33  1  0
 14 34  1  0
 15 21  1  0
 15 16  1  0
 15 35  1  6
 16 17  1  1
 16 21  1  0
 17 18  1  0
 17 36  1  0
 17 37  1  0
 18 19  1  0
 18 38  1  0
 18 39  1  0
 19 20  1  0
 19 43  1  6
 20 40  1  0
 20 41  1  0
 20 42  1  0
 21 22  1  1
 22 23  2  0
M  CHG  1  19   1
M  END
>  <i_m_ct_stereo_status>  (111) 
1

>  <s_m_source_file>  (111) 
/var/tmp/pbs.5076255.sched01/tmp7dp07en1/447ppmqug5.sdf

>  <i_m_source_file_index>  (111) 
5

>  <i_lp_mmshare_version>  (111) 
48012

>  <i_f3d_flags>  (111) 
0

>  <s_epik_input>  (111) 
W0NIM11PYzFbY0hdW2NIXWMoQzI9TyljM2MxT1tDQEhdKFtDQEBdMjRbQ0BdMzU2KVtDQEBIXShbT0hdKVtDQEBIXShbQ0gyXVtDQEBIXTQ1KU4oW0NIM10pW0NIMl1bQ0gyXTY=

>  <s_epik_cmdline>  (111) 
J2VwaWtfcHl0aG9uJywgJy1waHQnLCAnMi4wJywgJy1waCcsICc3LjAnLCAnLXRuJywgJzgnLCAnLW1hJywgJzIwMCcsICctaW1hZScsICc8aW5maWxlLm1hZT4nLCAnLW9tYWUnLCAnPG91dGZpbGUubWFlPic=

>  <r_epik_Ionization_Penalty>  (111) 
0.0520828

>  <r_epik_Ionization_Penalty_Charging>  (111) 
0.0520785

>  <r_epik_Ionization_Penalty_Neutral>  (111) 
4.28036e-06

>  <r_epik_State_Penalty>  (111) 
0.0446548

>  <r_epik_Charging_Adjusted_Penalty>  (111) 
0.0967333

>  <i_epik_Tot_Q>  (111) 
1

>  <i_epik_Tot_abs_Q>  (111) 
1

>  <s_lp_Force_Field>  (111) 
OPLS3e

>  <r_lp_Energy>  (111) 
345.626

>  <b_lp_Chiralities_Consistent>  (111) 
1

>  <s_lp_Variant>  (111) 
34:0-1

>  <s_i_glide_gridfile>  (111) 
pfpi4k_grid

>  <i_i_glide_lignum>  (111) 
5

>  <i_i_glide_rotatable_bonds>  (111) 
2

>  <r_i_docking_score>  (111) 
-2.41871

>  <r_i_glide_ligand_efficiency>  (111) 
-0.105161

>  <r_i_glide_ligand_efficiency_sa>  (111) 
-0.299065

>  <r_i_glide_ligand_efficiency_ln>  (111) 
-0.584866

>  <r_i_glide_gscore>  (111) 
-2.41871

>  <r_i_glide_lipo>  (111) 
0

>  <r_i_glide_hbond>  (111) 
-0.11564

>  <r_i_glide_metal>  (111) 
-0

>  <r_i_glide_rewards>  (111) 
-1.26576

>  <r_i_glide_evdw>  (111) 
-4.79161

>  <r_i_glide_ecoul>  (111) 
-5.1006

>  <r_i_glide_erotb>  (111) 
0

>  <r_i_glide_esite>  (111) 
-0.0326443

>  <r_i_glide_emodel>  (111) 
-13.2897

>  <r_i_glide_energy>  (111) 
-9.89221

>  <r_i_glide_einternal>  (111) 
1.38938

>  <r_i_glide_intrahb_reward>  (111) 
-0

>  <i_i_glide_confnum>  (111) 
1

>  <i_i_glide_posenum>  (111) 
22

>  <r_i_glide_eff_state_penalty>  (111) 
0

>  <ligand_id>  (111) 
34

>  <original_smiles>  (111) 
COc1ccc2c3c1OC1C(O)C4CC5C3(CCN4C)C15C2=O

>  <smiles>  (111) 
[H]OC1([H])C2([H])Oc3c(OC([H])([H])[H])c([H])c([H])c4c3C35C([H])([H])C([H])([H])[N+]([H])(C([H])([H])[H])C1([H])C([H])([H])C3([H])C25C4=O

$$$$
34:0:2
     RDKit          3D

 43 48  0  0  1  0  0  0  0  0999 V2000
   -2.9827    6.6737    1.6652 C   0  0  0  0  0  0  0  0  0  0  0  0
   -1.7656    6.1180    2.1757 O   0  0  0  0  0  0  0  0  0  0  0  0
   -1.8034    4.9371    2.8955 C   0  0  0  0  0  0  0  0  0  0  0  0
   -2.6744    3.8746    2.5637 C   0  0  0  0  0  0  0  0  0  0  0  0
   -2.3009    2.5684    2.9389 C   0  0  0  0  0  0  0  0  0  0  0  0
   -1.2915    2.3696    3.9093 C   0  0  0  0  0  0  0  0  0  0  0  0
   -0.9759    3.4652    4.6726 C   0  0  0  0  0  0  0  0  0  0  0  0
   -0.8076    4.6758    3.8826 C   0  0  0  0  0  0  0  0  0  0  0  0
    0.5077    5.1166    3.6293 O   0  0  0  0  0  0  0  0  0  0  0  0
    1.4986    4.0278    3.3923 C   0  0  1  0  0  0  0  0  0  0  0  0
    3.0253    4.0156    3.8732 C   0  0  1  0  0  0  0  0  0  0  0  0
    3.5478    5.3270    3.7718 O   0  0  0  0  0  0  0  0  0  0  0  0
    3.3835    3.3068    5.3054 C   0  0  1  0  0  0  0  0  0  0  0  0
    2.5255    3.9681    6.3529 C   0  0  0  0  0  0  0  0  0  0  0  0
    1.1684    3.9717    5.7213 C   0  0  2  0  0  0  0  0  0  0  0  0
    0.2454    3.0196    5.4769 C   0  0  1  0  0  0  0  0  0  0  0  0
    0.5143    1.7361    6.3153 C   0  0  0  0  0  0  0  0  0  0  0  0
    2.0635    1.2400    6.3376 C   0  0  0  0  0  0  0  0  0  0  0  0
    3.1576    1.7905    5.3933 N   0  0  2  0  0  0  0  0  0  0  0  0
    4.4335    1.0551    5.5790 C   0  0  0  0  0  0  0  0  0  0  0  0
    1.0671    2.9975    4.3195 C   0  0  2  0  0  0  0  0  0  0  0  0
    0.0976    1.9884    3.5911 C   0  0  0  0  0  0  0  0  0  0  0  0
    0.4776    1.0472    2.8941 O   0  0  0  0  0  0  0  0  0  0  0  0
   -2.7682    7.6860    1.3122 H   0  0  0  0  0  0  0  0  0  0  0  0
   -3.7743    6.7447    2.4144 H   0  0  0  0  0  0  0  0  0  0  0  0
   -3.3906    6.1483    0.8051 H   0  0  0  0  0  0  0  0  0  0  0  0
   -3.4075    3.9910    1.7774 H   0  0  0  0  0  0  0  0  0  0  0  0
   -2.6208    1.7442    2.3201 H   0  0  0  0  0  0  0  0  0  0  0  0
    1.4597    3.6857    2.3577 H   0  0  0  0  0  0  0  0  0  0  0  0
    3.5654    3.4355    3.1277 H   0  0  0  0  0  0  0  0  0  0  0  0
    3.4430    5.6123    2.8738 H   0  0  0  0  0  0  0  0  0  0  0  0
    4.4240    3.5143    5.5397 H   0  0  0  0  0  0  0  0  0  0  0  0
    2.5461    3.5111    7.3461 H   0  0  0  0  0  0  0  0  0  0  0  0
    2.8473    5.0027    6.4860 H   0  0  0  0  0  0  0  0  0  0  0  0
    0.7147    4.9449    5.8865 H   0  0  0  0  0  0  0  0  0  0  0  0
    0.1948    1.9166    7.3461 H   0  0  0  0  0  0  0  0  0  0  0  0
   -0.1248    0.9181    5.9783 H   0  0  0  0  0  0  0  0  0  0  0  0
    2.4247    1.2852    7.3656 H   0  0  0  0  0  0  0  0  0  0  0  0
    2.0270    0.1706    6.1434 H   0  0  0  0  0  0  0  0  0  0  0  0
    4.8724    1.2434    6.5592 H   0  0  0  0  0  0  0  0  0  0  0  0
    5.1638    1.3388    4.8232 H   0  0  0  0  0  0  0  0  0  0  0  0
    4.2807   -0.0200    5.4897 H   0  0  0  0  0  0  0  0  0  0  0  0
    2.8515    1.5305    4.4656 H   0  0  0  0  0  0  0  0  0  0  0  0
  1  2  1  0
  1 24  1  0
  1 25  1  0
  1 26  1  0
  2  3  1  0
  3  8  2  0
  3  4  1  0
  4  5  2  0
  4 27  1  0
  5  6  1  0
  5 28  1  0
  6 22  1  0
  6  7  2  0
  7 16  1  0
  7  8  1  0
  8  9  1  0
  9 10  1  0
 10 21  1  0
 10 11  1  0
 10 29  1  6
 11 12  1  0
 11 13  1  0
 11 30  1  6
 12 31  1  0
 13 19  1  0
 13 14  1  0
 13 32  1  1
 14 15  1  0
 14 33  1  0
 14 34  1  0
 15 21  1  0
 15 16  1  0
 15 35  1  6
 16 17  1  1
 16 21  1  0
 17 18  1  0
 17 36  1  0
 17 37  1  0
 18 19  1  0
 18 38  1  0
 18 39  1  0
 19 20  1  0
 19 43  1  6
 20 40  1  0
 20 41  1  0
 20 42  1  0
 21 22  1  1
 22 23  2  0
M  CHG  1  19   1
M  END
>  <i_m_ct_stereo_status>  (112) 
1

>  <s_m_source_file>  (112) 
/var/tmp/pbs.5076255.sched01/tmp7dp07en1/447ppmqug5.sdf

>  <i_m_source_file_index>  (112) 
5

>  <i_lp_mmshare_version>  (112) 
48012

>  <i_f3d_flags>  (112) 
0

>  <s_epik_input>  (112) 
W0NIM11PYzFbY0hdW2NIXWMoQzI9TyljM2MxT1tDQEhdKFtDQEBdMjRbQ0BdMzU2KVtDQEBIXShbT0hdKVtDQEBIXShbQ0gyXVtDQEBIXTQ1KU4oW0NIM10pW0NIMl1bQ0gyXTY=

>  <s_epik_cmdline>  (112) 
J2VwaWtfcHl0aG9uJywgJy1waHQnLCAnMi4wJywgJy1waCcsICc3LjAnLCAnLXRuJywgJzgnLCAnLW1hJywgJzIwMCcsICctaW1hZScsICc8aW5maWxlLm1hZT4nLCAnLW9tYWUnLCAnPG91dGZpbGUubWFlPic=

>  <r_epik_Ionization_Penalty>  (112) 
0.0520828

>  <r_epik_Ionization_Penalty_Charging>  (112) 
0.0520785

>  <r_epik_Ionization_Penalty_Neutral>  (112) 
4.28036e-06

>  <r_epik_State_Penalty>  (112) 
0.0446548

>  <r_epik_Charging_Adjusted_Penalty>  (112) 
0.0967333

>  <i_epik_Tot_Q>  (112) 
1

>  <i_epik_Tot_abs_Q>  (112) 
1

>  <s_lp_Force_Field>  (112) 
OPLS3e

>  <r_lp_Energy>  (112) 
345.626

>  <b_lp_Chiralities_Consistent>  (112) 
1

>  <s_lp_Variant>  (112) 
34:0-1

>  <s_i_glide_gridfile>  (112) 
pfpi4k_grid

>  <i_i_glide_lignum>  (112) 
5

>  <i_i_glide_rotatable_bonds>  (112) 
2

>  <r_i_docking_score>  (112) 
-2.26296

>  <r_i_glide_ligand_efficiency>  (112) 
-0.0983897

>  <r_i_glide_ligand_efficiency_sa>  (112) 
-0.279807

>  <r_i_glide_ligand_efficiency_ln>  (112) 
-0.547205

>  <r_i_glide_gscore>  (112) 
-2.26296

>  <r_i_glide_lipo>  (112) 
-0.00770138

>  <r_i_glide_hbond>  (112) 
-0.116257

>  <r_i_glide_metal>  (112) 
-0

>  <r_i_glide_rewards>  (112) 
-1.26576

>  <r_i_glide_evdw>  (112) 
-9.62104

>  <r_i_glide_ecoul>  (112) 
-2.35204

>  <r_i_glide_erotb>  (112) 
0

>  <r_i_glide_esite>  (112) 
-0.0393896

>  <r_i_glide_emodel>  (112) 
-14.9303

>  <r_i_glide_energy>  (112) 
-11.9731

>  <r_i_glide_einternal>  (112) 
1.57124

>  <r_i_glide_intrahb_reward>  (112) 
-0

>  <i_i_glide_confnum>  (112) 
1

>  <i_i_glide_posenum>  (112) 
36

>  <r_i_glide_eff_state_penalty>  (112) 
0

>  <ligand_id>  (112) 
34

>  <original_smiles>  (112) 
COc1ccc2c3c1OC1C(O)C4CC5C3(CCN4C)C15C2=O

>  <smiles>  (112) 
[H]OC1([H])C2([H])Oc3c(OC([H])([H])[H])c([H])c([H])c4c3C35C([H])([H])C([H])([H])[N+]([H])(C([H])([H])[H])C1([H])C([H])([H])C3([H])C25C4=O

$$$$
34:1:0
     RDKit          3D

 42 47  0  0  1  0  0  0  0  0999 V2000
   -4.1314    3.4290    2.0471 C   0  0  0  0  0  0  0  0  0  0  0  0
   -3.1385    4.0185    2.8828 O   0  0  0  0  0  0  0  0  0  0  0  0
   -2.0506    3.2699    3.2933 C   0  0  0  0  0  0  0  0  0  0  0  0
   -1.5991    2.1202    2.5958 C   0  0  0  0  0  0  0  0  0  0  0  0
   -0.2688    1.6862    2.7803 C   0  0  0  0  0  0  0  0  0  0  0  0
    0.5198    2.2527    3.8093 C   0  0  0  0  0  0  0  0  0  0  0  0
   -0.1704    2.9092    4.8066 C   0  0  0  0  0  0  0  0  0  0  0  0
   -1.2074    3.7940    4.3003 C   0  0  0  0  0  0  0  0  0  0  0  0
   -0.9275    5.1833    4.2439 O   0  0  0  0  0  0  0  0  0  0  0  0
    0.4857    5.5664    3.9529 C   0  0  1  0  0  0  0  0  0  0  0  0
    1.3141    6.7697    4.6368 C   0  0  1  0  0  0  0  0  0  0  0  0
    0.4416    7.8555    4.8744 O   0  0  0  0  0  0  0  0  0  0  0  0
    2.2563    6.4072    5.9346 C   0  0  1  0  0  0  0  0  0  0  0  0
    1.3143    5.8122    6.9530 C   0  0  0  0  0  0  0  0  0  0  0  0
    0.5716    4.7792    6.1706 C   0  0  2  0  0  0  0  0  0  0  0  0
    0.9094    3.5757    5.6504 C   0  0  1  0  0  0  0  0  0  0  0  0
    2.2246    3.0013    6.2663 C   0  0  0  0  0  0  0  0  0  0  0  0
    3.4259    4.0862    6.4129 C   0  0  0  0  0  0  0  0  0  0  0  0
    3.4002    5.4351    5.7030 N   0  0  0  0  0  0  0  0  0  0  0  0
    4.6844    6.0133    5.3503 C   0  0  0  0  0  0  0  0  0  0  0  0
    1.2200    4.4979    4.6112 C   0  0  2  0  0  0  0  0  0  0  0  0
    1.5119    3.3302    3.5924 C   0  0  0  0  0  0  0  0  0  0  0  0
    2.4242    3.3404    2.7648 O   0  0  0  0  0  0  0  0  0  0  0  0
   -4.9516    4.1329    1.8963 H   0  0  0  0  0  0  0  0  0  0  0  0
   -4.5685    2.5493    2.4924 H   0  0  0  0  0  0  0  0  0  0  0  0
   -3.7838    3.1463    1.0618 H   0  0  0  0  0  0  0  0  0  0  0  0
   -2.1599    1.7167    1.7699 H   0  0  0  0  0  0  0  0  0  0  0  0
    0.1747    1.0436    2.0286 H   0  0  0  0  0  0  0  0  0  0  0  0
    0.6556    5.5855    2.8699 H   0  0  0  0  0  0  0  0  0  0  0  0
    2.0209    7.1345    3.8889 H   0  0  0  0  0  0  0  0  0  0  0  0
    0.2370    8.2102    4.0016 H   0  0  0  0  0  0  0  0  0  0  0  0
    2.6617    7.3278    6.3474 H   0  0  0  0  0  0  0  0  0  0  0  0
    1.7831    5.4238    7.8590 H   0  0  0  0  0  0  0  0  0  0  0  0
    0.6048    6.5692    7.2825 H   0  0  0  0  0  0  0  0  0  0  0  0
   -0.4740    4.8077    6.4639 H   0  0  0  0  0  0  0  0  0  0  0  0
    2.0105    2.5454    7.2385 H   0  0  0  0  0  0  0  0  0  0  0  0
    2.5955    2.1787    5.6563 H   0  0  0  0  0  0  0  0  0  0  0  0
    3.6053    4.2560    7.4747 H   0  0  0  0  0  0  0  0  0  0  0  0
    4.3287    3.5599    6.1012 H   0  0  0  0  0  0  0  0  0  0  0  0
    5.3158    5.2544    4.8906 H   0  0  0  0  0  0  0  0  0  0  0  0
    5.2075    6.4082    6.2184 H   0  0  0  0  0  0  0  0  0  0  0  0
    4.5575    6.8105    4.6183 H   0  0  0  0  0  0  0  0  0  0  0  0
  1  2  1  0
  1 24  1  0
  1 25  1  0
  1 26  1  0
  2  3  1  0
  3  8  2  0
  3  4  1  0
  4  5  2  0
  4 27  1  0
  5  6  1  0
  5 28  1  0
  6 22  1  0
  6  7  2  0
  7 16  1  0
  7  8  1  0
  8  9  1  0
  9 10  1  0
 10 21  1  0
 10 11  1  0
 10 29  1  6
 11 12  1  0
 11 13  1  0
 11 30  1  6
 12 31  1  0
 13 19  1  0
 13 14  1  0
 13 32  1  1
 14 15  1  0
 14 33  1  0
 14 34  1  0
 15 21  1  0
 15 16  1  0
 15 35  1  6
 16 17  1  1
 16 21  1  0
 17 18  1  0
 17 36  1  0
 17 37  1  0
 18 19  1  0
 18 38  1  0
 18 39  1  0
 19 20  1  0
 20 40  1  0
 20 41  1  0
 20 42  1  0
 21 22  1  1
 22 23  2  0
M  END
>  <i_m_ct_stereo_status>  (113) 
1

>  <s_m_source_file>  (113) 
/var/tmp/pbs.5076255.sched01/tmp7dp07en1/447ppmqug5.sdf

>  <i_m_source_file_index>  (113) 
6

>  <i_lp_mmshare_version>  (113) 
48012

>  <i_f3d_flags>  (113) 
0

>  <s_epik_input>  (113) 
W0NIM11PYzFbY0hdW2NIXWMoQzI9TyljM2MxT1tDQEhdKFtDQEBdMjRbQ0BdMzU2KVtDQEBIXShbT0hdKVtDQEBIXShbQ0gyXVtDQEBIXTQ1KU4oW0NIM10pW0NIMl1bQ0gyXTY=

>  <s_epik_cmdline>  (113) 
J2VwaWtfcHl0aG9uJywgJy1waHQnLCAnMi4wJywgJy1waCcsICc3LjAnLCAnLXRuJywgJzgnLCAnLW1hJywgJzIwMCcsICctaW1hZScsICc8aW5maWxlLm1hZT4nLCAnLW9tYWUnLCAnPG91dGZpbGUubWFlPic=

>  <r_epik_Ionization_Penalty>  (113) 
1.46652

>  <r_epik_Ionization_Penalty_Charging>  (113) 
0

>  <r_epik_Ionization_Penalty_Neutral>  (113) 
1.46652

>  <r_epik_State_Penalty>  (113) 
1.55398

>  <r_epik_Charging_Adjusted_Penalty>  (113) 
1.55398

>  <i_epik_Tot_Q>  (113) 
0

>  <i_epik_Tot_abs_Q>  (113) 
0

>  <s_lp_Force_Field>  (113) 
OPLS3e

>  <r_lp_Energy>  (113) 
338.909

>  <b_lp_Chiralities_Consistent>  (113) 
1

>  <s_lp_Variant>  (113) 
34:0-2

>  <s_i_glide_gridfile>  (113) 
pfpi4k_grid

>  <i_i_glide_lignum>  (113) 
6

>  <i_i_glide_rotatable_bonds>  (113) 
2

>  <r_i_docking_score>  (113) 
-3.57149

>  <r_i_glide_ligand_efficiency>  (113) 
-0.155282

>  <r_i_glide_ligand_efficiency_sa>  (113) 
-0.441602

>  <r_i_glide_ligand_efficiency_ln>  (113) 
-0.863619

>  <r_i_glide_gscore>  (113) 
-3.57149

>  <r_i_glide_lipo>  (113) 
-0.187438

>  <r_i_glide_hbond>  (113) 
-0.0897614

>  <r_i_glide_metal>  (113) 
-0

>  <r_i_glide_rewards>  (113) 
-1.27263

>  <r_i_glide_evdw>  (113) 
-17.6385

>  <r_i_glide_ecoul>  (113) 
-7.25577

>  <r_i_glide_erotb>  (113) 
0

>  <r_i_glide_esite>  (113) 
-0.0513739

>  <r_i_glide_emodel>  (113) 
-30.1144

>  <r_i_glide_energy>  (113) 
-24.8943

>  <r_i_glide_einternal>  (113) 
0.961159

>  <r_i_glide_intrahb_reward>  (113) 
-0

>  <i_i_glide_confnum>  (113) 
2

>  <i_i_glide_posenum>  (113) 
21

>  <r_i_glide_eff_state_penalty>  (113) 
0

>  <ligand_id>  (113) 
34

>  <original_smiles>  (113) 
COc1ccc2c3c1OC1C(O)C4CC5C3(CCN4C)C15C2=O

>  <smiles>  (113) 
[H]OC1([H])C2([H])Oc3c(OC([H])([H])[H])c([H])c([H])c4c3C35C([H])([H])C([H])([H])N(C([H])([H])[H])C1([H])C([H])([H])C3([H])C25C4=O

$$$$
34:1:1
     RDKit          3D

 42 47  0  0  1  0  0  0  0  0999 V2000
    5.0445   -3.7366    5.8639 C   0  0  0  0  0  0  0  0  0  0  0  0
    4.1398   -4.6921    5.3295 O   0  0  0  0  0  0  0  0  0  0  0  0
    4.3385   -5.0585    4.0134 C   0  0  0  0  0  0  0  0  0  0  0  0
    3.7908   -6.2758    3.6062 C   0  0  0  0  0  0  0  0  0  0  0  0
    3.6227   -6.5482    2.2280 C   0  0  0  0  0  0  0  0  0  0  0  0
    4.1843   -5.6606    1.2668 C   0  0  0  0  0  0  0  0  0  0  0  0
    5.1436   -4.8033    1.7342 C   0  0  0  0  0  0  0  0  0  0  0  0
    4.8298   -4.1660    3.0224 C   0  0  0  0  0  0  0  0  0  0  0  0
    4.3191   -2.8501    3.0022 O   0  0  0  0  0  0  0  0  0  0  0  0
    3.4602   -2.4634    1.8456 C   0  0  1  0  0  0  0  0  0  0  0  0
    3.5003   -1.0652    1.0581 C   0  0  1  0  0  0  0  0  0  0  0  0
    3.7491   -0.0296    1.9881 O   0  0  0  0  0  0  0  0  0  0  0  0
    4.4757   -0.9578   -0.2486 C   0  0  1  0  0  0  0  0  0  0  0  0
    5.8684   -1.2838    0.2393 C   0  0  0  0  0  0  0  0  0  0  0  0
    5.6581   -2.5532    0.9798 C   0  0  2  0  0  0  0  0  0  0  0  0
    5.3716   -3.8192    0.6123 C   0  0  1  0  0  0  0  0  0  0  0  0
    5.6423   -4.0701   -0.8862 C   0  0  0  0  0  0  0  0  0  0  0  0
    5.1074   -2.9141   -1.8854 C   0  0  0  0  0  0  0  0  0  0  0  0
    4.1354   -1.8496   -1.4222 N   0  0  0  0  0  0  0  0  0  0  0  0
    3.2561   -1.2805   -2.4287 C   0  0  0  0  0  0  0  0  0  0  0  0
    4.0891   -3.2288    0.7882 C   0  0  2  0  0  0  0  0  0  0  0  0
    3.3550   -4.6210    0.6185 C   0  0  0  0  0  0  0  0  0  0  0  0
    2.2521   -4.7854    0.0997 O   0  0  0  0  0  0  0  0  0  0  0  0
    4.7256   -3.3973    6.8508 H   0  0  0  0  0  0  0  0  0  0  0  0
    5.1854   -2.8380    5.2625 H   0  0  0  0  0  0  0  0  0  0  0  0
    6.0141   -4.2182    5.9700 H   0  0  0  0  0  0  0  0  0  0  0  0
    3.3455   -6.9370    4.3495 H   0  0  0  0  0  0  0  0  0  0  0  0
    3.0032   -7.3747    1.9282 H   0  0  0  0  0  0  0  0  0  0  0  0
    2.4185   -2.7687    2.0148 H   0  0  0  0  0  0  0  0  0  0  0  0
    2.4931   -0.8836    0.6897 H   0  0  0  0  0  0  0  0  0  0  0  0
    3.5114    0.8051    1.6022 H   0  0  0  0  0  0  0  0  0  0  0  0
    4.4851    0.0659   -0.5858 H   0  0  0  0  0  0  0  0  0  0  0  0
    6.6368   -1.3559   -0.5304 H   0  0  0  0  0  0  0  0  0  0  0  0
    6.2012   -0.5286    0.9558 H   0  0  0  0  0  0  0  0  0  0  0  0
    6.2810   -2.5394    1.8614 H   0  0  0  0  0  0  0  0  0  0  0  0
    6.7106   -4.2082   -1.0166 H   0  0  0  0  0  0  0  0  0  0  0  0
    5.1906   -5.0045   -1.1975 H   0  0  0  0  0  0  0  0  0  0  0  0
    5.9731   -2.4209   -2.3290 H   0  0  0  0  0  0  0  0  0  0  0  0
    4.6590   -3.4332   -2.7358 H   0  0  0  0  0  0  0  0  0  0  0  0
    2.7796   -2.0809   -2.9971 H   0  0  0  0  0  0  0  0  0  0  0  0
    3.7673   -0.6099   -3.1158 H   0  0  0  0  0  0  0  0  0  0  0  0
    2.4697   -0.7098   -1.9535 H   0  0  0  0  0  0  0  0  0  0  0  0
  1  2  1  0
  1 24  1  0
  1 25  1  0
  1 26  1  0
  2  3  1  0
  3  8  2  0
  3  4  1  0
  4  5  2  0
  4 27  1  0
  5  6  1  0
  5 28  1  0
  6 22  1  0
  6  7  2  0
  7 16  1  0
  7  8  1  0
  8  9  1  0
  9 10  1  0
 10 21  1  0
 10 11  1  0
 10 29  1  1
 11 12  1  0
 11 13  1  0
 11 30  1  6
 12 31  1  0
 13 19  1  0
 13 14  1  0
 13 32  1  6
 14 15  1  0
 14 33  1  0
 14 34  1  0
 15 21  1  0
 15 16  1  0
 15 35  1  1
 16 17  1  6
 16 21  1  0
 17 18  1  0
 17 36  1  0
 17 37  1  0
 18 19  1  0
 18 38  1  0
 18 39  1  0
 19 20  1  0
 20 40  1  0
 20 41  1  0
 20 42  1  0
 21 22  1  6
 22 23  2  0
M  END
>  <i_m_ct_stereo_status>  (114) 
1

>  <s_m_source_file>  (114) 
/var/tmp/pbs.5076255.sched01/tmp7dp07en1/447ppmqug5.sdf

>  <i_m_source_file_index>  (114) 
6

>  <i_lp_mmshare_version>  (114) 
48012

>  <i_f3d_flags>  (114) 
0

>  <s_epik_input>  (114) 
W0NIM11PYzFbY0hdW2NIXWMoQzI9TyljM2MxT1tDQEhdKFtDQEBdMjRbQ0BdMzU2KVtDQEBIXShbT0hdKVtDQEBIXShbQ0gyXVtDQEBIXTQ1KU4oW0NIM10pW0NIMl1bQ0gyXTY=

>  <s_epik_cmdline>  (114) 
J2VwaWtfcHl0aG9uJywgJy1waHQnLCAnMi4wJywgJy1waCcsICc3LjAnLCAnLXRuJywgJzgnLCAnLW1hJywgJzIwMCcsICctaW1hZScsICc8aW5maWxlLm1hZT4nLCAnLW9tYWUnLCAnPG91dGZpbGUubWFlPic=

>  <r_epik_Ionization_Penalty>  (114) 
1.46652

>  <r_epik_Ionization_Penalty_Charging>  (114) 
0

>  <r_epik_Ionization_Penalty_Neutral>  (114) 
1.46652

>  <r_epik_State_Penalty>  (114) 
1.55398

>  <r_epik_Charging_Adjusted_Penalty>  (114) 
1.55398

>  <i_epik_Tot_Q>  (114) 
0

>  <i_epik_Tot_abs_Q>  (114) 
0

>  <s_lp_Force_Field>  (114) 
OPLS3e

>  <r_lp_Energy>  (114) 
338.909

>  <b_lp_Chiralities_Consistent>  (114) 
1

>  <s_lp_Variant>  (114) 
34:0-2

>  <s_i_glide_gridfile>  (114) 
pfpi4k_grid

>  <i_i_glide_lignum>  (114) 
6

>  <i_i_glide_rotatable_bonds>  (114) 
2

>  <r_i_docking_score>  (114) 
-2.77873

>  <r_i_glide_ligand_efficiency>  (114) 
-0.120814

>  <r_i_glide_ligand_efficiency_sa>  (114) 
-0.343579

>  <r_i_glide_ligand_efficiency_ln>  (114) 
-0.671921

>  <r_i_glide_gscore>  (114) 
-2.77873

>  <r_i_glide_lipo>  (114) 
-0.391919

>  <r_i_glide_hbond>  (114) 
-0.00533452

>  <r_i_glide_metal>  (114) 
-0

>  <r_i_glide_rewards>  (114) 
-1.27263

>  <r_i_glide_evdw>  (114) 
-17.386

>  <r_i_glide_ecoul>  (114) 
-1.54678

>  <r_i_glide_erotb>  (114) 
0

>  <r_i_glide_esite>  (114) 
-0.00752427

>  <r_i_glide_emodel>  (114) 
-21.3753

>  <r_i_glide_energy>  (114) 
-18.9328

>  <r_i_glide_einternal>  (114) 
3.48281

>  <r_i_glide_intrahb_reward>  (114) 
-0

>  <i_i_glide_confnum>  (114) 
2

>  <i_i_glide_posenum>  (114) 
10

>  <r_i_glide_eff_state_penalty>  (114) 
0

>  <ligand_id>  (114) 
34

>  <original_smiles>  (114) 
COc1ccc2c3c1OC1C(O)C4CC5C3(CCN4C)C15C2=O

>  <smiles>  (114) 
[H]OC1([H])C2([H])Oc3c(OC([H])([H])[H])c([H])c([H])c4c3C35C([H])([H])C([H])([H])N(C([H])([H])[H])C1([H])C([H])([H])C3([H])C25C4=O

$$$$
34:1:2
     RDKit          3D

 42 47  0  0  1  0  0  0  0  0999 V2000
    4.6332   -3.9083    5.4314 C   0  0  0  0  0  0  0  0  0  0  0  0
    3.6606   -4.8037    4.8933 O   0  0  0  0  0  0  0  0  0  0  0  0
    3.8104   -5.1461    3.5751 C   0  0  0  0  0  0  0  0  0  0  0  0
    3.1491   -6.3056    3.1300 C   0  0  0  0  0  0  0  0  0  0  0  0
    2.9464   -6.5063    1.7484 C   0  0  0  0  0  0  0  0  0  0  0  0
    3.5916   -5.6504    0.8047 C   0  0  0  0  0  0  0  0  0  0  0  0
    4.6276   -4.8961    1.2918 C   0  0  0  0  0  0  0  0  0  0  0  0
    4.3774   -4.2788    2.5943 C   0  0  0  0  0  0  0  0  0  0  0  0
    3.9871   -2.9182    2.6275 O   0  0  0  0  0  0  0  0  0  0  0  0
    3.1623   -2.4214    1.4954 C   0  0  1  0  0  0  0  0  0  0  0  0
    3.3429   -0.9984    0.7837 C   0  0  1  0  0  0  0  0  0  0  0  0
    3.6859   -0.0124    1.7357 O   0  0  0  0  0  0  0  0  0  0  0  0
    4.2983   -0.9247   -0.5439 C   0  0  1  0  0  0  0  0  0  0  0  0
    5.6590   -1.3995   -0.0960 C   0  0  0  0  0  0  0  0  0  0  0  0
    5.3416   -2.6761    0.5983 C   0  0  2  0  0  0  0  0  0  0  0  0
    4.9404   -3.8842    0.2005 C   0  0  1  0  0  0  0  0  0  0  0  0
    5.1562   -4.0908   -1.3239 C   0  0  0  0  0  0  0  0  0  0  0  0
    4.7079   -2.8586   -2.2710 C   0  0  0  0  0  0  0  0  0  0  0  0
    3.8502   -1.7288   -1.7473 N   0  0  0  0  0  0  0  0  0  0  0  0
    3.0128   -1.0504   -2.7241 C   0  0  0  0  0  0  0  0  0  0  0  0
    3.7162   -3.2007    0.4073 C   0  0  2  0  0  0  0  0  0  0  0  0
    2.8734   -4.5224    0.1858 C   0  0  0  0  0  0  0  0  0  0  0  0
    1.8108   -4.6106   -0.4024 O   0  0  0  0  0  0  0  0  0  0  0  0
    4.3677   -3.5886    6.4406 H   0  0  0  0  0  0  0  0  0  0  0  0
    4.7930   -2.9861    4.8690 H   0  0  0  0  0  0  0  0  0  0  0  0
    5.5909   -4.4269    5.4797 H   0  0  0  0  0  0  0  0  0  0  0  0
    2.6498   -6.9539    3.8500 H   0  0  0  0  0  0  0  0  0  0  0  0
    2.2430   -7.2589    1.4175 H   0  0  0  0  0  0  0  0  0  0  0  0
    2.1052   -2.6277    1.6668 H   0  0  0  0  0  0  0  0  0  0  0  0
    2.3468   -0.6843    0.4785 H   0  0  0  0  0  0  0  0  0  0  0  0
    2.9395    0.1256    2.3029 H   0  0  0  0  0  0  0  0  0  0  0  0
    4.3990    0.1140   -0.8370 H   0  0  0  0  0  0  0  0  0  0  0  0
    6.3981   -1.5097   -0.8834 H   0  0  0  0  0  0  0  0  0  0  0  0
    6.0665   -0.7041    0.6397 H   0  0  0  0  0  0  0  0  0  0  0  0
    5.9560   -2.7462    1.4814 H   0  0  0  0  0  0  0  0  0  0  0  0
    6.2210   -4.2381   -1.5042 H   0  0  0  0  0  0  0  0  0  0  0  0
    4.6324   -4.9888   -1.6743 H   0  0  0  0  0  0  0  0  0  0  0  0
    5.6173   -2.4448   -2.7165 H   0  0  0  0  0  0  0  0  0  0  0  0
    4.2026   -3.3052   -3.1328 H   0  0  0  0  0  0  0  0  0  0  0  0
    2.4820   -1.7919   -3.3172 H   0  0  0  0  0  0  0  0  0  0  0  0
    3.5763   -0.3999   -3.3925 H   0  0  0  0  0  0  0  0  0  0  0  0
    2.2489   -0.4502   -2.2487 H   0  0  0  0  0  0  0  0  0  0  0  0
  1  2  1  0
  1 24  1  0
  1 25  1  0
  1 26  1  0
  2  3  1  0
  3  8  2  0
  3  4  1  0
  4  5  2  0
  4 27  1  0
  5  6  1  0
  5 28  1  0
  6 22  1  0
  6  7  2  0
  7 16  1  0
  7  8  1  0
  8  9  1  0
  9 10  1  0
 10 21  1  0
 10 11  1  0
 10 29  1  1
 11 12  1  0
 11 13  1  0
 11 30  1  6
 12 31  1  0
 13 19  1  0
 13 14  1  0
 13 32  1  6
 14 15  1  0
 14 33  1  0
 14 34  1  0
 15 21  1  0
 15 16  1  0
 15 35  1  1
 16 17  1  6
 16 21  1  0
 17 18  1  0
 17 36  1  0
 17 37  1  0
 18 19  1  0
 18 38  1  0
 18 39  1  0
 19 20  1  0
 20 40  1  0
 20 41  1  0
 20 42  1  0
 21 22  1  6
 22 23  2  0
M  END
>  <i_m_ct_stereo_status>  (115) 
1

>  <s_m_source_file>  (115) 
/var/tmp/pbs.5076255.sched01/tmp7dp07en1/447ppmqug5.sdf

>  <i_m_source_file_index>  (115) 
6

>  <i_lp_mmshare_version>  (115) 
48012

>  <i_f3d_flags>  (115) 
0

>  <s_epik_input>  (115) 
W0NIM11PYzFbY0hdW2NIXWMoQzI9TyljM2MxT1tDQEhdKFtDQEBdMjRbQ0BdMzU2KVtDQEBIXShbT0hdKVtDQEBIXShbQ0gyXVtDQEBIXTQ1KU4oW0NIM10pW0NIMl1bQ0gyXTY=

>  <s_epik_cmdline>  (115) 
J2VwaWtfcHl0aG9uJywgJy1waHQnLCAnMi4wJywgJy1waCcsICc3LjAnLCAnLXRuJywgJzgnLCAnLW1hJywgJzIwMCcsICctaW1hZScsICc8aW5maWxlLm1hZT4nLCAnLW9tYWUnLCAnPG91dGZpbGUubWFlPic=

>  <r_epik_Ionization_Penalty>  (115) 
1.46652

>  <r_epik_Ionization_Penalty_Charging>  (115) 
0

>  <r_epik_Ionization_Penalty_Neutral>  (115) 
1.46652

>  <r_epik_State_Penalty>  (115) 
1.55398

>  <r_epik_Charging_Adjusted_Penalty>  (115) 
1.55398

>  <i_epik_Tot_Q>  (115) 
0

>  <i_epik_Tot_abs_Q>  (115) 
0

>  <s_lp_Force_Field>  (115) 
OPLS3e

>  <r_lp_Energy>  (115) 
338.909

>  <b_lp_Chiralities_Consistent>  (115) 
1

>  <s_lp_Variant>  (115) 
34:0-2

>  <s_i_glide_gridfile>  (115) 
pfpi4k_grid

>  <i_i_glide_lignum>  (115) 
6

>  <i_i_glide_rotatable_bonds>  (115) 
2

>  <r_i_docking_score>  (115) 
-2.65423

>  <r_i_glide_ligand_efficiency>  (115) 
-0.115401

>  <r_i_glide_ligand_efficiency_sa>  (115) 
-0.328185

>  <r_i_glide_ligand_efficiency_ln>  (115) 
-0.641816

>  <r_i_glide_gscore>  (115) 
-2.65423

>  <r_i_glide_lipo>  (115) 
-0.216662

>  <r_i_glide_hbond>  (115) 
-0.0178479

>  <r_i_glide_metal>  (115) 
-0

>  <r_i_glide_rewards>  (115) 
-1.27263

>  <r_i_glide_evdw>  (115) 
-16.4317

>  <r_i_glide_ecoul>  (115) 
-1.95276

>  <r_i_glide_erotb>  (115) 
0

>  <r_i_glide_esite>  (115) 
-0.0325895

>  <r_i_glide_emodel>  (115) 
-20.3244

>  <r_i_glide_energy>  (115) 
-18.3844

>  <r_i_glide_einternal>  (115) 
3.70271

>  <r_i_glide_intrahb_reward>  (115) 
-0

>  <i_i_glide_confnum>  (115) 
2

>  <i_i_glide_posenum>  (115) 
4

>  <r_i_glide_eff_state_penalty>  (115) 
0

>  <ligand_id>  (115) 
34

>  <original_smiles>  (115) 
COc1ccc2c3c1OC1C(O)C4CC5C3(CCN4C)C15C2=O

>  <smiles>  (115) 
[H]OC1([H])C2([H])Oc3c(OC([H])([H])[H])c([H])c([H])c4c3C35C([H])([H])C([H])([H])N(C([H])([H])[H])C1([H])C([H])([H])C3([H])C25C4=O

$$$$
35:0:0
     RDKit          3D

 76 83  0  0  1  0  0  0  0  0999 V2000
    5.6834   -8.9808    5.5763 C   0  0  0  0  0  0  0  0  0  0  0  0
    4.6497   -9.0636    4.5698 O   0  0  0  0  0  0  0  0  0  0  0  0
    4.2309   -7.8783    3.8754 C   0  0  2  0  0  0  0  0  0  0  0  0
    3.7678   -6.8432    5.0431 C   0  0  2  0  0  0  0  0  0  0  0  0
    2.7438   -6.3085    4.3583 O   0  0  0  0  0  0  0  0  0  0  0  0
    3.0734   -6.0139    2.9839 C   0  0  1  0  0  0  0  0  0  0  0  0
    2.8846   -6.9623    1.5766 C   0  0  2  0  0  0  0  0  0  0  0  0
    3.0606   -8.4442    1.7070 C   0  0  0  0  0  0  0  0  0  0  0  0
    2.7406   -8.4480    3.1767 C   0  0  2  0  0  0  0  0  0  0  0  0
    1.1547   -7.6819    3.2362 C   0  0  0  0  0  0  0  0  0  0  0  0
    0.1276   -8.4431    2.3558 C   0  0  0  0  0  0  0  0  0  0  0  0
    0.5408   -7.9280    4.6512 C   0  0  0  0  0  0  0  0  0  0  0  0
    1.0310   -5.9767    2.8231 C   0  0  0  0  0  0  0  0  0  0  0  0
    2.4271   -5.0043    2.5300 C   0  0  1  0  0  0  0  0  0  0  0  0
    2.6143   -3.8580    3.6729 C   0  0  0  0  0  0  0  0  0  0  0  0
    3.2087   -4.1516    5.1580 C   0  0  0  0  0  0  0  0  0  0  0  0
    4.2368   -5.3637    5.5031 C   0  0  1  0  0  0  0  0  0  0  0  0
    4.5519   -5.3626    7.0142 C   0  0  0  0  0  0  0  0  0  0  0  0
    3.7169   -5.2043    1.3477 C   0  0  2  0  0  0  0  0  0  0  0  0
    3.2835   -6.2013    0.5137 O   0  0  0  0  0  0  0  0  0  0  0  0
    5.2206   -6.0783    1.6447 C   0  0  1  0  0  0  0  0  0  0  0  0
    6.5744   -5.3474    1.3902 C   0  0  1  0  0  0  0  0  0  0  0  0
    7.6669   -6.4107    1.0716 C   0  0  0  0  0  0  0  0  0  0  0  0
    7.4948   -7.7476    1.5449 O   0  0  0  0  0  0  0  0  0  0  0  0
    6.4242   -8.2903    2.1807 C   0  0  0  0  0  0  0  0  0  0  0  0
    6.2513   -9.4919    2.3566 O   0  0  0  0  0  0  0  0  0  0  0  0
    5.4747   -7.2554    2.8474 C   0  0  2  0  0  0  0  0  0  0  0  0
    6.3090   -6.6229    3.7849 O   0  0  0  0  0  0  0  0  0  0  0  0
    6.5515   -4.2212    0.3048 C   0  0  0  0  0  0  0  0  0  0  0  0
    5.2354   -4.2520   -0.4979 C   0  0  2  0  0  0  0  0  0  0  0  0
    5.0173   -3.2881   -1.6388 C   0  0  0  0  0  0  0  0  0  0  0  0
    3.7349   -2.9157   -1.6983 C   0  0  0  0  0  0  0  0  0  0  0  0
    3.0895   -2.0613   -2.7703 C   0  0  0  0  0  0  0  0  0  0  0  0
    2.9088   -3.5108   -0.5801 C   0  0  0  0  0  0  0  0  0  0  0  0
    3.9975   -4.0022    0.4218 C   0  0  1  0  0  0  0  0  0  0  0  0
    4.2907   -2.8573    1.1895 O   0  0  0  0  0  0  0  0  0  0  0  0
    5.8056   -9.9440    6.0547 H   0  0  0  0  0  0  0  0  0  0  0  0
    5.4386   -8.2679    6.3670 H   0  0  0  0  0  0  0  0  0  0  0  0
    6.6661   -8.7209    5.1751 H   0  0  0  0  0  0  0  0  0  0  0  0
    3.3182   -7.3916    5.8808 H   0  0  0  0  0  0  0  0  0  0  0  0
    3.9789   -5.5155    3.2953 H   0  0  0  0  0  0  0  0  0  0  0  0
    1.9399   -6.9907    1.0427 H   0  0  0  0  0  0  0  0  0  0  0  0
    2.3601   -9.0075    1.0907 H   0  0  0  0  0  0  0  0  0  0  0  0
    4.0324   -8.8297    1.4244 H   0  0  0  0  0  0  0  0  0  0  0  0
    2.6080   -9.4935    3.4751 H   0  0  0  0  0  0  0  0  0  0  0  0
   -0.8978   -8.1338    2.5569 H   0  0  0  0  0  0  0  0  0  0  0  0
    0.1653   -9.5258    2.5256 H   0  0  0  0  0  0  0  0  0  0  0  0
    0.2683   -8.2627    1.2897 H   0  0  0  0  0  0  0  0  0  0  0  0
   -0.5111   -7.6229    4.7028 H   0  0  0  0  0  0  0  0  0  0  0  0
    1.0305   -7.3930    5.4646 H   0  0  0  0  0  0  0  0  0  0  0  0
    0.5747   -8.9914    4.9200 H   0  0  0  0  0  0  0  0  0  0  0  0
    0.3542   -5.8832    1.9707 H   0  0  0  0  0  0  0  0  0  0  0  0
    0.4568   -5.5033    3.6294 H   0  0  0  0  0  0  0  0  0  0  0  0
    3.1885   -3.0247    3.2726 H   0  0  0  0  0  0  0  0  0  0  0  0
    1.6297   -3.4086    3.8219 H   0  0  0  0  0  0  0  0  0  0  0  0
    3.6826   -3.2216    5.4933 H   0  0  0  0  0  0  0  0  0  0  0  0
    2.3505   -4.2627    5.8241 H   0  0  0  0  0  0  0  0  0  0  0  0
    5.1702   -5.0643    5.0387 H   0  0  0  0  0  0  0  0  0  0  0  0
    3.6618   -5.5793    7.6091 H   0  0  0  0  0  0  0  0  0  0  0  0
    4.9389   -4.3981    7.3295 H   0  0  0  0  0  0  0  0  0  0  0  0
    5.3037   -6.1123    7.2568 H   0  0  0  0  0  0  0  0  0  0  0  0
    5.2869   -6.6951    0.7491 H   0  0  0  0  0  0  0  0  0  0  0  0
    6.8731   -4.8266    2.3043 H   0  0  0  0  0  0  0  0  0  0  0  0
    7.7791   -6.4887   -0.0067 H   0  0  0  0  0  0  0  0  0  0  0  0
    8.6435   -6.0565    1.4201 H   0  0  0  0  0  0  0  0  0  0  0  0
    6.5300   -7.2778    4.4185 H   0  0  0  0  0  0  0  0  0  0  0  0
    6.6958   -3.2438    0.7783 H   0  0  0  0  0  0  0  0  0  0  0  0
    7.3950   -4.3209   -0.3711 H   0  0  0  0  0  0  0  0  0  0  0  0
    5.1474   -5.2211   -0.9801 H   0  0  0  0  0  0  0  0  0  0  0  0
    5.7911   -3.0200   -2.3447 H   0  0  0  0  0  0  0  0  0  0  0  0
    2.6344   -1.1759   -2.3116 H   0  0  0  0  0  0  0  0  0  0  0  0
    2.2941   -2.6125   -3.2779 H   0  0  0  0  0  0  0  0  0  0  0  0
    3.8036   -1.7224   -3.5205 H   0  0  0  0  0  0  0  0  0  0  0  0
    2.2220   -2.7881   -0.1551 H   0  0  0  0  0  0  0  0  0  0  0  0
    2.3410   -4.3436   -0.9934 H   0  0  0  0  0  0  0  0  0  0  0  0
    4.3348   -2.1123    0.6154 H   0  0  0  0  0  0  0  0  0  0  0  0
  1  2  1  0
  1 37  1  0
  1 38  1  0
  1 39  1  0
  3  2  1  1
  3  9  1  0
  3 27  1  0
  3  4  1  0
  4 17  1  0
  4  5  1  0
  4 40  1  1
  5  6  1  0
  6 14  1  0
  6  7  1  0
  6 41  1  1
  7 20  1  0
  7  8  1  0
  7 42  1  6
  8  9  1  0
  8 43  1  0
  8 44  1  0
  9 10  1  0
  9 45  1  1
 10 11  1  0
 10 12  1  0
 10 13  1  0
 11 46  1  0
 11 47  1  0
 11 48  1  0
 12 49  1  0
 12 50  1  0
 12 51  1  0
 13 14  1  0
 13 52  1  0
 13 53  1  0
 14 15  1  1
 14 19  1  0
 15 16  1  0
 15 54  1  0
 15 55  1  0
 16 17  1  0
 16 56  1  0
 16 57  1  0
 17 18  1  0
 17 58  1  6
 18 59  1  0
 18 60  1  0
 18 61  1  0
 19 35  1  0
 19 20  1  6
 19 21  1  0
 21 27  1  0
 21 22  1  0
 21 62  1  6
 22 23  1  0
 22 29  1  0
 22 63  1  1
 23 24  1  0
 23 64  1  0
 23 65  1  0
 24 25  1  0
 25 26  2  0
 25 27  1  0
 27 28  1  1
 28 66  1  0
 29 30  1  0
 29 67  1  0
 29 68  1  0
 30 35  1  0
 30 31  1  0
 30 69  1  6
 31 32  2  0
 31 70  1  0
 32 33  1  0
 32 34  1  0
 33 71  1  0
 33 72  1  0
 33 73  1  0
 34 35  1  0
 34 74  1  0
 34 75  1  0
 35 36  1  1
 36 76  1  0
M  END
>  <i_m_ct_stereo_status>  (116) 
1

>  <s_m_source_file>  (116) 
/var/tmp/pbs.5076255.sched01/tmp7dp07en1/447ppmqug5.sdf

>  <i_m_source_file_index>  (116) 
7

>  <i_lp_mmshare_version>  (116) 
48012

>  <i_f3d_flags>  (116) 
0

>  <s_epik_input>  (116) 
W0NIM11DKFtDSDNdKShbQ0gyXTEpW0NASF0yW0NIMl1bQ0BIXShPMylbQ0BASF00T1tDQEhdKFtDQEhdKFtDSDNdKVtDSDJdW0NIMl01KVtDQF0yKE9bQ0gzXSlbQ0BAXTYoW09IXSlDKD1PKU9bQ0gyXVtDQEhdKFtDQEBIXTZbQ0BdMzdbQ0BAXTE0NSlbQ0gyXVtDQEhdOFtDQEBdNyhbT0hdKVtDSDJdQyg9W0NIXTgpW0NIM10=

>  <s_epik_cmdline>  (116) 
J2VwaWtfcHl0aG9uJywgJy1waHQnLCAnMi4wJywgJy1waCcsICc3LjAnLCAnLXRuJywgJzgnLCAnLW1hJywgJzIwMCcsICctaW1hZScsICc8aW5maWxlLm1hZT4nLCAnLW9tYWUnLCAnPG91dGZpbGUubWFlPic=

>  <r_lp_tautomer_probability>  (116) 
1

>  <r_epik_Ionization_Penalty>  (116) 
1.37783e-06

>  <r_epik_Ionization_Penalty_Charging>  (116) 
0

>  <r_epik_Ionization_Penalty_Neutral>  (116) 
1.37783e-06

>  <r_epik_State_Penalty>  (116) 
-0

>  <r_epik_Charging_Adjusted_Penalty>  (116) 
0

>  <i_epik_Tot_Q>  (116) 
0

>  <i_epik_Tot_abs_Q>  (116) 
0

>  <s_epik_Chemistry_Notes>  (116) 
This compound has an ester and may undergo hydrolysis at high or low pH.

>  <s_lp_Force_Field>  (116) 
OPLS3e

>  <r_lp_Energy>  (116) 
536.144

>  <b_lp_Chiralities_Consistent>  (116) 
1

>  <s_lp_Variant>  (116) 
35:0-1

>  <s_i_glide_gridfile>  (116) 
pfpi4k_grid

>  <i_i_glide_lignum>  (116) 
7

>  <i_i_glide_rotatable_bonds>  (116) 
3

>  <r_i_docking_score>  (116) 
-1.83528

>  <r_i_glide_ligand_efficiency>  (116) 
-0.05098

>  <r_i_glide_ligand_efficiency_sa>  (116) 
-0.168332

>  <r_i_glide_ligand_efficiency_ln>  (116) 
-0.400409

>  <r_i_glide_gscore>  (116) 
-1.83528

>  <r_i_glide_lipo>  (116) 
-0.454019

>  <r_i_glide_hbond>  (116) 
0

>  <r_i_glide_metal>  (116) 
-0

>  <r_i_glide_rewards>  (116) 
-0.0912914

>  <r_i_glide_evdw>  (116) 
-26.3541

>  <r_i_glide_ecoul>  (116) 
0.184898

>  <r_i_glide_erotb>  (116) 
0

>  <r_i_glide_esite>  (116) 
0

>  <r_i_glide_emodel>  (116) 
-27.1633

>  <r_i_glide_energy>  (116) 
-26.1692

>  <r_i_glide_einternal>  (116) 
3.0739

>  <r_i_glide_intrahb_reward>  (116) 
-0

>  <i_i_glide_confnum>  (116) 
2

>  <i_i_glide_posenum>  (116) 
2

>  <r_i_glide_eff_state_penalty>  (116) 
0

>  <ligand_id>  (116) 
35

>  <original_smiles>  (116) 
COC12C3OC4C5CC1C(C)(C)CC4(CCC3C)C1(O5)C3C(COC(=O)C32O)CC2C=C(C)CC21O

>  <smiles>  (116) 
[H]OC12C(=O)OC([H])([H])C3([H])C([H])([H])C4([H])C([H])=C(C([H])([H])[H])C([H])([H])C4(O[H])C4(OC5([H])C([H])([H])C6([H])C1(OC([H])([H])[H])C1([H])OC5([H])C4(C([H])([H])C([H])([H])C1([H])C([H])([H])[H])C([H])([H])C6(C([H])([H])[H])C([H])([H])[H])C23[H]

$$$$
35:0:1
     RDKit          3D

 76 83  0  0  1  0  0  0  0  0999 V2000
    2.3980   -4.8890    6.3843 C   0  0  0  0  0  0  0  0  0  0  0  0
    1.5857   -3.7372    6.1722 O   0  0  0  0  0  0  0  0  0  0  0  0
    2.1236   -2.5429    5.5836 C   0  0  2  0  0  0  0  0  0  0  0  0
    2.9757   -2.9650    4.2511 C   0  0  2  0  0  0  0  0  0  0  0  0
    3.8232   -1.9204    4.3472 O   0  0  0  0  0  0  0  0  0  0  0  0
    3.1902   -0.6389    4.6054 C   0  0  1  0  0  0  0  0  0  0  0  0
    2.8602    0.1329    6.1040 C   0  0  2  0  0  0  0  0  0  0  0  0
    2.5469   -0.7310    7.2885 C   0  0  0  0  0  0  0  0  0  0  0  0
    3.2718   -1.9288    6.7383 C   0  0  2  0  0  0  0  0  0  0  0  0
    4.8931   -1.3272    6.4029 C   0  0  0  0  0  0  0  0  0  0  0  0
    5.5287   -0.7571    7.7040 C   0  0  0  0  0  0  0  0  0  0  0  0
    5.8203   -2.5515    6.1304 C   0  0  0  0  0  0  0  0  0  0  0  0
    5.1038   -0.1194    5.1357 C   0  0  0  0  0  0  0  0  0  0  0  0
    3.8073    0.3535    4.0850 C   0  0  1  0  0  0  0  0  0  0  0  0
    4.0666   -0.1046    2.5464 C   0  0  0  0  0  0  0  0  0  0  0  0
    3.8666   -1.6270    1.9979 C   0  0  0  0  0  0  0  0  0  0  0  0
    2.8305   -2.7019    2.6541 C   0  0  1  0  0  0  0  0  0  0  0  0
    2.9433   -4.0466    1.9142 C   0  0  0  0  0  0  0  0  0  0  0  0
    2.2057    1.0281    4.4842 C   0  0  2  0  0  0  0  0  0  0  0  0
    2.2747    1.3327    5.8297 O   0  0  0  0  0  0  0  0  0  0  0  0
    0.7486    0.0593    4.7426 C   0  0  1  0  0  0  0  0  0  0  0  0
   -0.5162    0.3887    3.9043 C   0  0  1  0  0  0  0  0  0  0  0  0
   -1.7651   -0.0499    4.7337 C   0  0  0  0  0  0  0  0  0  0  0  0
   -1.6460   -1.0997    5.7121 O   0  0  0  0  0  0  0  0  0  0  0  0
   -0.4916   -1.7197    6.1220 C   0  0  0  0  0  0  0  0  0  0  0  0
   -0.4681   -2.3896    7.1536 O   0  0  0  0  0  0  0  0  0  0  0  0
    0.7279   -1.5952    5.1725 C   0  0  2  0  0  0  0  0  0  0  0  0
    0.2341   -2.2859    4.0511 O   0  0  0  0  0  0  0  0  0  0  0  0
   -0.6596    1.8721    3.4358 C   0  0  0  0  0  0  0  0  0  0  0  0
    0.3803    2.7782    4.1233 C   0  0  2  0  0  0  0  0  0  0  0  0
    0.3886    4.2637    3.8479 C   0  0  0  0  0  0  0  0  0  0  0  0
    1.6378    4.7406    3.8628 C   0  0  0  0  0  0  0  0  0  0  0  0
    2.0740    6.1849    3.7441 C   0  0  0  0  0  0  0  0  0  0  0  0
    2.6538    3.6384    4.0735 C   0  0  0  0  0  0  0  0  0  0  0  0
    1.8277    2.3601    3.7820 C   0  0  1  0  0  0  0  0  0  0  0  0
    1.8837    2.1856    2.3791 O   0  0  0  0  0  0  0  0  0  0  0  0
    1.8766   -5.5525    7.0743 H   0  0  0  0  0  0  0  0  0  0  0  0
    3.3736   -4.6711    6.8188 H   0  0  0  0  0  0  0  0  0  0  0  0
    2.5392   -5.4495    5.4603 H   0  0  0  0  0  0  0  0  0  0  0  0
    3.6111   -3.8337    4.4175 H   0  0  0  0  0  0  0  0  0  0  0  0
    2.4615   -0.8594    3.8327 H   0  0  0  0  0  0  0  0  0  0  0  0
    3.6212    0.7453    6.5874 H   0  0  0  0  0  0  0  0  0  0  0  0
    2.9792   -0.3500    8.2137 H   0  0  0  0  0  0  0  0  0  0  0  0
    1.5002   -0.8724    7.5042 H   0  0  0  0  0  0  0  0  0  0  0  0
    3.3566   -2.6395    7.5596 H   0  0  0  0  0  0  0  0  0  0  0  0
    6.5981   -0.5802    7.5758 H   0  0  0  0  0  0  0  0  0  0  0  0
    5.4175   -1.4543    8.5376 H   0  0  0  0  0  0  0  0  0  0  0  0
    5.1147    0.1974    8.0226 H   0  0  0  0  0  0  0  0  0  0  0  0
    6.8688   -2.2568    6.1009 H   0  0  0  0  0  0  0  0  0  0  0  0
    5.6405   -3.0643    5.1883 H   0  0  0  0  0  0  0  0  0  0  0  0
    5.7231   -3.3028    6.9168 H   0  0  0  0  0  0  0  0  0  0  0  0
    5.5192    0.7894    5.5767 H   0  0  0  0  0  0  0  0  0  0  0  0
    5.9186   -0.4690    4.4976 H   0  0  0  0  0  0  0  0  0  0  0  0
    3.5135    0.5405    1.8717 H   0  0  0  0  0  0  0  0  0  0  0  0
    5.1034    0.1468    2.3312 H   0  0  0  0  0  0  0  0  0  0  0  0
    3.6164   -1.5435    0.9394 H   0  0  0  0  0  0  0  0  0  0  0  0
    4.8538   -2.0927    2.0092 H   0  0  0  0  0  0  0  0  0  0  0  0
    1.8545   -2.3251    2.3729 H   0  0  0  0  0  0  0  0  0  0  0  0
    3.9315   -4.4916    2.0439 H   0  0  0  0  0  0  0  0  0  0  0  0
    2.7743   -3.9183    0.8443 H   0  0  0  0  0  0  0  0  0  0  0  0
    2.2051   -4.7585    2.2870 H   0  0  0  0  0  0  0  0  0  0  0  0
    0.3729    0.5074    5.6687 H   0  0  0  0  0  0  0  0  0  0  0  0
   -0.4914   -0.2007    2.9894 H   0  0  0  0  0  0  0  0  0  0  0  0
   -2.1586    0.8193    5.2674 H   0  0  0  0  0  0  0  0  0  0  0  0
   -2.5697   -0.3609    4.0816 H   0  0  0  0  0  0  0  0  0  0  0  0
    0.8830   -2.2437    3.3680 H   0  0  0  0  0  0  0  0  0  0  0  0
   -0.5608    1.9219    2.3483 H   0  0  0  0  0  0  0  0  0  0  0  0
   -1.6655    2.2482    3.6264 H   0  0  0  0  0  0  0  0  0  0  0  0
    0.2035    2.7281    5.1998 H   0  0  0  0  0  0  0  0  0  0  0  0
   -0.5083    4.8531    3.7356 H   0  0  0  0  0  0  0  0  0  0  0  0
    2.7377    6.2986    2.8882 H   0  0  0  0  0  0  0  0  0  0  0  0
    2.6152    6.4952    4.6382 H   0  0  0  0  0  0  0  0  0  0  0  0
    1.2240    6.8551    3.6129 H   0  0  0  0  0  0  0  0  0  0  0  0
    3.5125    3.7488    3.4147 H   0  0  0  0  0  0  0  0  0  0  0  0
    2.9941    3.6799    5.1078 H   0  0  0  0  0  0  0  0  0  0  0  0
    1.4422    2.9206    1.9699 H   0  0  0  0  0  0  0  0  0  0  0  0
  1  2  1  0
  1 37  1  0
  1 38  1  0
  1 39  1  0
  3  2  1  1
  3  9  1  0
  3 27  1  0
  3  4  1  0
  4 17  1  0
  4  5  1  0
  4 40  1  6
  5  6  1  0
  6 14  1  0
  6  7  1  0
  6 41  1  6
  7 20  1  0
  7  8  1  0
  7 42  1  1
  8  9  1  0
  8 43  1  0
  8 44  1  0
  9 10  1  0
  9 45  1  1
 10 11  1  0
 10 12  1  0
 10 13  1  0
 11 46  1  0
 11 47  1  0
 11 48  1  0
 12 49  1  0
 12 50  1  0
 12 51  1  0
 13 14  1  0
 13 52  1  0
 13 53  1  0
 14 15  1  6
 14 19  1  0
 15 16  1  0
 15 54  1  0
 15 55  1  0
 16 17  1  0
 16 56  1  0
 16 57  1  0
 17 18  1  0
 17 58  1  1
 18 59  1  0
 18 60  1  0
 18 61  1  0
 19 35  1  0
 19 20  1  1
 19 21  1  0
 21 27  1  0
 21 22  1  0
 21 62  1  1
 22 23  1  0
 22 29  1  0
 22 63  1  6
 23 24  1  0
 23 64  1  0
 23 65  1  0
 24 25  1  0
 25 26  2  0
 25 27  1  0
 27 28  1  6
 28 66  1  0
 29 30  1  0
 29 67  1  0
 29 68  1  0
 30 35  1  0
 30 31  1  0
 30 69  1  1
 31 32  2  0
 31 70  1  0
 32 33  1  0
 32 34  1  0
 33 71  1  0
 33 72  1  0
 33 73  1  0
 34 35  1  0
 34 74  1  0
 34 75  1  0
 35 36  1  6
 36 76  1  0
M  END
>  <i_m_ct_stereo_status>  (117) 
1

>  <s_m_source_file>  (117) 
/var/tmp/pbs.5076255.sched01/tmp7dp07en1/447ppmqug5.sdf

>  <i_m_source_file_index>  (117) 
7

>  <i_lp_mmshare_version>  (117) 
48012

>  <i_f3d_flags>  (117) 
0

>  <s_epik_input>  (117) 
W0NIM11DKFtDSDNdKShbQ0gyXTEpW0NASF0yW0NIMl1bQ0BIXShPMylbQ0BASF00T1tDQEhdKFtDQEhdKFtDSDNdKVtDSDJdW0NIMl01KVtDQF0yKE9bQ0gzXSlbQ0BAXTYoW09IXSlDKD1PKU9bQ0gyXVtDQEhdKFtDQEBIXTZbQ0BdMzdbQ0BAXTE0NSlbQ0gyXVtDQEhdOFtDQEBdNyhbT0hdKVtDSDJdQyg9W0NIXTgpW0NIM10=

>  <s_epik_cmdline>  (117) 
J2VwaWtfcHl0aG9uJywgJy1waHQnLCAnMi4wJywgJy1waCcsICc3LjAnLCAnLXRuJywgJzgnLCAnLW1hJywgJzIwMCcsICctaW1hZScsICc8aW5maWxlLm1hZT4nLCAnLW9tYWUnLCAnPG91dGZpbGUubWFlPic=

>  <r_lp_tautomer_probability>  (117) 
1

>  <r_epik_Ionization_Penalty>  (117) 
1.37783e-06

>  <r_epik_Ionization_Penalty_Charging>  (117) 
0

>  <r_epik_Ionization_Penalty_Neutral>  (117) 
1.37783e-06

>  <r_epik_State_Penalty>  (117) 
-0

>  <r_epik_Charging_Adjusted_Penalty>  (117) 
0

>  <i_epik_Tot_Q>  (117) 
0

>  <i_epik_Tot_abs_Q>  (117) 
0

>  <s_epik_Chemistry_Notes>  (117) 
This compound has an ester and may undergo hydrolysis at high or low pH.

>  <s_lp_Force_Field>  (117) 
OPLS3e

>  <r_lp_Energy>  (117) 
536.144

>  <b_lp_Chiralities_Consistent>  (117) 
1

>  <s_lp_Variant>  (117) 
35:0-1

>  <s_i_glide_gridfile>  (117) 
pfpi4k_grid

>  <i_i_glide_lignum>  (117) 
7

>  <i_i_glide_rotatable_bonds>  (117) 
3

>  <r_i_docking_score>  (117) 
-1.71343

>  <r_i_glide_ligand_efficiency>  (117) 
-0.0475952

>  <r_i_glide_ligand_efficiency_sa>  (117) 
-0.157156

>  <r_i_glide_ligand_efficiency_ln>  (117) 
-0.373823

>  <r_i_glide_gscore>  (117) 
-1.71343

>  <r_i_glide_lipo>  (117) 
-0.103685

>  <r_i_glide_hbond>  (117) 
-0.0939703

>  <r_i_glide_metal>  (117) 
-0

>  <r_i_glide_rewards>  (117) 
0

>  <r_i_glide_evdw>  (117) 
-20.4112

>  <r_i_glide_ecoul>  (117) 
-3.00963

>  <r_i_glide_erotb>  (117) 
0

>  <r_i_glide_esite>  (117) 
-0.0437687

>  <r_i_glide_emodel>  (117) 
-25.9367

>  <r_i_glide_energy>  (117) 
-23.4208

>  <r_i_glide_einternal>  (117) 
0.179934

>  <r_i_glide_intrahb_reward>  (117) 
-0

>  <i_i_glide_confnum>  (117) 
1

>  <i_i_glide_posenum>  (117) 
11

>  <r_i_glide_eff_state_penalty>  (117) 
0

>  <ligand_id>  (117) 
35

>  <original_smiles>  (117) 
COC12C3OC4C5CC1C(C)(C)CC4(CCC3C)C1(O5)C3C(COC(=O)C32O)CC2C=C(C)CC21O

>  <smiles>  (117) 
[H]OC12C(=O)OC([H])([H])C3([H])C([H])([H])C4([H])C([H])=C(C([H])([H])[H])C([H])([H])C4(O[H])C4(OC5([H])C([H])([H])C6([H])C1(OC([H])([H])[H])C1([H])OC5([H])C4(C([H])([H])C([H])([H])C1([H])C([H])([H])[H])C([H])([H])C6(C([H])([H])[H])C([H])([H])[H])C23[H]

$$$$
35:0:2
     RDKit          3D

 76 83  0  0  1  0  0  0  0  0999 V2000
    9.1326   -8.7418    5.2820 C   0  0  0  0  0  0  0  0  0  0  0  0
    7.8617   -9.3461    5.0600 O   0  0  0  0  0  0  0  0  0  0  0  0
    6.7101   -8.5576    4.7234 C   0  0  2  0  0  0  0  0  0  0  0  0
    7.1322   -7.4885    3.5562 C   0  0  2  0  0  0  0  0  0  0  0  0
    6.2329   -6.5605    3.9423 O   0  0  0  0  0  0  0  0  0  0  0  0
    4.9029   -7.0840    4.2054 C   0  0  1  0  0  0  0  0  0  0  0  0
    4.2210   -7.6412    5.6805 C   0  0  2  0  0  0  0  0  0  0  0  0
    5.1257   -8.3047    6.6722 C   0  0  0  0  0  0  0  0  0  0  0  0
    6.3621   -7.6251    6.1515 C   0  0  2  0  0  0  0  0  0  0  0  0
    5.9650   -5.9089    6.2293 C   0  0  0  0  0  0  0  0  0  0  0  0
    5.5974   -5.5123    7.6877 C   0  0  0  0  0  0  0  0  0  0  0  0
    7.2755   -5.0904    6.0213 C   0  0  0  0  0  0  0  0  0  0  0  0
    4.6991   -5.2873    5.1740 C   0  0  0  0  0  0  0  0  0  0  0  0
    3.9651   -6.2573    3.9402 C   0  0  1  0  0  0  0  0  0  0  0  0
    4.3177   -5.7246    2.4465 C   0  0  0  0  0  0  0  0  0  0  0  0
    5.7489   -5.9705    1.7026 C   0  0  0  0  0  0  0  0  0  0  0  0
    6.7219   -7.2420    2.0037 C   0  0  1  0  0  0  0  0  0  0  0  0
    8.0099   -7.1274    1.1695 C   0  0  0  0  0  0  0  0  0  0  0  0
    3.1099   -7.8151    4.0741 C   0  0  2  0  0  0  0  0  0  0  0  0
    2.9316   -8.0008    5.4281 O   0  0  0  0  0  0  0  0  0  0  0  0
    3.8830   -9.3964    3.9185 C   0  0  1  0  0  0  0  0  0  0  0  0
    3.3112  -10.3970    2.8758 C   0  0  1  0  0  0  0  0  0  0  0  0
    3.6362  -11.8450    3.3592 C   0  0  0  0  0  0  0  0  0  0  0  0
    4.7791  -12.0696    4.2151 O   0  0  0  0  0  0  0  0  0  0  0  0
    5.5746  -11.1120    4.8033 C   0  0  0  0  0  0  0  0  0  0  0  0
    6.3193  -11.3879    5.7483 O   0  0  0  0  0  0  0  0  0  0  0  0
    5.5477   -9.7091    4.1411 C   0  0  2  0  0  0  0  0  0  0  0  0
    6.0661   -9.9957    2.8558 O   0  0  0  0  0  0  0  0  0  0  0  0
    1.7914  -10.2497    2.5563 C   0  0  0  0  0  0  0  0  0  0  0  0
    1.0985   -9.2938    3.5395 C   0  0  2  0  0  0  0  0  0  0  0  0
   -0.3855   -9.0524    3.4276 C   0  0  0  0  0  0  0  0  0  0  0  0
   -0.6795   -7.7953    3.7579 C   0  0  0  0  0  0  0  0  0  0  0  0
   -2.0525   -7.1906    3.8989 C   0  0  0  0  0  0  0  0  0  0  0  0
    0.5602   -6.9788    4.0594 C   0  0  0  0  0  0  0  0  0  0  0  0
    1.6810   -7.8647    3.4672 C   0  0  1  0  0  0  0  0  0  0  0  0
    1.7297   -7.5008    2.1010 O   0  0  0  0  0  0  0  0  0  0  0  0
    9.7753   -9.4705    5.7760 H   0  0  0  0  0  0  0  0  0  0  0  0
    9.0964   -7.8579    5.9185 H   0  0  0  0  0  0  0  0  0  0  0  0
    9.6206   -8.4847    4.3416 H   0  0  0  0  0  0  0  0  0  0  0  0
    8.0923   -7.0146    3.7512 H   0  0  0  0  0  0  0  0  0  0  0  0
    4.9523   -7.6476    3.2802 H   0  0  0  0  0  0  0  0  0  0  0  0
    3.7621   -6.9387    6.3761 H   0  0  0  0  0  0  0  0  0  0  0  0
    4.8835   -8.0430    7.7015 H   0  0  0  0  0  0  0  0  0  0  0  0
    5.1343   -9.3821    6.6508 H   0  0  0  0  0  0  0  0  0  0  0  0
    7.1462   -7.8066    6.8853 H   0  0  0  0  0  0  0  0  0  0  0  0
    5.5612   -4.4277    7.8022 H   0  0  0  0  0  0  0  0  0  0  0  0
    6.3395   -5.8837    8.3980 H   0  0  0  0  0  0  0  0  0  0  0  0
    4.6242   -5.8696    8.0182 H   0  0  0  0  0  0  0  0  0  0  0  0
    7.1215   -4.0300    6.2273 H   0  0  0  0  0  0  0  0  0  0  0  0
    7.6834   -5.1305    5.0149 H   0  0  0  0  0  0  0  0  0  0  0  0
    8.0681   -5.4406    6.6859 H   0  0  0  0  0  0  0  0  0  0  0  0
    3.8973   -4.8768    5.7882 H   0  0  0  0  0  0  0  0  0  0  0  0
    5.1077   -4.4002    4.6849 H   0  0  0  0  0  0  0  0  0  0  0  0
    3.5496   -6.0430    1.7497 H   0  0  0  0  0  0  0  0  0  0  0  0
    4.1824   -4.6440    2.4791 H   0  0  0  0  0  0  0  0  0  0  0  0
    5.5452   -5.9701    0.6321 H   0  0  0  0  0  0  0  0  0  0  0  0
    6.3466   -5.0719    1.8686 H   0  0  0  0  0  0  0  0  0  0  0  0
    6.1939   -8.0839    1.5730 H   0  0  0  0  0  0  0  0  0  0  0  0
    8.6096   -6.2705    1.4773 H   0  0  0  0  0  0  0  0  0  0  0  0
    7.8139   -7.0174    0.1040 H   0  0  0  0  0  0  0  0  0  0  0  0
    8.6160   -8.0218    1.3085 H   0  0  0  0  0  0  0  0  0  0  0  0
    3.4645   -9.9108    4.7916 H   0  0  0  0  0  0  0  0  0  0  0  0
    3.8134  -10.2392    1.9242 H   0  0  0  0  0  0  0  0  0  0  0  0
    2.7733  -12.2431    3.9000 H   0  0  0  0  0  0  0  0  0  0  0  0
    3.7458  -12.5013    2.4950 H   0  0  0  0  0  0  0  0  0  0  0  0
    5.5159  -10.6507    2.4509 H   0  0  0  0  0  0  0  0  0  0  0  0
    1.6631   -9.9144    1.5237 H   0  0  0  0  0  0  0  0  0  0  0  0
    1.2891  -11.2172    2.5956 H   0  0  0  0  0  0  0  0  0  0  0  0
    1.2024   -9.7124    4.5436 H   0  0  0  0  0  0  0  0  0  0  0  0
   -1.1035   -9.8336    3.2193 H   0  0  0  0  0  0  0  0  0  0  0  0
   -2.1425   -6.3727    3.2014 H   0  0  0  0  0  0  0  0  0  0  0  0
   -2.1905   -6.7941    4.9024 H   0  0  0  0  0  0  0  0  0  0  0  0
   -2.8390   -7.9099    3.6746 H   0  0  0  0  0  0  0  0  0  0  0  0
    0.5207   -5.9875    3.6099 H   0  0  0  0  0  0  0  0  0  0  0  0
    0.6489   -6.8775    5.1398 H   0  0  0  0  0  0  0  0  0  0  0  0
    2.2855   -8.1267    1.6625 H   0  0  0  0  0  0  0  0  0  0  0  0
  1  2  1  0
  1 37  1  0
  1 38  1  0
  1 39  1  0
  3  2  1  1
  3  9  1  0
  3 27  1  0
  3  4  1  0
  4 17  1  0
  4  5  1  0
  4 40  1  6
  5  6  1  0
  6 14  1  0
  6  7  1  0
  6 41  1  6
  7 20  1  0
  7  8  1  0
  7 42  1  1
  8  9  1  0
  8 43  1  0
  8 44  1  0
  9 10  1  0
  9 45  1  1
 10 11  1  0
 10 12  1  0
 10 13  1  0
 11 46  1  0
 11 47  1  0
 11 48  1  0
 12 49  1  0
 12 50  1  0
 12 51  1  0
 13 14  1  0
 13 52  1  0
 13 53  1  0
 14 15  1  6
 14 19  1  0
 15 16  1  0
 15 54  1  0
 15 55  1  0
 16 17  1  0
 16 56  1  0
 16 57  1  0
 17 18  1  0
 17 58  1  6
 18 59  1  0
 18 60  1  0
 18 61  1  0
 19 35  1  0
 19 20  1  1
 19 21  1  0
 21 27  1  0
 21 22  1  0
 21 62  1  1
 22 23  1  0
 22 29  1  0
 22 63  1  6
 23 24  1  0
 23 64  1  0
 23 65  1  0
 24 25  1  0
 25 26  2  0
 25 27  1  0
 27 28  1  6
 28 66  1  0
 29 30  1  0
 29 67  1  0
 29 68  1  0
 30 35  1  0
 30 31  1  0
 30 69  1  1
 31 32  2  0
 31 70  1  0
 32 33  1  0
 32 34  1  0
 33 71  1  0
 33 72  1  0
 33 73  1  0
 34 35  1  0
 34 74  1  0
 34 75  1  0
 35 36  1  6
 36 76  1  0
M  END
>  <i_m_ct_stereo_status>  (118) 
1

>  <s_m_source_file>  (118) 
/var/tmp/pbs.5076255.sched01/tmp7dp07en1/447ppmqug5.sdf

>  <i_m_source_file_index>  (118) 
7

>  <i_lp_mmshare_version>  (118) 
48012

>  <i_f3d_flags>  (118) 
0

>  <s_epik_input>  (118) 
W0NIM11DKFtDSDNdKShbQ0gyXTEpW0NASF0yW0NIMl1bQ0BIXShPMylbQ0BASF00T1tDQEhdKFtDQEhdKFtDSDNdKVtDSDJdW0NIMl01KVtDQF0yKE9bQ0gzXSlbQ0BAXTYoW09IXSlDKD1PKU9bQ0gyXVtDQEhdKFtDQEBIXTZbQ0BdMzdbQ0BAXTE0NSlbQ0gyXVtDQEhdOFtDQEBdNyhbT0hdKVtDSDJdQyg9W0NIXTgpW0NIM10=

>  <s_epik_cmdline>  (118) 
J2VwaWtfcHl0aG9uJywgJy1waHQnLCAnMi4wJywgJy1waCcsICc3LjAnLCAnLXRuJywgJzgnLCAnLW1hJywgJzIwMCcsICctaW1hZScsICc8aW5maWxlLm1hZT4nLCAnLW9tYWUnLCAnPG91dGZpbGUubWFlPic=

>  <r_lp_tautomer_probability>  (118) 
1

>  <r_epik_Ionization_Penalty>  (118) 
1.37783e-06

>  <r_epik_Ionization_Penalty_Charging>  (118) 
0

>  <r_epik_Ionization_Penalty_Neutral>  (118) 
1.37783e-06

>  <r_epik_State_Penalty>  (118) 
-0

>  <r_epik_Charging_Adjusted_Penalty>  (118) 
0

>  <i_epik_Tot_Q>  (118) 
0

>  <i_epik_Tot_abs_Q>  (118) 
0

>  <s_epik_Chemistry_Notes>  (118) 
This compound has an ester and may undergo hydrolysis at high or low pH.

>  <s_lp_Force_Field>  (118) 
OPLS3e

>  <r_lp_Energy>  (118) 
536.144

>  <b_lp_Chiralities_Consistent>  (118) 
1

>  <s_lp_Variant>  (118) 
35:0-1

>  <s_i_glide_gridfile>  (118) 
pfpi4k_grid

>  <i_i_glide_lignum>  (118) 
7

>  <i_i_glide_rotatable_bonds>  (118) 
3

>  <r_i_docking_score>  (118) 
-1.60481

>  <r_i_glide_ligand_efficiency>  (118) 
-0.0445781

>  <r_i_glide_ligand_efficiency_sa>  (118) 
-0.147194

>  <r_i_glide_ligand_efficiency_ln>  (118) 
-0.350127

>  <r_i_glide_gscore>  (118) 
-1.60481

>  <r_i_glide_lipo>  (118) 
-0.242261

>  <r_i_glide_hbond>  (118) 
0

>  <r_i_glide_metal>  (118) 
-0

>  <r_i_glide_rewards>  (118) 
0

>  <r_i_glide_evdw>  (118) 
-19.9231

>  <r_i_glide_ecoul>  (118) 
-2.41939

>  <r_i_glide_erotb>  (118) 
0

>  <r_i_glide_esite>  (118) 
-0.00349008

>  <r_i_glide_emodel>  (118) 
-23.9098

>  <r_i_glide_energy>  (118) 
-22.3424

>  <r_i_glide_einternal>  (118) 
1.77373

>  <r_i_glide_intrahb_reward>  (118) 
-0

>  <i_i_glide_confnum>  (118) 
1

>  <i_i_glide_posenum>  (118) 
4

>  <r_i_glide_eff_state_penalty>  (118) 
0

>  <ligand_id>  (118) 
35

>  <original_smiles>  (118) 
COC12C3OC4C5CC1C(C)(C)CC4(CCC3C)C1(O5)C3C(COC(=O)C32O)CC2C=C(C)CC21O

>  <smiles>  (118) 
[H]OC12C(=O)OC([H])([H])C3([H])C([H])([H])C4([H])C([H])=C(C([H])([H])[H])C([H])([H])C4(O[H])C4(OC5([H])C([H])([H])C6([H])C1(OC([H])([H])[H])C1([H])OC5([H])C4(C([H])([H])C([H])([H])C1([H])C([H])([H])[H])C([H])([H])C6(C([H])([H])[H])C([H])([H])[H])C23[H]

$$$$
36:0:0
     RDKit          3D

 89 95  0  0  1  0  0  0  0  0999 V2000
    1.7778   -4.9334    2.8191 C   0  0  0  0  0  0  0  0  0  0  0  0
    1.7343   -3.7779    3.7949 C   0  0  0  0  0  0  0  0  0  0  0  0
    0.7024   -3.2969    4.4939 C   0  0  0  0  0  0  0  0  0  0  0  0
    1.0526   -2.0924    5.3387 C   0  0  1  0  0  0  0  0  0  0  0  0
    0.6650   -2.0360    6.8782 C   0  0  1  0  0  0  0  0  0  0  0  0
    1.7445   -2.6197    8.0192 C   0  0  2  0  0  0  0  0  0  0  0  0
    2.4231   -1.8287    9.1964 C   0  0  0  0  0  0  0  0  0  0  0  0
    3.5193   -0.7809    8.7591 C   0  0  1  0  0  0  0  0  0  0  0  0
    5.0565   -1.0369    8.9479 C   0  0  0  0  0  0  0  0  0  0  0  0
    3.0405   -0.2995    7.3782 C   0  0  2  0  0  0  0  0  0  0  0  0
    3.9768    0.7463    6.6773 C   0  0  0  0  0  0  0  0  0  0  0  0
    5.1856    0.5710    6.5382 O   0  0  0  0  0  0  0  0  0  0  0  0
    3.4162    1.9217    6.2785 O   0  0  0  0  0  0  0  0  0  0  0  0
    2.3895    2.0186    5.2829 C   0  0  2  0  0  0  0  0  0  0  0  0
    2.6339    3.4038    4.6699 C   0  0  0  0  0  0  0  0  0  0  0  0
    1.8249    3.6102    3.3913 C   0  0  1  0  0  0  0  0  0  0  0  0
    2.2713    2.6802    2.2517 C   0  0  0  0  0  0  0  0  0  0  0  0
    0.3084    3.5071    3.6534 C   0  0  2  0  0  0  0  0  0  0  0  0
   -0.3195    4.9138    3.6811 C   0  0  1  0  0  0  0  0  0  0  0  0
   -1.6676    4.8510    3.2591 O   0  0  0  0  0  0  0  0  0  0  0  0
   -0.1993    5.3550    5.1345 C   0  0  0  0  0  0  0  0  0  0  0  0
   -0.2046    4.0652    5.9633 C   0  0  0  0  0  0  0  0  0  0  0  0
   -0.1381    2.8210    5.0127 C   0  0  1  0  0  0  0  0  0  0  0  0
   -1.6109    2.3227    4.7219 C   0  0  0  0  0  0  0  0  0  0  0  0
    0.8436    1.6252    5.5421 C   0  0  1  0  0  0  0  0  0  0  0  0
    0.5492    0.7809    4.4650 O   0  0  0  0  0  0  0  0  0  0  0  0
    0.4763    0.7863    6.9457 C   0  0  1  0  0  0  0  0  0  0  0  0
   -0.6470    1.6373    7.6650 C   0  0  0  0  0  0  0  0  0  0  0  0
   -0.1373   -0.6879    7.0380 C   0  0  1  0  0  0  0  0  0  0  0  0
   -1.3386   -0.7582    6.2902 O   0  0  0  0  0  0  0  0  0  0  0  0
    1.6927    0.6113    7.9027 C   0  0  1  0  0  0  0  0  0  0  0  0
    1.3087    0.9474    9.4436 C   0  0  0  0  0  0  0  0  0  0  0  0
    0.3235    0.1941   10.1355 O   0  0  0  0  0  0  0  0  0  0  0  0
    3.2394   -1.7559    6.4745 C   0  0  1  0  0  0  0  0  0  0  0  0
    2.9599   -3.1522    7.2713 C   0  0  0  0  0  0  0  0  0  0  0  0
    4.2359   -3.7488    8.0076 C   0  0  0  0  0  0  0  0  0  0  0  0
    2.4834   -4.5313    6.6682 C   0  0  0  0  0  0  0  0  0  0  0  0
    2.5422   -1.8447    5.0778 C   0  0  2  0  0  0  0  0  0  0  0  0
    2.8548   -0.7423    4.2901 O   0  0  0  0  0  0  0  0  0  0  0  0
    2.9340   -3.0005    4.1434 C   0  0  0  0  0  0  0  0  0  0  0  0
    4.0783   -3.2143    3.7692 O   0  0  0  0  0  0  0  0  0  0  0  0
    1.9873   -4.5700    1.8130 H   0  0  0  0  0  0  0  0  0  0  0  0
    0.8431   -5.5000    2.7932 H   0  0  0  0  0  0  0  0  0  0  0  0
    2.5776   -5.6175    3.0921 H   0  0  0  0  0  0  0  0  0  0  0  0
   -0.3053   -3.6774    4.4555 H   0  0  0  0  0  0  0  0  0  0  0  0
    0.4378   -1.4201    4.7736 H   0  0  0  0  0  0  0  0  0  0  0  0
   -0.1188   -2.7906    6.9563 H   0  0  0  0  0  0  0  0  0  0  0  0
    1.2606   -3.4577    8.5050 H   0  0  0  0  0  0  0  0  0  0  0  0
    1.6709   -1.4643    9.8467 H   0  0  0  0  0  0  0  0  0  0  0  0
    2.9231   -2.5105    9.8633 H   0  0  0  0  0  0  0  0  0  0  0  0
    3.5135    0.0173    9.4643 H   0  0  0  0  0  0  0  0  0  0  0  0
    5.5636   -1.5605    8.1291 H   0  0  0  0  0  0  0  0  0  0  0  0
    5.2464   -1.5798    9.8736 H   0  0  0  0  0  0  0  0  0  0  0  0
    5.6191   -0.1006    9.0545 H   0  0  0  0  0  0  0  0  0  0  0  0
    2.7445    1.4192    4.4619 H   0  0  0  0  0  0  0  0  0  0  0  0
    2.4392    4.1909    5.3912 H   0  0  0  0  0  0  0  0  0  0  0  0
    3.6965    3.5184    4.4390 H   0  0  0  0  0  0  0  0  0  0  0  0
    2.0683    4.6146    3.0345 H   0  0  0  0  0  0  0  0  0  0  0  0
    2.0715    1.6245    2.4268 H   0  0  0  0  0  0  0  0  0  0  0  0
    3.3419    2.7795    2.1205 H   0  0  0  0  0  0  0  0  0  0  0  0
    1.7858    2.9491    1.3147 H   0  0  0  0  0  0  0  0  0  0  0  0
   -0.0917    2.9863    2.7819 H   0  0  0  0  0  0  0  0  0  0  0  0
    0.1670    5.6232    3.0152 H   0  0  0  0  0  0  0  0  0  0  0  0
   -1.6327    4.5674    2.3561 H   0  0  0  0  0  0  0  0  0  0  0  0
    0.7441    5.8831    5.2850 H   0  0  0  0  0  0  0  0  0  0  0  0
   -0.9805    6.0424    5.4471 H   0  0  0  0  0  0  0  0  0  0  0  0
    0.6321    4.0914    6.6612 H   0  0  0  0  0  0  0  0  0  0  0  0
   -1.1112    4.0690    6.5685 H   0  0  0  0  0  0  0  0  0  0  0  0
   -1.8253    1.3341    5.1090 H   0  0  0  0  0  0  0  0  0  0  0  0
   -1.8323    2.2249    3.6579 H   0  0  0  0  0  0  0  0  0  0  0  0
   -2.3659    2.9969    5.1239 H   0  0  0  0  0  0  0  0  0  0  0  0
    0.7610    1.2620    3.6768 H   0  0  0  0  0  0  0  0  0  0  0  0
   -1.0858    1.1799    8.5431 H   0  0  0  0  0  0  0  0  0  0  0  0
   -1.5443    1.8115    7.0968 H   0  0  0  0  0  0  0  0  0  0  0  0
   -0.2858    2.6071    7.9949 H   0  0  0  0  0  0  0  0  0  0  0  0
   -0.4895   -0.8244    8.0487 H   0  0  0  0  0  0  0  0  0  0  0  0
   -1.1240   -0.5738    5.3849 H   0  0  0  0  0  0  0  0  0  0  0  0
    2.0245    1.6361    7.9265 H   0  0  0  0  0  0  0  0  0  0  0  0
    2.1058    1.1139   10.1499 H   0  0  0  0  0  0  0  0  0  0  0  0
    0.9358    1.9592    9.4951 H   0  0  0  0  0  0  0  0  0  0  0  0
    0.4521    0.2621   11.0649 H   0  0  0  0  0  0  0  0  0  0  0  0
    4.3053   -1.7994    6.2144 H   0  0  0  0  0  0  0  0  0  0  0  0
    5.1422   -3.5558    7.4307 H   0  0  0  0  0  0  0  0  0  0  0  0
    4.2383   -4.8300    8.1563 H   0  0  0  0  0  0  0  0  0  0  0  0
    4.4330   -3.4295    9.0146 H   0  0  0  0  0  0  0  0  0  0  0  0
    3.1462   -4.9563    5.9050 H   0  0  0  0  0  0  0  0  0  0  0  0
    1.4517   -4.5666    6.3527 H   0  0  0  0  0  0  0  0  0  0  0  0
    2.4177   -5.3052    7.4423 H   0  0  0  0  0  0  0  0  0  0  0  0
    2.3511   -0.7907    3.4879 H   0  0  0  0  0  0  0  0  0  0  0  0
  1  2  1  0
  1 42  1  0
  1 43  1  0
  1 44  1  0
  2 40  1  0
  2  3  2  0
  3  4  1  0
  3 45  1  0
  4 38  1  0
  4  5  1  0
  4 46  1  6
  5 29  1  0
  5  6  1  0
  5 47  1  6
  6 35  1  0
  6  7  1  0
  6 48  1  1
  7  8  1  0
  7 49  1  0
  7 50  1  0
  8  9  1  0
  8 10  1  0
  8 51  1  1
  9 52  1  0
  9 53  1  0
  9 54  1  0
 10 31  1  0
 10 11  1  6
 10 34  1  0
 11 12  2  0
 11 13  1  0
 13 14  1  0
 14 25  1  0
 14 15  1  0
 14 55  1  6
 15 16  1  0
 15 56  1  0
 15 57  1  0
 16 17  1  0
 16 18  1  0
 16 58  1  6
 17 59  1  0
 17 60  1  0
 17 61  1  0
 18 23  1  0
 18 19  1  0
 18 62  1  6
 19 20  1  0
 19 21  1  0
 19 63  1  6
 20 64  1  0
 21 22  1  0
 21 65  1  0
 21 66  1  0
 22 23  1  0
 22 67  1  0
 22 68  1  0
 23 24  1  6
 23 25  1  0
 24 69  1  0
 24 70  1  0
 24 71  1  0
 25 26  1  6
 25 27  1  0
 26 72  1  0
 27 28  1  1
 27 29  1  0
 27 31  1  0
 28 73  1  0
 28 74  1  0
 28 75  1  0
 29 30  1  0
 29 76  1  1
 30 77  1  0
 31 32  1  0
 31 78  1  6
 32 33  1  0
 32 79  1  0
 32 80  1  0
 33 81  1  0
 34 35  1  0
 34 38  1  0
 34 82  1  6
 35 36  1  0
 35 37  1  0
 36 83  1  0
 36 84  1  0
 36 85  1  0
 37 86  1  0
 37 87  1  0
 37 88  1  0
 38 39  1  6
 38 40  1  0
 39 89  1  0
 40 41  2  0
M  END
>  <i_m_ct_stereo_status>  (119) 
1

>  <s_m_source_file>  (119) 
/var/tmp/pbs.5076255.sched01/tmp7dp07en1/447ppmqug5.sdf

>  <i_m_source_file_index>  (119) 
8

>  <i_lp_mmshare_version>  (119) 
48012

>  <i_f3d_flags>  (119) 
0

>  <s_epik_input>  (119) 
Tz1DMUMoW0NIM10pPVtDSF1bQ0BIXShbQ0BdMShbQ0BIXTJbQ0BAXTM0NSlbT0hdKVtDQEBIXShbQ0BASF0oQzIoW0NIM10pW0NIM10pW0NIMl1bQ0BIXTNbQ0gzXSlbQ0BIXShbT0hdKVtDQEBdKFtDSDNdKShbQ0BIXTVbQ0gyXVtPSF0pW0NAXTYoW09IXSlbQ0BIXShPQzQ9TylbQ0gyXVtDQEBIXShbQ0gzXSlbQ0BIXTdbQ0BdNihbQ0gzXSlbQ0gyXVtDSDJdW0NAQEhdN1tPSF0=

>  <s_epik_cmdline>  (119) 
J2VwaWtfcHl0aG9uJywgJy1waHQnLCAnMi4wJywgJy1waCcsICc3LjAnLCAnLXRuJywgJzgnLCAnLW1hJywgJzIwMCcsICctaW1hZScsICc8aW5maWxlLm1hZT4nLCAnLW9tYWUnLCAnPG91dGZpbGUubWFlPic=

>  <r_lp_tautomer_probability>  (119) 
1

>  <r_epik_Ionization_Penalty>  (119) 
2.26777e-06

>  <r_epik_Ionization_Penalty_Charging>  (119) 
0

>  <r_epik_Ionization_Penalty_Neutral>  (119) 
2.26777e-06

>  <r_epik_State_Penalty>  (119) 
-0

>  <r_epik_Charging_Adjusted_Penalty>  (119) 
0

>  <i_epik_Tot_Q>  (119) 
0

>  <i_epik_Tot_abs_Q>  (119) 
0

>  <s_epik_Chemistry_Notes>  (119) 
This compound has an ester and may undergo hydrolysis at high or low pH.

>  <s_lp_Force_Field>  (119) 
OPLS3e

>  <r_lp_Energy>  (119) 
314.475

>  <b_lp_Chiralities_Consistent>  (119) 
1

>  <s_lp_Variant>  (119) 
36:0-1

>  <s_i_glide_gridfile>  (119) 
pfpi4k_grid

>  <i_i_glide_lignum>  (119) 
8

>  <i_i_glide_rotatable_bonds>  (119) 
6

>  <r_i_docking_score>  (119) 
-3.03887

>  <r_i_glide_ligand_efficiency>  (119) 
-0.0741189

>  <r_i_glide_ligand_efficiency_sa>  (119) 
-0.255578

>  <r_i_glide_ligand_efficiency_ln>  (119) 
-0.644707

>  <r_i_glide_gscore>  (119) 
-3.03887

>  <r_i_glide_lipo>  (119) 
-0.0268471

>  <r_i_glide_hbond>  (119) 
-0.189451

>  <r_i_glide_metal>  (119) 
-0

>  <r_i_glide_rewards>  (119) 
-0.500157

>  <r_i_glide_evdw>  (119) 
-14.6989

>  <r_i_glide_ecoul>  (119) 
-11.0071

>  <r_i_glide_erotb>  (119) 
0.0635881

>  <r_i_glide_esite>  (119) 
0

>  <r_i_glide_emodel>  (119) 
-35.2058

>  <r_i_glide_energy>  (119) 
-25.7059

>  <r_i_glide_einternal>  (119) 
2.88526

>  <r_i_glide_intrahb_reward>  (119) 
-0.5

>  <i_i_glide_confnum>  (119) 
4

>  <i_i_glide_posenum>  (119) 
1

>  <r_i_glide_eff_state_penalty>  (119) 
0

>  <ligand_id>  (119) 
36

>  <original_smiles>  (119) 
CC1=CC2C3C4CC(C)C5(C(=O)OC6CC(C)C7C(O)CCC7(C)C6(O)C(C)(C3O)C5CO)C(C4(C)C)C2(O)C1=O

>  <smiles>  (119) 
[H]OC([H])([H])C1([H])C23C(=O)OC4([H])C([H])([H])C([H])(C([H])([H])[H])C5([H])C([H])(O[H])C([H])([H])C([H])([H])C5(C([H])([H])[H])C4(O[H])C1(C([H])([H])[H])C([H])(O[H])C1([H])C4([H])C([H])=C(C([H])([H])[H])C(=O)C4(O[H])C2([H])C(C([H])([H])[H])(C([H])([H])[H])C1([H])C([H])([H])C3([H])C([H])([H])[H]

$$$$
36:0:1
     RDKit          3D

 89 95  0  0  1  0  0  0  0  0999 V2000
    6.8196   -3.2446    7.7681 C   0  0  0  0  0  0  0  0  0  0  0  0
    6.4519   -4.4358    6.8815 C   0  0  0  0  0  0  0  0  0  0  0  0
    6.1895   -4.4564    5.5851 C   0  0  0  0  0  0  0  0  0  0  0  0
    5.8221   -5.8314    5.0508 C   0  0  1  0  0  0  0  0  0  0  0  0
    6.5601   -6.4337    3.7900 C   0  0  1  0  0  0  0  0  0  0  0  0
    7.9408   -7.3302    4.0261 C   0  0  2  0  0  0  0  0  0  0  0  0
    8.1589   -8.8121    3.6164 C   0  0  0  0  0  0  0  0  0  0  0  0
    7.3815   -9.9067    4.4731 C   0  0  1  0  0  0  0  0  0  0  0  0
    8.1051  -10.7971    5.5508 C   0  0  0  0  0  0  0  0  0  0  0  0
    6.0838   -9.1987    4.8947 C   0  0  2  0  0  0  0  0  0  0  0  0
    5.1388  -10.0116    5.8421 C   0  0  0  0  0  0  0  0  0  0  0  0
    5.5314  -10.5181    6.8824 O   0  0  0  0  0  0  0  0  0  0  0  0
    3.8429  -10.1366    5.4488 O   0  0  0  0  0  0  0  0  0  0  0  0
    2.9344   -9.0416    5.2719 C   0  0  2  0  0  0  0  0  0  0  0  0
    1.5714   -9.6796    5.5673 C   0  0  0  0  0  0  0  0  0  0  0  0
    0.4671   -8.6348    5.7392 C   0  0  1  0  0  0  0  0  0  0  0  0
    0.6745   -7.7690    7.0023 C   0  0  0  0  0  0  0  0  0  0  0  0
    0.2819   -7.7860    4.4526 C   0  0  2  0  0  0  0  0  0  0  0  0
   -0.9662   -8.2605    3.6784 C   0  0  1  0  0  0  0  0  0  0  0  0
   -1.5521   -7.2359    2.9012 O   0  0  0  0  0  0  0  0  0  0  0  0
   -0.4504   -9.3592    2.7599 C   0  0  0  0  0  0  0  0  0  0  0  0
    1.0307   -9.0346    2.4991 C   0  0  0  0  0  0  0  0  0  0  0  0
    1.4808   -7.8369    3.4002 C   0  0  1  0  0  0  0  0  0  0  0  0
    1.3110   -6.4934    2.5895 C   0  0  0  0  0  0  0  0  0  0  0  0
    2.9821   -8.0095    4.0301 C   0  0  1  0  0  0  0  0  0  0  0  0
    2.9779   -6.7853    4.7060 O   0  0  0  0  0  0  0  0  0  0  0  0
    4.3401   -8.0460    3.0284 C   0  0  1  0  0  0  0  0  0  0  0  0
    3.7838   -8.2241    1.5714 C   0  0  0  0  0  0  0  0  0  0  0  0
    5.4135   -6.8712    2.7900 C   0  0  1  0  0  0  0  0  0  0  0  0
    4.7585   -5.6911    2.3374 O   0  0  0  0  0  0  0  0  0  0  0  0
    5.3104   -9.2309    3.3699 C   0  0  1  0  0  0  0  0  0  0  0  0
    5.8612  -10.0668    2.0595 C   0  0  0  0  0  0  0  0  0  0  0  0
    5.8115  -11.4900    2.1253 O   0  0  0  0  0  0  0  0  0  0  0  0
    6.7773   -7.9709    5.9053 C   0  0  1  0  0  0  0  0  0  0  0  0
    8.2538   -7.3868    5.5059 C   0  0  0  0  0  0  0  0  0  0  0  0
    9.4712   -8.2072    6.0889 C   0  0  0  0  0  0  0  0  0  0  0  0
    8.8652   -5.9654    5.7895 C   0  0  0  0  0  0  0  0  0  0  0  0
    5.8863   -6.7505    6.2722 C   0  0  2  0  0  0  0  0  0  0  0  0
    4.6593   -7.1608    6.7547 O   0  0  0  0  0  0  0  0  0  0  0  0
    6.3640   -5.8068    7.3932 C   0  0  0  0  0  0  0  0  0  0  0  0
    6.6099   -6.2019    8.5386 O   0  0  0  0  0  0  0  0  0  0  0  0
    6.0216   -3.0484    8.4790 H   0  0  0  0  0  0  0  0  0  0  0  0
    6.9903   -2.3377    7.1893 H   0  0  0  0  0  0  0  0  0  0  0  0
    7.7233   -3.4677    8.3271 H   0  0  0  0  0  0  0  0  0  0  0  0
    6.1760   -3.5865    4.9446 H   0  0  0  0  0  0  0  0  0  0  0  0
    4.8213   -5.5493    4.7960 H   0  0  0  0  0  0  0  0  0  0  0  0
    6.9887   -5.5632    3.3057 H   0  0  0  0  0  0  0  0  0  0  0  0
    8.7423   -6.8166    3.4948 H   0  0  0  0  0  0  0  0  0  0  0  0
    8.0312   -8.7105    2.5619 H   0  0  0  0  0  0  0  0  0  0  0  0
    9.2076   -9.1018    3.6362 H   0  0  0  0  0  0  0  0  0  0  0  0
    7.2040  -10.7469    3.8420 H   0  0  0  0  0  0  0  0  0  0  0  0
    8.1748  -10.3602    6.5419 H   0  0  0  0  0  0  0  0  0  0  0  0
    9.0969  -11.0881    5.2243 H   0  0  0  0  0  0  0  0  0  0  0  0
    7.5692  -11.7354    5.7101 H   0  0  0  0  0  0  0  0  0  0  0  0
    3.0254   -8.4713    6.1801 H   0  0  0  0  0  0  0  0  0  0  0  0
    1.3093  -10.4183    4.8144 H   0  0  0  0  0  0  0  0  0  0  0  0
    1.6413  -10.2547    6.4906 H   0  0  0  0  0  0  0  0  0  0  0  0
   -0.4510   -9.1970    5.9300 H   0  0  0  0  0  0  0  0  0  0  0  0
    1.5465   -7.1205    6.9238 H   0  0  0  0  0  0  0  0  0  0  0  0
    0.8145   -8.4030    7.8773 H   0  0  0  0  0  0  0  0  0  0  0  0
   -0.1833   -7.1255    7.1908 H   0  0  0  0  0  0  0  0  0  0  0  0
    0.0941   -6.7679    4.8085 H   0  0  0  0  0  0  0  0  0  0  0  0
   -1.7502   -8.6390    4.3251 H   0  0  0  0  0  0  0  0  0  0  0  0
   -2.2216   -7.6480    2.3814 H   0  0  0  0  0  0  0  0  0  0  0  0
   -0.5288  -10.3243    3.2688 H   0  0  0  0  0  0  0  0  0  0  0  0
   -1.0347   -9.4574    1.8394 H   0  0  0  0  0  0  0  0  0  0  0  0
    1.6256   -9.9301    2.6723 H   0  0  0  0  0  0  0  0  0  0  0  0
    1.1364   -8.8020    1.4439 H   0  0  0  0  0  0  0  0  0  0  0  0
    2.2489   -5.9838    2.3961 H   0  0  0  0  0  0  0  0  0  0  0  0
    0.7253   -5.7362    3.1102 H   0  0  0  0  0  0  0  0  0  0  0  0
    0.8199   -6.6548    1.6305 H   0  0  0  0  0  0  0  0  0  0  0  0
    3.6960   -6.8052    5.3316 H   0  0  0  0  0  0  0  0  0  0  0  0
    4.5323   -8.0905    0.7875 H   0  0  0  0  0  0  0  0  0  0  0  0
    3.0305   -7.5185    1.2788 H   0  0  0  0  0  0  0  0  0  0  0  0
    3.3547   -9.2080    1.4169 H   0  0  0  0  0  0  0  0  0  0  0  0
    6.0056   -7.1808    1.9283 H   0  0  0  0  0  0  0  0  0  0  0  0
    5.3953   -5.1027    1.9698 H   0  0  0  0  0  0  0  0  0  0  0  0
    4.5339   -9.9805    3.3998 H   0  0  0  0  0  0  0  0  0  0  0  0
    5.2970   -9.9427    1.1441 H   0  0  0  0  0  0  0  0  0  0  0  0
    6.8557   -9.8838    1.7084 H   0  0  0  0  0  0  0  0  0  0  0  0
    5.1342  -11.7803    1.4864 H   0  0  0  0  0  0  0  0  0  0  0  0
    6.9608   -8.4437    6.8727 H   0  0  0  0  0  0  0  0  0  0  0  0
    9.2367   -8.5559    7.0903 H   0  0  0  0  0  0  0  0  0  0  0  0
   10.3981   -7.6501    6.2145 H   0  0  0  0  0  0  0  0  0  0  0  0
    9.8331   -9.0475    5.5240 H   0  0  0  0  0  0  0  0  0  0  0  0
    8.9432   -5.7213    6.8455 H   0  0  0  0  0  0  0  0  0  0  0  0
    8.4319   -5.1570    5.2236 H   0  0  0  0  0  0  0  0  0  0  0  0
    9.8810   -5.8827    5.3968 H   0  0  0  0  0  0  0  0  0  0  0  0
    4.8212   -7.6701    7.5394 H   0  0  0  0  0  0  0  0  0  0  0  0
  1  2  1  0
  1 42  1  0
  1 43  1  0
  1 44  1  0
  2 40  1  0
  2  3  2  0
  3  4  1  0
  3 45  1  0
  4 38  1  0
  4  5  1  0
  4 46  1  6
  5 29  1  0
  5  6  1  0
  5 47  1  6
  6 35  1  0
  6  7  1  0
  6 48  1  6
  7  8  1  0
  7 49  1  0
  7 50  1  0
  8  9  1  0
  8 10  1  0
  8 51  1  6
  9 52  1  0
  9 53  1  0
  9 54  1  0
 10 31  1  0
 10 11  1  1
 10 34  1  0
 11 12  2  0
 11 13  1  0
 13 14  1  0
 14 25  1  0
 14 15  1  0
 14 55  1  1
 15 16  1  0
 15 56  1  0
 15 57  1  0
 16 17  1  0
 16 18  1  0
 16 58  1  1
 17 59  1  0
 17 60  1  0
 17 61  1  0
 18 23  1  0
 18 19  1  0
 18 62  1  1
 19 20  1  0
 19 21  1  0
 19 63  1  1
 20 64  1  0
 21 22  1  0
 21 65  1  0
 21 66  1  0
 22 23  1  0
 22 67  1  0
 22 68  1  0
 23 24  1  6
 23 25  1  0
 24 69  1  0
 24 70  1  0
 24 71  1  0
 25 26  1  1
 25 27  1  0
 26 72  1  0
 27 28  1  6
 27 29  1  0
 27 31  1  0
 28 73  1  0
 28 74  1  0
 28 75  1  0
 29 30  1  0
 29 76  1  6
 30 77  1  0
 31 32  1  0
 31 78  1  1
 32 33  1  0
 32 79  1  0
 32 80  1  0
 33 81  1  0
 34 35  1  0
 34 38  1  0
 34 82  1  1
 35 36  1  0
 35 37  1  0
 36 83  1  0
 36 84  1  0
 36 85  1  0
 37 86  1  0
 37 87  1  0
 37 88  1  0
 38 39  1  1
 38 40  1  0
 39 89  1  0
 40 41  2  0
M  END
>  <i_m_ct_stereo_status>  (120) 
1

>  <s_m_source_file>  (120) 
/var/tmp/pbs.5076255.sched01/tmp7dp07en1/447ppmqug5.sdf

>  <i_m_source_file_index>  (120) 
8

>  <i_lp_mmshare_version>  (120) 
48012

>  <i_f3d_flags>  (120) 
0

>  <s_epik_input>  (120) 
Tz1DMUMoW0NIM10pPVtDSF1bQ0BIXShbQ0BdMShbQ0BIXTJbQ0BAXTM0NSlbT0hdKVtDQEBIXShbQ0BASF0oQzIoW0NIM10pW0NIM10pW0NIMl1bQ0BIXTNbQ0gzXSlbQ0BIXShbT0hdKVtDQEBdKFtDSDNdKShbQ0BIXTVbQ0gyXVtPSF0pW0NAXTYoW09IXSlbQ0BIXShPQzQ9TylbQ0gyXVtDQEBIXShbQ0gzXSlbQ0BIXTdbQ0BdNihbQ0gzXSlbQ0gyXVtDSDJdW0NAQEhdN1tPSF0=

>  <s_epik_cmdline>  (120) 
J2VwaWtfcHl0aG9uJywgJy1waHQnLCAnMi4wJywgJy1waCcsICc3LjAnLCAnLXRuJywgJzgnLCAnLW1hJywgJzIwMCcsICctaW1hZScsICc8aW5maWxlLm1hZT4nLCAnLW9tYWUnLCAnPG91dGZpbGUubWFlPic=

>  <r_lp_tautomer_probability>  (120) 
1

>  <r_epik_Ionization_Penalty>  (120) 
2.26777e-06

>  <r_epik_Ionization_Penalty_Charging>  (120) 
0

>  <r_epik_Ionization_Penalty_Neutral>  (120) 
2.26777e-06

>  <r_epik_State_Penalty>  (120) 
-0

>  <r_epik_Charging_Adjusted_Penalty>  (120) 
0

>  <i_epik_Tot_Q>  (120) 
0

>  <i_epik_Tot_abs_Q>  (120) 
0

>  <s_epik_Chemistry_Notes>  (120) 
This compound has an ester and may undergo hydrolysis at high or low pH.

>  <s_lp_Force_Field>  (120) 
OPLS3e

>  <r_lp_Energy>  (120) 
314.475

>  <b_lp_Chiralities_Consistent>  (120) 
1

>  <s_lp_Variant>  (120) 
36:0-1

>  <s_i_glide_gridfile>  (120) 
pfpi4k_grid

>  <i_i_glide_lignum>  (120) 
8

>  <i_i_glide_rotatable_bonds>  (120) 
6

>  <r_i_docking_score>  (120) 
-2.9965

>  <r_i_glide_ligand_efficiency>  (120) 
-0.0730853

>  <r_i_glide_ligand_efficiency_sa>  (120) 
-0.252014

>  <r_i_glide_ligand_efficiency_ln>  (120) 
-0.635717

>  <r_i_glide_gscore>  (120) 
-2.9965

>  <r_i_glide_lipo>  (120) 
-0.0725984

>  <r_i_glide_hbond>  (120) 
-0.29298

>  <r_i_glide_metal>  (120) 
-0

>  <r_i_glide_rewards>  (120) 
-0.5

>  <r_i_glide_evdw>  (120) 
-21.4422

>  <r_i_glide_ecoul>  (120) 
-7.46582

>  <r_i_glide_erotb>  (120) 
0.0635881

>  <r_i_glide_esite>  (120) 
-0.002526

>  <r_i_glide_emodel>  (120) 
-34.6947

>  <r_i_glide_energy>  (120) 
-28.908

>  <r_i_glide_einternal>  (120) 
5.19021

>  <r_i_glide_intrahb_reward>  (120) 
-0.5

>  <i_i_glide_confnum>  (120) 
3

>  <i_i_glide_posenum>  (120) 
22

>  <r_i_glide_eff_state_penalty>  (120) 
0

>  <ligand_id>  (120) 
36

>  <original_smiles>  (120) 
CC1=CC2C3C4CC(C)C5(C(=O)OC6CC(C)C7C(O)CCC7(C)C6(O)C(C)(C3O)C5CO)C(C4(C)C)C2(O)C1=O

>  <smiles>  (120) 
[H]OC([H])([H])C1([H])C23C(=O)OC4([H])C([H])([H])C([H])(C([H])([H])[H])C5([H])C([H])(O[H])C([H])([H])C([H])([H])C5(C([H])([H])[H])C4(O[H])C1(C([H])([H])[H])C([H])(O[H])C1([H])C4([H])C([H])=C(C([H])([H])[H])C(=O)C4(O[H])C2([H])C(C([H])([H])[H])(C([H])([H])[H])C1([H])C([H])([H])C3([H])C([H])([H])[H]

$$$$
36:0:2
     RDKit          3D

 89 95  0  0  1  0  0  0  0  0999 V2000
    4.7289   -3.2496    0.1584 C   0  0  0  0  0  0  0  0  0  0  0  0
    4.1732   -2.6701    1.4445 C   0  0  0  0  0  0  0  0  0  0  0  0
    2.9626   -2.8032    1.9909 C   0  0  0  0  0  0  0  0  0  0  0  0
    2.7943   -2.0188    3.2846 C   0  0  1  0  0  0  0  0  0  0  0  0
    2.2155   -2.7281    4.5853 C   0  0  1  0  0  0  0  0  0  0  0  0
    3.2713   -3.4392    5.6599 C   0  0  2  0  0  0  0  0  0  0  0  0
    3.4778   -3.0468    7.1754 C   0  0  0  0  0  0  0  0  0  0  0  0
    4.2486   -1.6705    7.4292 C   0  0  1  0  0  0  0  0  0  0  0  0
    5.7356   -1.6428    7.8998 C   0  0  0  0  0  0  0  0  0  0  0  0
    3.8089   -0.7850    6.2526 C   0  0  2  0  0  0  0  0  0  0  0  0
    4.4476    0.6368    6.2368 C   0  0  0  0  0  0  0  0  0  0  0  0
    5.6625    0.8115    6.3564 O   0  0  0  0  0  0  0  0  0  0  0  0
    3.5944    1.6891    6.1457 O   0  0  0  0  0  0  0  0  0  0  0  0
    2.7026    1.9191    5.0491 C   0  0  2  0  0  0  0  0  0  0  0  0
    2.5536    3.4449    5.0776 C   0  0  0  0  0  0  0  0  0  0  0  0
    1.8958    3.9684    3.8035 C   0  0  1  0  0  0  0  0  0  0  0  0
    2.7803    3.7838    2.5552 C   0  0  0  0  0  0  0  0  0  0  0  0
    0.4664    3.3948    3.6212 C   0  0  2  0  0  0  0  0  0  0  0  0
   -0.5731    4.4734    4.0030 C   0  0  1  0  0  0  0  0  0  0  0  0
   -1.7848    4.3410    3.2911 O   0  0  0  0  0  0  0  0  0  0  0  0
   -0.7982    4.2503    5.4924 C   0  0  0  0  0  0  0  0  0  0  0  0
   -0.4870    2.7731    5.7630 C   0  0  0  0  0  0  0  0  0  0  0  0
    0.1052    2.1062    4.4796 C   0  0  1  0  0  0  0  0  0  0  0  0
   -1.0708    1.4301    3.6655 C   0  0  0  0  0  0  0  0  0  0  0  0
    1.3491    1.0822    4.7613 C   0  0  1  0  0  0  0  0  0  0  0  0
    1.5010    0.7295    3.4153 O   0  0  0  0  0  0  0  0  0  0  0  0
    1.1064   -0.3284    5.6303 C   0  0  1  0  0  0  0  0  0  0  0  0
   -0.3232   -0.1953    6.2801 C   0  0  0  0  0  0  0  0  0  0  0  0
    1.0071   -1.8332    5.0567 C   0  0  1  0  0  0  0  0  0  0  0  0
   -0.0141   -1.9303    4.0793 O   0  0  0  0  0  0  0  0  0  0  0  0
    2.1893   -0.5107    6.7434 C   0  0  1  0  0  0  0  0  0  0  0  0
    1.5337   -1.0599    8.1312 C   0  0  0  0  0  0  0  0  0  0  0  0
    0.7310   -0.1619    8.8852 O   0  0  0  0  0  0  0  0  0  0  0  0
    4.5778   -1.6560    4.9729 C   0  0  1  0  0  0  0  0  0  0  0  0
    4.6757   -3.2842    5.1075 C   0  0  0  0  0  0  0  0  0  0  0  0
    5.9506   -3.7988    5.8900 C   0  0  0  0  0  0  0  0  0  0  0  0
    4.7601   -4.3481    3.9498 C   0  0  0  0  0  0  0  0  0  0  0  0
    4.1483   -1.3270    3.5081 C   0  0  2  0  0  0  0  0  0  0  0  0
    4.1722    0.0427    3.2847 O   0  0  0  0  0  0  0  0  0  0  0  0
    4.9960   -1.8430    2.3290 C   0  0  0  0  0  0  0  0  0  0  0  0
    6.1731   -1.5330    2.1467 O   0  0  0  0  0  0  0  0  0  0  0  0
    4.9257   -2.4546   -0.5562 H   0  0  0  0  0  0  0  0  0  0  0  0
    4.0426   -3.9573   -0.2999 H   0  0  0  0  0  0  0  0  0  0  0  0
    5.6673   -3.7635    0.3554 H   0  0  0  0  0  0  0  0  0  0  0  0
    2.1513   -3.3604    1.5477 H   0  0  0  0  0  0  0  0  0  0  0  0
    2.0599   -1.3556    2.8697 H   0  0  0  0  0  0  0  0  0  0  0  0
    1.7169   -3.6140    4.1882 H   0  0  0  0  0  0  0  0  0  0  0  0
    3.0122   -4.4986    5.6950 H   0  0  0  0  0  0  0  0  0  0  0  0
    2.5229   -3.1642    7.6623 H   0  0  0  0  0  0  0  0  0  0  0  0
    4.0065   -3.8376    7.7037 H   0  0  0  0  0  0  0  0  0  0  0  0
    3.9592   -1.2179    8.3570 H   0  0  0  0  0  0  0  0  0  0  0  0
    6.4713   -1.6220    7.1011 H   0  0  0  0  0  0  0  0  0  0  0  0
    5.9652   -2.4626    8.5843 H   0  0  0  0  0  0  0  0  0  0  0  0
    5.9390   -0.7350    8.4730 H   0  0  0  0  0  0  0  0  0  0  0  0
    3.3385    1.8368    4.1879 H   0  0  0  0  0  0  0  0  0  0  0  0
    2.0131    3.7748    5.9618 H   0  0  0  0  0  0  0  0  0  0  0  0
    3.5366    3.9092    5.1727 H   0  0  0  0  0  0  0  0  0  0  0  0
    1.8351    5.0507    3.9179 H   0  0  0  0  0  0  0  0  0  0  0  0
    2.9020    2.7376    2.2786 H   0  0  0  0  0  0  0  0  0  0  0  0
    3.7752    4.1943    2.7284 H   0  0  0  0  0  0  0  0  0  0  0  0
    2.3607    4.3038    1.6925 H   0  0  0  0  0  0  0  0  0  0  0  0
    0.3822    3.1862    2.5512 H   0  0  0  0  0  0  0  0  0  0  0  0
   -0.2285    5.4853    3.7990 H   0  0  0  0  0  0  0  0  0  0  0  0
   -1.5541    4.1897    2.3801 H   0  0  0  0  0  0  0  0  0  0  0  0
   -0.1120    4.8765    6.0667 H   0  0  0  0  0  0  0  0  0  0  0  0
   -1.8013    4.5241    5.8134 H   0  0  0  0  0  0  0  0  0  0  0  0
    0.1978    2.7058    6.6066 H   0  0  0  0  0  0  0  0  0  0  0  0
   -1.4142    2.2998    6.0784 H   0  0  0  0  0  0  0  0  0  0  0  0
   -0.9935    0.3501    3.5917 H   0  0  0  0  0  0  0  0  0  0  0  0
   -1.1166    1.7398    2.6194 H   0  0  0  0  0  0  0  0  0  0  0  0
   -2.0543    1.6561    4.0814 H   0  0  0  0  0  0  0  0  0  0  0  0
    1.5750    1.5324    2.9170 H   0  0  0  0  0  0  0  0  0  0  0  0
   -0.6474   -1.0676    6.8395 H   0  0  0  0  0  0  0  0  0  0  0  0
   -1.1436   -0.0880    5.5882 H   0  0  0  0  0  0  0  0  0  0  0  0
   -0.3777    0.6254    6.9808 H   0  0  0  0  0  0  0  0  0  0  0  0
    0.6138   -2.4574    5.8561 H   0  0  0  0  0  0  0  0  0  0  0  0
    0.2495   -1.4037    3.3408 H   0  0  0  0  0  0  0  0  0  0  0  0
    2.1736    0.4621    7.2145 H   0  0  0  0  0  0  0  0  0  0  0  0
    0.9046   -1.9315    7.9660 H   0  0  0  0  0  0  0  0  0  0  0  0
    2.1819   -1.3677    8.9400 H   0  0  0  0  0  0  0  0  0  0  0  0
    1.2451    0.5969    9.1210 H   0  0  0  0  0  0  0  0  0  0  0  0
    5.6203   -1.3370    4.9843 H   0  0  0  0  0  0  0  0  0  0  0  0
    6.8068   -3.1673    5.6779 H   0  0  0  0  0  0  0  0  0  0  0  0
    6.3103   -4.7918    5.6218 H   0  0  0  0  0  0  0  0  0  0  0  0
    5.8756   -3.9080    6.9589 H   0  0  0  0  0  0  0  0  0  0  0  0
    5.6160   -4.2182    3.2863 H   0  0  0  0  0  0  0  0  0  0  0  0
    3.8514   -4.5007    3.3891 H   0  0  0  0  0  0  0  0  0  0  0  0
    4.8583   -5.3628    4.3388 H   0  0  0  0  0  0  0  0  0  0  0  0
    3.7509    0.2270    2.4566 H   0  0  0  0  0  0  0  0  0  0  0  0
  1  2  1  0
  1 42  1  0
  1 43  1  0
  1 44  1  0
  2 40  1  0
  2  3  2  0
  3  4  1  0
  3 45  1  0
  4 38  1  0
  4  5  1  0
  4 46  1  6
  5 29  1  0
  5  6  1  0
  5 47  1  6
  6 35  1  0
  6  7  1  0
  6 48  1  1
  7  8  1  0
  7 49  1  0
  7 50  1  0
  8  9  1  0
  8 10  1  0
  8 51  1  1
  9 52  1  0
  9 53  1  0
  9 54  1  0
 10 31  1  0
 10 11  1  1
 10 34  1  0
 11 12  2  0
 11 13  1  0
 13 14  1  0
 14 25  1  0
 14 15  1  0
 14 55  1  6
 15 16  1  0
 15 56  1  0
 15 57  1  0
 16 17  1  0
 16 18  1  0
 16 58  1  1
 17 59  1  0
 17 60  1  0
 17 61  1  0
 18 23  1  0
 18 19  1  0
 18 62  1  6
 19 20  1  0
 19 21  1  0
 19 63  1  1
 20 64  1  0
 21 22  1  0
 21 65  1  0
 21 66  1  0
 22 23  1  0
 22 67  1  0
 22 68  1  0
 23 24  1  6
 23 25  1  0
 24 69  1  0
 24 70  1  0
 24 71  1  0
 25 26  1  6
 25 27  1  0
 26 72  1  0
 27 28  1  1
 27 29  1  0
 27 31  1  0
 28 73  1  0
 28 74  1  0
 28 75  1  0
 29 30  1  0
 29 76  1  1
 30 77  1  0
 31 32  1  0
 31 78  1  1
 32 33  1  0
 32 79  1  0
 32 80  1  0
 33 81  1  0
 34 35  1  0
 34 38  1  0
 34 82  1  6
 35 36  1  0
 35 37  1  0
 36 83  1  0
 36 84  1  0
 36 85  1  0
 37 86  1  0
 37 87  1  0
 37 88  1  0
 38 39  1  1
 38 40  1  0
 39 89  1  0
 40 41  2  0
M  END
>  <i_m_ct_stereo_status>  (121) 
1

>  <s_m_source_file>  (121) 
/var/tmp/pbs.5076255.sched01/tmp7dp07en1/447ppmqug5.sdf

>  <i_m_source_file_index>  (121) 
8

>  <i_lp_mmshare_version>  (121) 
48012

>  <i_f3d_flags>  (121) 
0

>  <s_epik_input>  (121) 
Tz1DMUMoW0NIM10pPVtDSF1bQ0BIXShbQ0BdMShbQ0BIXTJbQ0BAXTM0NSlbT0hdKVtDQEBIXShbQ0BASF0oQzIoW0NIM10pW0NIM10pW0NIMl1bQ0BIXTNbQ0gzXSlbQ0BIXShbT0hdKVtDQEBdKFtDSDNdKShbQ0BIXTVbQ0gyXVtPSF0pW0NAXTYoW09IXSlbQ0BIXShPQzQ9TylbQ0gyXVtDQEBIXShbQ0gzXSlbQ0BIXTdbQ0BdNihbQ0gzXSlbQ0gyXVtDSDJdW0NAQEhdN1tPSF0=

>  <s_epik_cmdline>  (121) 
J2VwaWtfcHl0aG9uJywgJy1waHQnLCAnMi4wJywgJy1waCcsICc3LjAnLCAnLXRuJywgJzgnLCAnLW1hJywgJzIwMCcsICctaW1hZScsICc8aW5maWxlLm1hZT4nLCAnLW9tYWUnLCAnPG91dGZpbGUubWFlPic=

>  <r_lp_tautomer_probability>  (121) 
1

>  <r_epik_Ionization_Penalty>  (121) 
2.26777e-06

>  <r_epik_Ionization_Penalty_Charging>  (121) 
0

>  <r_epik_Ionization_Penalty_Neutral>  (121) 
2.26777e-06

>  <r_epik_State_Penalty>  (121) 
-0

>  <r_epik_Charging_Adjusted_Penalty>  (121) 
0

>  <i_epik_Tot_Q>  (121) 
0

>  <i_epik_Tot_abs_Q>  (121) 
0

>  <s_epik_Chemistry_Notes>  (121) 
This compound has an ester and may undergo hydrolysis at high or low pH.

>  <s_lp_Force_Field>  (121) 
OPLS3e

>  <r_lp_Energy>  (121) 
314.475

>  <b_lp_Chiralities_Consistent>  (121) 
1

>  <s_lp_Variant>  (121) 
36:0-1

>  <s_i_glide_gridfile>  (121) 
pfpi4k_grid

>  <i_i_glide_lignum>  (121) 
8

>  <i_i_glide_rotatable_bonds>  (121) 
6

>  <r_i_docking_score>  (121) 
-2.64018

>  <r_i_glide_ligand_efficiency>  (121) 
-0.0643945

>  <r_i_glide_ligand_efficiency_sa>  (121) 
-0.222046

>  <r_i_glide_ligand_efficiency_ln>  (121) 
-0.560122

>  <r_i_glide_gscore>  (121) 
-2.64018

>  <r_i_glide_lipo>  (121) 
-0.0859674

>  <r_i_glide_hbond>  (121) 
-0.157164

>  <r_i_glide_metal>  (121) 
-0

>  <r_i_glide_rewards>  (121) 
-0.603304

>  <r_i_glide_evdw>  (121) 
-22.4358

>  <r_i_glide_ecoul>  (121) 
-4.9036

>  <r_i_glide_erotb>  (121) 
0.0635881

>  <r_i_glide_esite>  (121) 
0

>  <r_i_glide_emodel>  (121) 
-36.2155

>  <r_i_glide_energy>  (121) 
-27.3394

>  <r_i_glide_einternal>  (121) 
2.4351

>  <r_i_glide_intrahb_reward>  (121) 
-0.5

>  <i_i_glide_confnum>  (121) 
4

>  <i_i_glide_posenum>  (121) 
23

>  <r_i_glide_eff_state_penalty>  (121) 
0

>  <ligand_id>  (121) 
36

>  <original_smiles>  (121) 
CC1=CC2C3C4CC(C)C5(C(=O)OC6CC(C)C7C(O)CCC7(C)C6(O)C(C)(C3O)C5CO)C(C4(C)C)C2(O)C1=O

>  <smiles>  (121) 
[H]OC([H])([H])C1([H])C23C(=O)OC4([H])C([H])([H])C([H])(C([H])([H])[H])C5([H])C([H])(O[H])C([H])([H])C([H])([H])C5(C([H])([H])[H])C4(O[H])C1(C([H])([H])[H])C([H])(O[H])C1([H])C4([H])C([H])=C(C([H])([H])[H])C(=O)C4(O[H])C2([H])C(C([H])([H])[H])(C([H])([H])[H])C1([H])C([H])([H])C3([H])C([H])([H])[H]

$$$$
37:0:0
     RDKit          3D

 33 35  0  0  1  0  0  0  0  0999 V2000
    4.9372   -3.7463   -3.0288 C   0  0  0  0  0  0  0  0  0  0  0  0
    4.1868   -3.3927   -1.7146 C   0  0  1  0  0  0  0  0  0  0  0  0
    2.8189   -3.4408   -2.0448 O   0  0  0  0  0  0  0  0  0  0  0  0
    4.4532   -4.4282   -0.5820 C   0  0  0  0  0  0  0  0  0  0  0  0
    5.5731   -4.0204    0.4059 C   0  0  2  0  0  0  0  0  0  0  0  0
    5.0544   -3.1618    1.5974 C   0  0  0  0  0  0  0  0  0  0  0  0
    4.7408   -1.6923    1.2042 C   0  0  1  0  0  0  0  0  0  0  0  0
    5.9519   -1.0490    0.5344 C   0  0  0  0  0  0  0  0  0  0  0  0
    6.0158   -1.8702   -0.7604 C   0  0  1  0  0  0  0  0  0  0  0  0
    6.6448   -3.2333   -0.3623 C   0  0  0  0  0  0  0  0  0  0  0  0
    4.5198   -1.9568   -1.2206 C   0  0  1  0  0  0  0  0  0  0  0  0
    4.2094   -0.9064   -2.3177 C   0  0  0  0  0  0  0  0  0  0  0  0
    3.7191   -1.6117    0.0699 C   0  0  0  0  0  0  0  0  0  0  0  0
    6.0117   -3.6210   -2.9511 H   0  0  0  0  0  0  0  0  0  0  0  0
    4.5867   -3.1511   -3.8824 H   0  0  0  0  0  0  0  0  0  0  0  0
    4.7557   -4.7835   -3.3338 H   0  0  0  0  0  0  0  0  0  0  0  0
    2.6210   -4.3577   -2.3144 H   0  0  0  0  0  0  0  0  0  0  0  0
    3.5448   -4.6152   -0.0091 H   0  0  0  0  0  0  0  0  0  0  0  0
    4.6920   -5.3970   -1.0213 H   0  0  0  0  0  0  0  0  0  0  0  0
    6.0127   -4.9326    0.8113 H   0  0  0  0  0  0  0  0  0  0  0  0
    4.1780   -3.6282    2.0465 H   0  0  0  0  0  0  0  0  0  0  0  0
    5.8175   -3.1527    2.3763 H   0  0  0  0  0  0  0  0  0  0  0  0
    4.4148   -1.1235    2.0784 H   0  0  0  0  0  0  0  0  0  0  0  0
    5.7708    0.0061    0.3286 H   0  0  0  0  0  0  0  0  0  0  0  0
    6.8578   -1.1090    1.1409 H   0  0  0  0  0  0  0  0  0  0  0  0
    6.6259   -1.4289   -1.5335 H   0  0  0  0  0  0  0  0  0  0  0  0
    7.5258   -3.0724    0.2756 H   0  0  0  0  0  0  0  0  0  0  0  0
    6.9882   -3.7995   -1.2210 H   0  0  0  0  0  0  0  0  0  0  0  0
    4.3753    0.1162   -1.9709 H   0  0  0  0  0  0  0  0  0  0  0  0
    3.1654   -0.9555   -2.6382 H   0  0  0  0  0  0  0  0  0  0  0  0
    4.8239   -1.0310   -3.2079 H   0  0  0  0  0  0  0  0  0  0  0  0
    2.8452   -2.2407    0.2508 H   0  0  0  0  0  0  0  0  0  0  0  0
    3.3308   -0.5917    0.0325 H   0  0  0  0  0  0  0  0  0  0  0  0
  1  2  1  0
  1 14  1  0
  1 15  1  0
  1 16  1  0
  2 11  1  0
  2  3  1  6
  2  4  1  0
  3 17  1  0
  4  5  1  0
  4 18  1  0
  4 19  1  0
  5 10  1  0
  5  6  1  0
  5 20  1  1
  6  7  1  0
  6 21  1  0
  6 22  1  0
  7 13  1  0
  7  8  1  0
  7 23  1  1
  8  9  1  0
  8 24  1  0
  8 25  1  0
  9 10  1  0
  9 11  1  0
  9 26  1  6
 10 27  1  0
 10 28  1  0
 11 12  1  6
 11 13  1  0
 12 29  1  0
 12 30  1  0
 12 31  1  0
 13 32  1  0
 13 33  1  0
M  END
>  <i_m_ct_stereo_status>  (122) 
1

>  <s_m_source_file>  (122) 
/var/tmp/pbs.5076255.sched01/tmp7dp07en1/447ppmqug5.sdf

>  <i_m_source_file_index>  (122) 
9

>  <i_lp_mmshare_version>  (122) 
48012

>  <i_f3d_flags>  (122) 
0

>  <s_epik_input>  (122) 
W0NIM11bQ0BAXTEoW09IXSlbQ0gyXVtDQEBIXShbQ0gyXTIpW0NIMl1bQ0BIXShbQ0gyXTMpW0NIMl1bQ0BASF0yW0NAQF0xM1tDSDNd

>  <s_epik_cmdline>  (122) 
J2VwaWtfcHl0aG9uJywgJy1waHQnLCAnMi4wJywgJy1waCcsICc3LjAnLCAnLXRuJywgJzgnLCAnLW1hJywgJzIwMCcsICctaW1hZScsICc8aW5maWxlLm1hZT4nLCAnLW9tYWUnLCAnPG91dGZpbGUubWFlPic=

>  <r_lp_tautomer_probability>  (122) 
1

>  <r_epik_Ionization_Penalty>  (122) 
2.61206e-06

>  <r_epik_Ionization_Penalty_Charging>  (122) 
0

>  <r_epik_Ionization_Penalty_Neutral>  (122) 
2.61206e-06

>  <r_epik_State_Penalty>  (122) 
-0

>  <r_epik_Charging_Adjusted_Penalty>  (122) 
0

>  <i_epik_Tot_Q>  (122) 
0

>  <i_epik_Tot_abs_Q>  (122) 
0

>  <s_lp_Force_Field>  (122) 
OPLS3e

>  <r_lp_Energy>  (122) 
40.7305

>  <b_lp_Chiralities_Consistent>  (122) 
1

>  <s_lp_Variant>  (122) 
37:0-1

>  <s_i_glide_gridfile>  (122) 
pfpi4k_grid

>  <i_i_glide_lignum>  (122) 
9

>  <i_i_glide_rotatable_bonds>  (122) 
1

>  <r_i_docking_score>  (122) 
-4.31408

>  <r_i_glide_ligand_efficiency>  (122) 
-0.331852

>  <r_i_glide_ligand_efficiency_sa>  (122) 
-0.780295

>  <r_i_glide_ligand_efficiency_ln>  (122) 
-1.21014

>  <r_i_glide_gscore>  (122) 
-4.31408

>  <r_i_glide_lipo>  (122) 
-0.418295

>  <r_i_glide_hbond>  (122) 
-0.32

>  <r_i_glide_metal>  (122) 
-0

>  <r_i_glide_rewards>  (122) 
-2.17986

>  <r_i_glide_evdw>  (122) 
-18.6328

>  <r_i_glide_ecoul>  (122) 
-3.09517

>  <r_i_glide_erotb>  (122) 
0

>  <r_i_glide_esite>  (122) 
0

>  <r_i_glide_emodel>  (122) 
-27.1714

>  <r_i_glide_energy>  (122) 
-21.728

>  <r_i_glide_einternal>  (122) 
0.0183446

>  <r_i_glide_intrahb_reward>  (122) 
-0

>  <i_i_glide_confnum>  (122) 
1

>  <i_i_glide_posenum>  (122) 
5

>  <r_i_glide_eff_state_penalty>  (122) 
0

>  <ligand_id>  (122) 
37

>  <original_smiles>  (122) 
CC1(O)CC2CC3CC(C2)C1(C)C3

>  <smiles>  (122) 
[H]OC1(C([H])([H])[H])C([H])([H])C2([H])C([H])([H])C3([H])C([H])([H])C([H])(C2([H])[H])C1(C([H])([H])[H])C3([H])[H]

$$$$
37:0:1
     RDKit          3D

 33 35  0  0  1  0  0  0  0  0999 V2000
    2.3778   -3.4968   -1.1130 C   0  0  0  0  0  0  0  0  0  0  0  0
    3.8482   -3.0091   -1.2019 C   0  0  1  0  0  0  0  0  0  0  0  0
    4.2733   -3.4506   -2.4791 O   0  0  0  0  0  0  0  0  0  0  0  0
    3.9454   -1.4571   -1.1963 C   0  0  0  0  0  0  0  0  0  0  0  0
    4.2351   -0.8544    0.2029 C   0  0  2  0  0  0  0  0  0  0  0  0
    5.7511   -0.7340    0.5157 C   0  0  0  0  0  0  0  0  0  0  0  0
    6.4114   -2.0914    0.8716 C   0  0  1  0  0  0  0  0  0  0  0  0
    5.6568   -2.7591    2.0168 C   0  0  0  0  0  0  0  0  0  0  0  0
    4.3219   -3.0691    1.3356 C   0  0  1  0  0  0  0  0  0  0  0  0
    3.5624   -1.7120    1.2822 C   0  0  0  0  0  0  0  0  0  0  0  0
    4.7491   -3.6157   -0.0796 C   0  0  1  0  0  0  0  0  0  0  0  0
    4.7279   -5.1652   -0.1008 C   0  0  0  0  0  0  0  0  0  0  0  0
    6.2234   -3.1292   -0.2328 C   0  0  0  0  0  0  0  0  0  0  0  0
    1.9249   -3.3103   -0.1507 H   0  0  0  0  0  0  0  0  0  0  0  0
    2.2782   -4.5697   -1.2787 H   0  0  0  0  0  0  0  0  0  0  0  0
    1.7450   -3.0341   -1.8756 H   0  0  0  0  0  0  0  0  0  0  0  0
    4.0478   -4.3623   -2.5737 H   0  0  0  0  0  0  0  0  0  0  0  0
    4.7185   -1.1147   -1.8848 H   0  0  0  0  0  0  0  0  0  0  0  0
    3.0216   -1.0376   -1.5930 H   0  0  0  0  0  0  0  0  0  0  0  0
    3.8199    0.1530    0.2287 H   0  0  0  0  0  0  0  0  0  0  0  0
    6.2642   -0.2575   -0.3155 H   0  0  0  0  0  0  0  0  0  0  0  0
    5.8743   -0.0562    1.3624 H   0  0  0  0  0  0  0  0  0  0  0  0
    7.4627   -1.9438    1.1137 H   0  0  0  0  0  0  0  0  0  0  0  0
    6.1563   -3.6744    2.3400 H   0  0  0  0  0  0  0  0  0  0  0  0
    5.5619   -2.1184    2.8964 H   0  0  0  0  0  0  0  0  0  0  0  0
    3.7444   -3.7955    1.9082 H   0  0  0  0  0  0  0  0  0  0  0  0
    3.6254   -1.2041    2.2513 H   0  0  0  0  0  0  0  0  0  0  0  0
    2.5057   -1.8041    1.0769 H   0  0  0  0  0  0  0  0  0  0  0  0
    5.4086   -5.5980    0.6342 H   0  0  0  0  0  0  0  0  0  0  0  0
    5.0249   -5.5616   -1.0743 H   0  0  0  0  0  0  0  0  0  0  0  0
    3.7398   -5.5700    0.1160 H   0  0  0  0  0  0  0  0  0  0  0  0
    6.4795   -2.7380   -1.2195 H   0  0  0  0  0  0  0  0  0  0  0  0
    6.9288   -3.9425   -0.0516 H   0  0  0  0  0  0  0  0  0  0  0  0
  1  2  1  0
  1 14  1  0
  1 15  1  0
  1 16  1  0
  2 11  1  0
  2  3  1  6
  2  4  1  0
  3 17  1  0
  4  5  1  0
  4 18  1  0
  4 19  1  0
  5 10  1  0
  5  6  1  0
  5 20  1  6
  6  7  1  0
  6 21  1  0
  6 22  1  0
  7 13  1  0
  7  8  1  0
  7 23  1  1
  8  9  1  0
  8 24  1  0
  8 25  1  0
  9 10  1  0
  9 11  1  0
  9 26  1  1
 10 27  1  0
 10 28  1  0
 11 12  1  1
 11 13  1  0
 12 29  1  0
 12 30  1  0
 12 31  1  0
 13 32  1  0
 13 33  1  0
M  END
>  <i_m_ct_stereo_status>  (123) 
1

>  <s_m_source_file>  (123) 
/var/tmp/pbs.5076255.sched01/tmp7dp07en1/447ppmqug5.sdf

>  <i_m_source_file_index>  (123) 
9

>  <i_lp_mmshare_version>  (123) 
48012

>  <i_f3d_flags>  (123) 
0

>  <s_epik_input>  (123) 
W0NIM11bQ0BAXTEoW09IXSlbQ0gyXVtDQEBIXShbQ0gyXTIpW0NIMl1bQ0BIXShbQ0gyXTMpW0NIMl1bQ0BASF0yW0NAQF0xM1tDSDNd

>  <s_epik_cmdline>  (123) 
J2VwaWtfcHl0aG9uJywgJy1waHQnLCAnMi4wJywgJy1waCcsICc3LjAnLCAnLXRuJywgJzgnLCAnLW1hJywgJzIwMCcsICctaW1hZScsICc8aW5maWxlLm1hZT4nLCAnLW9tYWUnLCAnPG91dGZpbGUubWFlPic=

>  <r_lp_tautomer_probability>  (123) 
1

>  <r_epik_Ionization_Penalty>  (123) 
2.61206e-06

>  <r_epik_Ionization_Penalty_Charging>  (123) 
0

>  <r_epik_Ionization_Penalty_Neutral>  (123) 
2.61206e-06

>  <r_epik_State_Penalty>  (123) 
-0

>  <r_epik_Charging_Adjusted_Penalty>  (123) 
0

>  <i_epik_Tot_Q>  (123) 
0

>  <i_epik_Tot_abs_Q>  (123) 
0

>  <s_lp_Force_Field>  (123) 
OPLS3e

>  <r_lp_Energy>  (123) 
40.7305

>  <b_lp_Chiralities_Consistent>  (123) 
1

>  <s_lp_Variant>  (123) 
37:0-1

>  <s_i_glide_gridfile>  (123) 
pfpi4k_grid

>  <i_i_glide_lignum>  (123) 
9

>  <i_i_glide_rotatable_bonds>  (123) 
1

>  <r_i_docking_score>  (123) 
-4.17441

>  <r_i_glide_ligand_efficiency>  (123) 
-0.321108

>  <r_i_glide_ligand_efficiency_sa>  (123) 
-0.755033

>  <r_i_glide_ligand_efficiency_ln>  (123) 
-1.17096

>  <r_i_glide_gscore>  (123) 
-4.17441

>  <r_i_glide_lipo>  (123) 
-0.381924

>  <r_i_glide_hbond>  (123) 
-0.308269

>  <r_i_glide_metal>  (123) 
-0

>  <r_i_glide_rewards>  (123) 
-2.17986

>  <r_i_glide_evdw>  (123) 
-16.7181

>  <r_i_glide_ecoul>  (123) 
-3.12298

>  <r_i_glide_erotb>  (123) 
0

>  <r_i_glide_esite>  (123) 
0

>  <r_i_glide_emodel>  (123) 
-25.0324

>  <r_i_glide_energy>  (123) 
-19.841

>  <r_i_glide_einternal>  (123) 
0.205278

>  <r_i_glide_intrahb_reward>  (123) 
-0

>  <i_i_glide_confnum>  (123) 
1

>  <i_i_glide_posenum>  (123) 
16

>  <r_i_glide_eff_state_penalty>  (123) 
0

>  <ligand_id>  (123) 
37

>  <original_smiles>  (123) 
CC1(O)CC2CC3CC(C2)C1(C)C3

>  <smiles>  (123) 
[H]OC1(C([H])([H])[H])C([H])([H])C2([H])C([H])([H])C3([H])C([H])([H])C([H])(C2([H])[H])C1(C([H])([H])[H])C3([H])[H]

$$$$
37:0:2
     RDKit          3D

 33 35  0  0  1  0  0  0  0  0999 V2000
    4.3376   -3.2955   -2.8658 C   0  0  0  0  0  0  0  0  0  0  0  0
    3.6739   -2.6937   -1.5969 C   0  0  1  0  0  0  0  0  0  0  0  0
    3.0165   -1.5406   -2.1131 O   0  0  0  0  0  0  0  0  0  0  0  0
    2.5862   -3.6285   -0.9865 C   0  0  0  0  0  0  0  0  0  0  0  0
    3.0977   -4.4998    0.1896 C   0  0  2  0  0  0  0  0  0  0  0  0
    2.9608   -3.8023    1.5758 C   0  0  0  0  0  0  0  0  0  0  0  0
    4.0304   -2.7041    1.8172 C   0  0  1  0  0  0  0  0  0  0  0  0
    5.4305   -3.2744    1.6114 C   0  0  0  0  0  0  0  0  0  0  0  0
    5.4016   -3.5662    0.1058 C   0  0  1  0  0  0  0  0  0  0  0  0
    4.5736   -4.8694   -0.0461 C   0  0  0  0  0  0  0  0  0  0  0  0
    4.7064   -2.2945   -0.5003 C   0  0  1  0  0  0  0  0  0  0  0  0
    5.7532   -1.3130   -1.0559 C   0  0  0  0  0  0  0  0  0  0  0  0
    3.9989   -1.6341    0.7213 C   0  0  0  0  0  0  0  0  0  0  0  0
    4.9881   -4.1380   -2.6495 H   0  0  0  0  0  0  0  0  0  0  0  0
    4.9257   -2.5528   -3.4162 H   0  0  0  0  0  0  0  0  0  0  0  0
    3.5894   -3.6411   -3.5809 H   0  0  0  0  0  0  0  0  0  0  0  0
    2.3056   -1.3000   -1.5224 H   0  0  0  0  0  0  0  0  0  0  0  0
    1.7402   -3.0515   -0.6351 H   0  0  0  0  0  0  0  0  0  0  0  0
    2.1664   -4.2509   -1.7644 H   0  0  0  0  0  0  0  0  0  0  0  0
    2.4946   -5.4125    0.2118 H   0  0  0  0  0  0  0  0  0  0  0  0
    1.9606   -3.3830    1.6991 H   0  0  0  0  0  0  0  0  0  0  0  0
    3.0594   -4.5555    2.3574 H   0  0  0  0  0  0  0  0  0  0  0  0
    3.9139   -2.2698    2.8095 H   0  0  0  0  0  0  0  0  0  0  0  0
    6.1992   -2.5356    1.8568 H   0  0  0  0  0  0  0  0  0  0  0  0
    5.6281   -4.1552    2.2237 H   0  0  0  0  0  0  0  0  0  0  0  0
    6.4084   -3.7199   -0.2855 H   0  0  0  0  0  0  0  0  0  0  0  0
    4.8927   -5.6147    0.6916 H   0  0  0  0  0  0  0  0  0  0  0  0
    4.6848   -5.3417   -1.0175 H   0  0  0  0  0  0  0  0  0  0  0  0
    6.4411   -0.9661   -0.2823 H   0  0  0  0  0  0  0  0  0  0  0  0
    5.2858   -0.4194   -1.4786 H   0  0  0  0  0  0  0  0  0  0  0  0
    6.3567   -1.7644   -1.8450 H   0  0  0  0  0  0  0  0  0  0  0  0
    2.9885   -1.2654    0.5327 H   0  0  0  0  0  0  0  0  0  0  0  0
    4.5570   -0.7668    1.0855 H   0  0  0  0  0  0  0  0  0  0  0  0
  1  2  1  0
  1 14  1  0
  1 15  1  0
  1 16  1  0
  2 11  1  0
  2  3  1  6
  2  4  1  0
  3 17  1  0
  4  5  1  0
  4 18  1  0
  4 19  1  0
  5 10  1  0
  5  6  1  0
  5 20  1  1
  6  7  1  0
  6 21  1  0
  6 22  1  0
  7 13  1  0
  7  8  1  0
  7 23  1  1
  8  9  1  0
  8 24  1  0
  8 25  1  0
  9 10  1  0
  9 11  1  0
  9 26  1  6
 10 27  1  0
 10 28  1  0
 11 12  1  6
 11 13  1  0
 12 29  1  0
 12 30  1  0
 12 31  1  0
 13 32  1  0
 13 33  1  0
M  END
>  <i_m_ct_stereo_status>  (124) 
1

>  <s_m_source_file>  (124) 
/var/tmp/pbs.5076255.sched01/tmp7dp07en1/447ppmqug5.sdf

>  <i_m_source_file_index>  (124) 
9

>  <i_lp_mmshare_version>  (124) 
48012

>  <i_f3d_flags>  (124) 
0

>  <s_epik_input>  (124) 
W0NIM11bQ0BAXTEoW09IXSlbQ0gyXVtDQEBIXShbQ0gyXTIpW0NIMl1bQ0BIXShbQ0gyXTMpW0NIMl1bQ0BASF0yW0NAQF0xM1tDSDNd

>  <s_epik_cmdline>  (124) 
J2VwaWtfcHl0aG9uJywgJy1waHQnLCAnMi4wJywgJy1waCcsICc3LjAnLCAnLXRuJywgJzgnLCAnLW1hJywgJzIwMCcsICctaW1hZScsICc8aW5maWxlLm1hZT4nLCAnLW9tYWUnLCAnPG91dGZpbGUubWFlPic=

>  <r_lp_tautomer_probability>  (124) 
1

>  <r_epik_Ionization_Penalty>  (124) 
2.61206e-06

>  <r_epik_Ionization_Penalty_Charging>  (124) 
0

>  <r_epik_Ionization_Penalty_Neutral>  (124) 
2.61206e-06

>  <r_epik_State_Penalty>  (124) 
-0

>  <r_epik_Charging_Adjusted_Penalty>  (124) 
0

>  <i_epik_Tot_Q>  (124) 
0

>  <i_epik_Tot_abs_Q>  (124) 
0

>  <s_lp_Force_Field>  (124) 
OPLS3e

>  <r_lp_Energy>  (124) 
40.7305

>  <b_lp_Chiralities_Consistent>  (124) 
1

>  <s_lp_Variant>  (124) 
37:0-1

>  <s_i_glide_gridfile>  (124) 
pfpi4k_grid

>  <i_i_glide_lignum>  (124) 
9

>  <i_i_glide_rotatable_bonds>  (124) 
1

>  <r_i_docking_score>  (124) 
-3.79285

>  <r_i_glide_ligand_efficiency>  (124) 
-0.291757

>  <r_i_glide_ligand_efficiency_sa>  (124) 
-0.686019

>  <r_i_glide_ligand_efficiency_ln>  (124) 
-1.06393

>  <r_i_glide_gscore>  (124) 
-3.79285

>  <r_i_glide_lipo>  (124) 
-0.12562

>  <r_i_glide_hbond>  (124) 
-0.16

>  <r_i_glide_metal>  (124) 
-0

>  <r_i_glide_rewards>  (124) 
-2.17986

>  <r_i_glide_evdw>  (124) 
-15.4553

>  <r_i_glide_ecoul>  (124) 
-3.69729

>  <r_i_glide_erotb>  (124) 
0

>  <r_i_glide_esite>  (124) 
0

>  <r_i_glide_emodel>  (124) 
-23.5666

>  <r_i_glide_energy>  (124) 
-19.1526

>  <r_i_glide_einternal>  (124) 
0.503414

>  <r_i_glide_intrahb_reward>  (124) 
-0

>  <i_i_glide_confnum>  (124) 
1

>  <i_i_glide_posenum>  (124) 
1

>  <r_i_glide_eff_state_penalty>  (124) 
0

>  <ligand_id>  (124) 
37

>  <original_smiles>  (124) 
CC1(O)CC2CC3CC(C2)C1(C)C3

>  <smiles>  (124) 
[H]OC1(C([H])([H])[H])C([H])([H])C2([H])C([H])([H])C3([H])C([H])([H])C([H])(C2([H])[H])C1(C([H])([H])[H])C3([H])[H]

$$$$
38:0:0
     RDKit          3D

 39 42  0  0  1  0  0  0  0  0999 V2000
    7.6306   -3.0821   -0.3390 C   0  0  0  0  0  0  0  0  0  0  0  0
    6.1046   -2.8802   -0.3541 C   0  0  2  0  0  0  0  0  0  0  0  0
    5.4641   -2.8765    1.1645 C   0  0  0  0  0  0  0  0  0  0  0  0
    4.1253   -3.7630    1.2575 C   0  0  0  0  0  0  0  0  0  0  0  0
    4.5471   -5.0310    1.2745 C   0  0  0  0  0  0  0  0  0  0  0  0
    5.2055   -5.3121   -0.0623 C   0  0  0  0  0  0  0  0  0  0  0  0
    5.3240   -3.9731   -0.8964 C   0  0  1  0  0  0  0  0  0  0  0  0
    4.0272   -2.9666   -1.0008 C   0  0  1  0  0  0  0  0  0  0  0  0
    3.8936   -1.4128   -0.4855 C   0  0  0  0  0  0  0  0  0  0  0  0
    5.1205   -0.6981   -0.9791 C   0  0  0  0  0  0  0  0  0  0  0  0
    5.6221   -1.9403   -1.6339 C   0  0  2  0  0  0  0  0  0  0  0  0
    4.3020   -2.5182   -2.4380 C   0  0  1  0  0  0  0  0  0  0  0  0
    4.5255   -3.6587   -3.5098 C   0  0  0  0  0  0  0  0  0  0  0  0
    3.3665   -1.4794   -3.2003 C   0  0  0  0  0  0  0  0  0  0  0  0
    3.8405   -1.1498   -4.4920 O   0  0  0  0  0  0  0  0  0  0  0  0
    3.0711   -3.4981    0.0829 C   0  0  1  0  0  0  0  0  0  0  0  0
    2.3459   -4.6503   -0.3172 O   0  0  0  0  0  0  0  0  0  0  0  0
    8.1304   -2.1958    0.0498 H   0  0  0  0  0  0  0  0  0  0  0  0
    8.0321   -3.2786   -1.3342 H   0  0  0  0  0  0  0  0  0  0  0  0
    7.9088   -3.9188    0.2990 H   0  0  0  0  0  0  0  0  0  0  0  0
    6.1983   -3.3153    1.8428 H   0  0  0  0  0  0  0  0  0  0  0  0
    5.3581   -1.8823    1.5905 H   0  0  0  0  0  0  0  0  0  0  0  0
    5.2754   -5.3084    2.0284 H   0  0  0  0  0  0  0  0  0  0  0  0
    6.1902   -5.7472    0.1047 H   0  0  0  0  0  0  0  0  0  0  0  0
    4.6171   -6.0496   -0.6022 H   0  0  0  0  0  0  0  0  0  0  0  0
    5.8788   -4.2824   -1.7747 H   0  0  0  0  0  0  0  0  0  0  0  0
    2.9865   -0.9390   -0.8365 H   0  0  0  0  0  0  0  0  0  0  0  0
    3.7565   -1.2230    0.5786 H   0  0  0  0  0  0  0  0  0  0  0  0
    4.9030    0.0945   -1.6890 H   0  0  0  0  0  0  0  0  0  0  0  0
    5.7736   -0.3331   -0.1865 H   0  0  0  0  0  0  0  0  0  0  0  0
    6.4408   -1.7480   -2.3148 H   0  0  0  0  0  0  0  0  0  0  0  0
    3.9119   -3.5719   -4.4111 H   0  0  0  0  0  0  0  0  0  0  0  0
    4.2582   -4.6402   -3.1373 H   0  0  0  0  0  0  0  0  0  0  0  0
    5.5704   -3.6877   -3.8455 H   0  0  0  0  0  0  0  0  0  0  0  0
    2.3807   -1.9340   -3.2829 H   0  0  0  0  0  0  0  0  0  0  0  0
    3.2064   -0.4926   -2.7689 H   0  0  0  0  0  0  0  0  0  0  0  0
    3.1410   -0.6695   -4.9403 H   0  0  0  0  0  0  0  0  0  0  0  0
    2.3006   -2.7981    0.4196 H   0  0  0  0  0  0  0  0  0  0  0  0
    2.7241   -4.9737   -1.1266 H   0  0  0  0  0  0  0  0  0  0  0  0
  2  1  1  1
  1 18  1  0
  1 19  1  0
  1 20  1  0
  2  7  1  0
  2 11  1  0
  2  3  1  0
  3  4  1  0
  3 21  1  0
  3 22  1  0
  4 16  1  0
  4  5  2  0
  5  6  1  0
  5 23  1  0
  6  7  1  0
  6 24  1  0
  6 25  1  0
  7  8  1  0
  7 26  1  6
  8 12  1  0
  8  9  1  1
  8 16  1  0
  9 10  1  0
  9 27  1  0
  9 28  1  0
 10 11  1  0
 10 29  1  0
 10 30  1  0
 11 12  1  0
 11 31  1  6
 12 13  1  6
 12 14  1  0
 13 32  1  0
 13 33  1  0
 13 34  1  0
 14 15  1  0
 14 35  1  0
 14 36  1  0
 15 37  1  0
 16 17  1  0
 16 38  1  1
 17 39  1  0
M  END
>  <i_m_ct_stereo_status>  (125) 
1

>  <s_m_source_file>  (125) 
/var/tmp/pbs.5076255.sched01/tmp7dp07en1/447ppmqug5.sdf

>  <i_m_source_file_index>  (125) 
10

>  <i_lp_mmshare_version>  (125) 
48012

>  <i_f3d_flags>  (125) 
0

>  <s_epik_input>  (125) 
W09IXVtDSDJdW0NAQF0xKFtDSDNdKVtDQEBIXShbQ0gyXVtDSDJdMilbQ0BdKFtDSDNdKShbQ0BASF0zQzEyNClbQ0gyXUMoPVtDSF1bQ0gyXTMpW0NAQEhdNFtPSF0=

>  <s_epik_cmdline>  (125) 
J2VwaWtfcHl0aG9uJywgJy1waHQnLCAnMi4wJywgJy1waCcsICc3LjAnLCAnLXRuJywgJzgnLCAnLW1hJywgJzIwMCcsICctaW1hZScsICc8aW5maWxlLm1hZT4nLCAnLW9tYWUnLCAnPG91dGZpbGUubWFlPic=

>  <r_lp_tautomer_probability>  (125) 
1

>  <r_epik_Ionization_Penalty>  (125) 
1.66104e-06

>  <r_epik_Ionization_Penalty_Charging>  (125) 
0

>  <r_epik_Ionization_Penalty_Neutral>  (125) 
1.66104e-06

>  <r_epik_State_Penalty>  (125) 
-0

>  <r_epik_Charging_Adjusted_Penalty>  (125) 
0

>  <i_epik_Tot_Q>  (125) 
0

>  <i_epik_Tot_abs_Q>  (125) 
0

>  <s_lp_Force_Field>  (125) 
OPLS3e

>  <r_lp_Energy>  (125) 
286.901

>  <b_lp_Chiralities_Consistent>  (125) 
1

>  <s_lp_Variant>  (125) 
38:0-1

>  <s_i_glide_gridfile>  (125) 
pfpi4k_grid

>  <i_i_glide_lignum>  (125) 
10

>  <i_i_glide_rotatable_bonds>  (125) 
3

>  <r_i_docking_score>  (125) 
-4.62418

>  <r_i_glide_ligand_efficiency>  (125) 
-0.27201

>  <r_i_glide_ligand_efficiency_sa>  (125) 
-0.699416

>  <r_i_glide_ligand_efficiency_ln>  (125) 
-1.20635

>  <r_i_glide_gscore>  (125) 
-4.62418

>  <r_i_glide_lipo>  (125) 
-0.524855

>  <r_i_glide_hbond>  (125) 
-0.557208

>  <r_i_glide_metal>  (125) 
-0

>  <r_i_glide_rewards>  (125) 
-1.81136

>  <r_i_glide_evdw>  (125) 
-17.8442

>  <r_i_glide_ecoul>  (125) 
-7.67507

>  <r_i_glide_erotb>  (125) 
0.312716

>  <r_i_glide_esite>  (125) 
0

>  <r_i_glide_emodel>  (125) 
-30.7099

>  <r_i_glide_energy>  (125) 
-25.5193

>  <r_i_glide_einternal>  (125) 
3.75036

>  <r_i_glide_intrahb_reward>  (125) 
-0

>  <i_i_glide_confnum>  (125) 
1

>  <i_i_glide_posenum>  (125) 
15

>  <r_i_glide_eff_state_penalty>  (125) 
0

>  <ligand_id>  (125) 
38

>  <original_smiles>  (125) 
CC12CC3=CCC1C1(CCC2C1(C)CO)C3O

>  <smiles>  (125) 
[H]OC([H])([H])C1(C([H])([H])[H])C2([H])C([H])([H])C([H])([H])C13C([H])(O[H])C1=C([H])C([H])([H])C3([H])C2(C([H])([H])[H])C1([H])[H]

$$$$
38:0:1
     RDKit          3D

 39 42  0  0  1  0  0  0  0  0999 V2000
    3.7563   -0.9640    1.4067 C   0  0  0  0  0  0  0  0  0  0  0  0
    4.4293   -2.0241    0.5204 C   0  0  2  0  0  0  0  0  0  0  0  0
    5.6484   -1.3779   -0.3811 C   0  0  0  0  0  0  0  0  0  0  0  0
    5.5879   -1.8767   -1.9143 C   0  0  0  0  0  0  0  0  0  0  0  0
    4.6157   -1.1687   -2.4821 C   0  0  0  0  0  0  0  0  0  0  0  0
    3.3260   -1.5887   -1.8165 C   0  0  0  0  0  0  0  0  0  0  0  0
    3.6309   -2.5325   -0.5749 C   0  0  1  0  0  0  0  0  0  0  0  0
    4.7119   -3.7626   -0.7546 C   0  0  1  0  0  0  0  0  0  0  0  0
    6.1376   -4.0114    0.0288 C   0  0  0  0  0  0  0  0  0  0  0  0
    5.8513   -3.8018    1.4967 C   0  0  0  0  0  0  0  0  0  0  0  0
    4.4055   -3.5350    1.2089 C   0  0  2  0  0  0  0  0  0  0  0  0
    3.9749   -4.7359    0.1608 C   0  0  1  0  0  0  0  0  0  0  0  0
    2.4406   -4.9555   -0.1360 C   0  0  0  0  0  0  0  0  0  0  0  0
    4.5118   -6.2013    0.4497 C   0  0  0  0  0  0  0  0  0  0  0  0
    3.7267   -6.9033    1.3885 O   0  0  0  0  0  0  0  0  0  0  0  0
    5.3872   -3.4476   -2.0952 C   0  0  1  0  0  0  0  0  0  0  0  0
    4.5950   -3.8303   -3.2082 O   0  0  0  0  0  0  0  0  0  0  0  0
    4.4157   -0.6709    2.2211 H   0  0  0  0  0  0  0  0  0  0  0  0
    2.8316   -1.3350    1.8457 H   0  0  0  0  0  0  0  0  0  0  0  0
    3.5106   -0.0667    0.8418 H   0  0  0  0  0  0  0  0  0  0  0  0
    5.5361   -0.2915   -0.3805 H   0  0  0  0  0  0  0  0  0  0  0  0
    6.6320   -1.4714    0.0779 H   0  0  0  0  0  0  0  0  0  0  0  0
    4.6512   -0.0902   -2.3945 H   0  0  0  0  0  0  0  0  0  0  0  0
    2.7964   -0.6919   -1.5041 H   0  0  0  0  0  0  0  0  0  0  0  0
    2.6914   -2.0978   -2.5403 H   0  0  0  0  0  0  0  0  0  0  0  0
    2.6423   -2.6665   -0.1558 H   0  0  0  0  0  0  0  0  0  0  0  0
    6.5702   -4.9852   -0.1920 H   0  0  0  0  0  0  0  0  0  0  0  0
    7.0040   -3.4187   -0.2576 H   0  0  0  0  0  0  0  0  0  0  0  0
    6.0261   -4.6720    2.1272 H   0  0  0  0  0  0  0  0  0  0  0  0
    6.3589   -2.9408    1.9319 H   0  0  0  0  0  0  0  0  0  0  0  0
    3.8069   -3.5640    2.1222 H   0  0  0  0  0  0  0  0  0  0  0  0
    2.1343   -5.9979   -0.1930 H   0  0  0  0  0  0  0  0  0  0  0  0
    2.1284   -4.5475   -1.0973 H   0  0  0  0  0  0  0  0  0  0  0  0
    1.8268   -4.5104    0.6456 H   0  0  0  0  0  0  0  0  0  0  0  0
    4.5221   -6.7598   -0.4871 H   0  0  0  0  0  0  0  0  0  0  0  0
    5.5075   -6.3232    0.8696 H   0  0  0  0  0  0  0  0  0  0  0  0
    3.7370   -6.4317    2.2127 H   0  0  0  0  0  0  0  0  0  0  0  0
    6.3662   -3.8899   -2.2710 H   0  0  0  0  0  0  0  0  0  0  0  0
    4.0611   -4.5781   -2.9549 H   0  0  0  0  0  0  0  0  0  0  0  0
  2  1  1  1
  1 18  1  0
  1 19  1  0
  1 20  1  0
  2  7  1  0
  2 11  1  0
  2  3  1  0
  3  4  1  0
  3 21  1  0
  3 22  1  0
  4 16  1  0
  4  5  2  0
  5  6  1  0
  5 23  1  0
  6  7  1  0
  6 24  1  0
  6 25  1  0
  7  8  1  0
  7 26  1  1
  8 12  1  0
  8  9  1  1
  8 16  1  0
  9 10  1  0
  9 27  1  0
  9 28  1  0
 10 11  1  0
 10 29  1  0
 10 30  1  0
 11 12  1  0
 11 31  1  1
 12 13  1  6
 12 14  1  0
 13 32  1  0
 13 33  1  0
 13 34  1  0
 14 15  1  0
 14 35  1  0
 14 36  1  0
 15 37  1  0
 16 17  1  0
 16 38  1  1
 17 39  1  0
M  END
>  <i_m_ct_stereo_status>  (126) 
1

>  <s_m_source_file>  (126) 
/var/tmp/pbs.5076255.sched01/tmp7dp07en1/447ppmqug5.sdf

>  <i_m_source_file_index>  (126) 
10

>  <i_lp_mmshare_version>  (126) 
48012

>  <i_f3d_flags>  (126) 
0

>  <s_epik_input>  (126) 
W09IXVtDSDJdW0NAQF0xKFtDSDNdKVtDQEBIXShbQ0gyXVtDSDJdMilbQ0BdKFtDSDNdKShbQ0BASF0zQzEyNClbQ0gyXUMoPVtDSF1bQ0gyXTMpW0NAQEhdNFtPSF0=

>  <s_epik_cmdline>  (126) 
J2VwaWtfcHl0aG9uJywgJy1waHQnLCAnMi4wJywgJy1waCcsICc3LjAnLCAnLXRuJywgJzgnLCAnLW1hJywgJzIwMCcsICctaW1hZScsICc8aW5maWxlLm1hZT4nLCAnLW9tYWUnLCAnPG91dGZpbGUubWFlPic=

>  <r_lp_tautomer_probability>  (126) 
1

>  <r_epik_Ionization_Penalty>  (126) 
1.66104e-06

>  <r_epik_Ionization_Penalty_Charging>  (126) 
0

>  <r_epik_Ionization_Penalty_Neutral>  (126) 
1.66104e-06

>  <r_epik_State_Penalty>  (126) 
-0

>  <r_epik_Charging_Adjusted_Penalty>  (126) 
0

>  <i_epik_Tot_Q>  (126) 
0

>  <i_epik_Tot_abs_Q>  (126) 
0

>  <s_lp_Force_Field>  (126) 
OPLS3e

>  <r_lp_Energy>  (126) 
286.901

>  <b_lp_Chiralities_Consistent>  (126) 
1

>  <s_lp_Variant>  (126) 
38:0-1

>  <s_i_glide_gridfile>  (126) 
pfpi4k_grid

>  <i_i_glide_lignum>  (126) 
10

>  <i_i_glide_rotatable_bonds>  (126) 
3

>  <r_i_docking_score>  (126) 
-3.83144

>  <r_i_glide_ligand_efficiency>  (126) 
-0.225379

>  <r_i_glide_ligand_efficiency_sa>  (126) 
-0.579512

>  <r_i_glide_ligand_efficiency_ln>  (126) 
-0.999537

>  <r_i_glide_gscore>  (126) 
-3.83144

>  <r_i_glide_lipo>  (126) 
-0.466796

>  <r_i_glide_hbond>  (126) 
-0.32

>  <r_i_glide_metal>  (126) 
-0

>  <r_i_glide_rewards>  (126) 
-1.81136

>  <r_i_glide_evdw>  (126) 
-17.5873

>  <r_i_glide_ecoul>  (126) 
-4.44422

>  <r_i_glide_erotb>  (126) 
0.312716

>  <r_i_glide_esite>  (126) 
0

>  <r_i_glide_emodel>  (126) 
-26.1907

>  <r_i_glide_energy>  (126) 
-22.0315

>  <r_i_glide_einternal>  (126) 
3.5287

>  <r_i_glide_intrahb_reward>  (126) 
-0

>  <i_i_glide_confnum>  (126) 
3

>  <i_i_glide_posenum>  (126) 
3

>  <r_i_glide_eff_state_penalty>  (126) 
0

>  <ligand_id>  (126) 
38

>  <original_smiles>  (126) 
CC12CC3=CCC1C1(CCC2C1(C)CO)C3O

>  <smiles>  (126) 
[H]OC([H])([H])C1(C([H])([H])[H])C2([H])C([H])([H])C([H])([H])C13C([H])(O[H])C1=C([H])C([H])([H])C3([H])C2(C([H])([H])[H])C1([H])[H]

$$$$
38:0:2
     RDKit          3D

 39 42  0  0  1  0  0  0  0  0999 V2000
    3.8528   -0.8977    1.2175 C   0  0  0  0  0  0  0  0  0  0  0  0
    4.4362   -1.9814    0.2980 C   0  0  2  0  0  0  0  0  0  0  0  0
    5.5884   -1.3692   -0.7042 C   0  0  0  0  0  0  0  0  0  0  0  0
    5.4008   -1.8994   -2.2168 C   0  0  0  0  0  0  0  0  0  0  0  0
    4.4041   -1.1766   -2.7258 C   0  0  0  0  0  0  0  0  0  0  0  0
    3.1680   -1.5626   -1.9573 C   0  0  0  0  0  0  0  0  0  0  0  0
    3.5502   -2.4944   -0.7226 C   0  0  1  0  0  0  0  0  0  0  0  0
    4.5951   -3.7432   -0.9648 C   0  0  1  0  0  0  0  0  0  0  0  0
    6.0713   -3.9892   -0.2831 C   0  0  0  0  0  0  0  0  0  0  0  0
    5.9063   -3.7511    1.1950 C   0  0  0  0  0  0  0  0  0  0  0  0
    4.4455   -3.4774    1.0119 C   0  0  2  0  0  0  0  0  0  0  0  0
    3.9197   -4.6879    0.0230 C   0  0  1  0  0  0  0  0  0  0  0  0
    2.3631   -4.8916   -0.1597 C   0  0  0  0  0  0  0  0  0  0  0  0
    4.4579   -6.1620    0.2999 C   0  0  0  0  0  0  0  0  0  0  0  0
    3.7315   -6.8328    1.3030 O   0  0  0  0  0  0  0  0  0  0  0  0
    5.1657   -3.4676   -2.3584 C   0  0  1  0  0  0  0  0  0  0  0  0
    4.2768   -3.8488   -3.4018 O   0  0  0  0  0  0  0  0  0  0  0  0
    4.5800   -0.6023    1.9715 H   0  0  0  0  0  0  0  0  0  0  0  0
    2.9604   -1.2493    1.7359 H   0  0  0  0  0  0  0  0  0  0  0  0
    3.5753   -0.0060    0.6589 H   0  0  0  0  0  0  0  0  0  0  0  0
    5.4907   -0.2793   -0.7163 H   0  0  0  0  0  0  0  0  0  0  0  0
    6.6010   -1.4698   -0.3229 H   0  0  0  0  0  0  0  0  0  0  0  0
    4.4621   -0.0964   -2.6562 H   0  0  0  0  0  0  0  0  0  0  0  0
    2.6695   -0.6573   -1.6215 H   0  0  0  0  0  0  0  0  0  0  0  0
    2.4701   -2.0746   -2.6160 H   0  0  0  0  0  0  0  0  0  0  0  0
    2.5999   -2.6078   -0.2253 H   0  0  0  0  0  0  0  0  0  0  0  0
    6.4593   -4.9775   -0.4728 H   0  0  0  0  0  0  0  0  0  0  0  0
    6.9246   -3.4292   -0.6610 H   0  0  0  0  0  0  0  0  0  0  0  0
    6.1220   -4.6169    1.8197 H   0  0  0  0  0  0  0  0  0  0  0  0
    6.4623   -2.8927    1.5729 H   0  0  0  0  0  0  0  0  0  0  0  0
    3.9209   -3.4904    1.9697 H   0  0  0  0  0  0  0  0  0  0  0  0
    2.0362   -5.9271   -0.1795 H   0  0  0  0  0  0  0  0  0  0  0  0
    1.9831   -4.4903   -1.0990 H   0  0  0  0  0  0  0  0  0  0  0  0
    1.8208   -4.4289    0.6665 H   0  0  0  0  0  0  0  0  0  0  0  0
    4.4036   -6.7244   -0.6335 H   0  0  0  0  0  0  0  0  0  0  0  0
    5.4705   -6.3030    0.6724 H   0  0  0  0  0  0  0  0  0  0  0  0
    4.0496   -7.7364    1.3721 H   0  0  0  0  0  0  0  0  0  0  0  0
    6.1132   -3.9542   -2.5962 H   0  0  0  0  0  0  0  0  0  0  0  0
    3.7909   -4.6093   -3.1219 H   0  0  0  0  0  0  0  0  0  0  0  0
  2  1  1  1
  1 18  1  0
  1 19  1  0
  1 20  1  0
  2  7  1  0
  2 11  1  0
  2  3  1  0
  3  4  1  0
  3 21  1  0
  3 22  1  0
  4 16  1  0
  4  5  2  0
  5  6  1  0
  5 23  1  0
  6  7  1  0
  6 24  1  0
  6 25  1  0
  7  8  1  0
  7 26  1  1
  8 12  1  0
  8  9  1  1
  8 16  1  0
  9 10  1  0
  9 27  1  0
  9 28  1  0
 10 11  1  0
 10 29  1  0
 10 30  1  0
 11 12  1  0
 11 31  1  1
 12 13  1  6
 12 14  1  0
 13 32  1  0
 13 33  1  0
 13 34  1  0
 14 15  1  0
 14 35  1  0
 14 36  1  0
 15 37  1  0
 16 17  1  0
 16 38  1  6
 17 39  1  0
M  END
>  <i_m_ct_stereo_status>  (127) 
1

>  <s_m_source_file>  (127) 
/var/tmp/pbs.5076255.sched01/tmp7dp07en1/447ppmqug5.sdf

>  <i_m_source_file_index>  (127) 
10

>  <i_lp_mmshare_version>  (127) 
48012

>  <i_f3d_flags>  (127) 
0

>  <s_epik_input>  (127) 
W09IXVtDSDJdW0NAQF0xKFtDSDNdKVtDQEBIXShbQ0gyXVtDSDJdMilbQ0BdKFtDSDNdKShbQ0BASF0zQzEyNClbQ0gyXUMoPVtDSF1bQ0gyXTMpW0NAQEhdNFtPSF0=

>  <s_epik_cmdline>  (127) 
J2VwaWtfcHl0aG9uJywgJy1waHQnLCAnMi4wJywgJy1waCcsICc3LjAnLCAnLXRuJywgJzgnLCAnLW1hJywgJzIwMCcsICctaW1hZScsICc8aW5maWxlLm1hZT4nLCAnLW9tYWUnLCAnPG91dGZpbGUubWFlPic=

>  <r_lp_tautomer_probability>  (127) 
1

>  <r_epik_Ionization_Penalty>  (127) 
1.66104e-06

>  <r_epik_Ionization_Penalty_Charging>  (127) 
0

>  <r_epik_Ionization_Penalty_Neutral>  (127) 
1.66104e-06

>  <r_epik_State_Penalty>  (127) 
-0

>  <r_epik_Charging_Adjusted_Penalty>  (127) 
0

>  <i_epik_Tot_Q>  (127) 
0

>  <i_epik_Tot_abs_Q>  (127) 
0

>  <s_lp_Force_Field>  (127) 
OPLS3e

>  <r_lp_Energy>  (127) 
286.901

>  <b_lp_Chiralities_Consistent>  (127) 
1

>  <s_lp_Variant>  (127) 
38:0-1

>  <s_i_glide_gridfile>  (127) 
pfpi4k_grid

>  <i_i_glide_lignum>  (127) 
10

>  <i_i_glide_rotatable_bonds>  (127) 
3

>  <r_i_docking_score>  (127) 
-3.82675

>  <r_i_glide_ligand_efficiency>  (127) 
-0.225103

>  <r_i_glide_ligand_efficiency_sa>  (127) 
-0.578804

>  <r_i_glide_ligand_efficiency_ln>  (127) 
-0.998315

>  <r_i_glide_gscore>  (127) 
-3.82675

>  <r_i_glide_lipo>  (127) 
-0.415958

>  <r_i_glide_hbond>  (127) 
-0.32

>  <r_i_glide_metal>  (127) 
-0

>  <r_i_glide_rewards>  (127) 
-1.81136

>  <r_i_glide_evdw>  (127) 
-16.6994

>  <r_i_glide_ecoul>  (127) 
-5.04791

>  <r_i_glide_erotb>  (127) 
0.312716

>  <r_i_glide_esite>  (127) 
0

>  <r_i_glide_emodel>  (127) 
-25.7417

>  <r_i_glide_energy>  (127) 
-21.7473

>  <r_i_glide_einternal>  (127) 
3.79693

>  <r_i_glide_intrahb_reward>  (127) 
-0

>  <i_i_glide_confnum>  (127) 
3

>  <i_i_glide_posenum>  (127) 
35

>  <r_i_glide_eff_state_penalty>  (127) 
0

>  <ligand_id>  (127) 
38

>  <original_smiles>  (127) 
CC12CC3=CCC1C1(CCC2C1(C)CO)C3O

>  <smiles>  (127) 
[H]OC([H])([H])C1(C([H])([H])[H])C2([H])C([H])([H])C([H])([H])C13C([H])(O[H])C1=C([H])C([H])([H])C3([H])C2(C([H])([H])[H])C1([H])[H]

$$$$
39:0:0
     RDKit          3D

 65 70  0  0  1  0  0  0  0  0999 V2000
    0.6286   -9.4910    2.7696 C   0  0  0  0  0  0  0  0  0  0  0  0
    1.1037   -8.0196    2.8688 C   0  0  2  0  0  0  0  0  0  0  0  0
    1.3412   -7.5016    1.4315 C   0  0  0  0  0  0  0  0  0  0  0  0
    2.2309   -6.2606    1.2749 C   0  0  0  0  0  0  0  0  0  0  0  0
    3.5705   -6.4199    2.0278 C   0  0  2  0  0  0  0  0  0  0  0  0
    3.2735   -6.6496    3.5306 C   0  0  1  0  0  0  0  0  0  0  0  0
    2.8703   -5.3049    4.1838 C   0  0  0  0  0  0  0  0  0  0  0  0
    4.0154   -4.2844    4.0699 C   0  0  0  0  0  0  0  0  0  0  0  0
    4.5167   -4.0112    2.6288 C   0  0  1  0  0  0  0  0  0  0  0  0
    4.6970   -5.3366    1.7793 C   0  0  1  0  0  0  0  0  0  0  0  0
    6.0371   -5.9837    2.2397 C   0  0  0  0  0  0  0  0  0  0  0  0
    4.9162   -5.0587    0.2493 C   0  0  0  0  0  0  0  0  0  0  0  0
    4.1648   -3.8637   -0.3631 C   0  0  0  0  0  0  0  0  0  0  0  0
    4.4021   -2.6312    0.5075 C   0  0  1  0  0  0  0  0  0  0  0  0
    3.8858   -1.2851   -0.0159 C   0  0  0  0  0  0  0  0  0  0  0  0
    3.5213   -0.4725    1.2390 C   0  0  0  0  0  0  0  0  0  0  0  0
    3.9113   -1.3535    2.4550 C   0  0  1  0  0  0  0  0  0  0  0  0
    5.2818   -0.9039    3.0180 C   0  0  0  0  0  0  0  0  0  0  0  0
    4.9386    0.1351    4.0795 C   0  0  0  0  0  0  0  0  0  0  0  0
    3.5203   -0.2488    4.4564 C   0  0  0  0  0  0  0  0  0  0  0  0
    2.9354    0.1735    5.4486 O   0  0  0  0  0  0  0  0  0  0  0  0
    3.0424   -1.1068    3.5546 O   0  0  0  0  0  0  0  0  0  0  0  0
    3.8096   -2.8138    1.9074 C   0  0  2  0  0  0  0  0  0  0  0  0
    2.4272   -3.0761    1.7674 O   0  0  0  0  0  0  0  0  0  0  0  0
    2.3590   -7.9030    3.7676 C   0  0  1  0  0  0  0  0  0  0  0  0
    1.8049   -7.9884    5.2064 C   0  0  0  0  0  0  0  0  0  0  0  0
    0.4297   -7.2971    5.1774 C   0  0  0  0  0  0  0  0  0  0  0  0
    0.0668   -7.2644    3.6966 C   0  0  0  0  0  0  0  0  0  0  0  0
   -0.9352   -6.7124    3.2366 O   0  0  0  0  0  0  0  0  0  0  0  0
    1.4179  -10.1355    2.3812 H   0  0  0  0  0  0  0  0  0  0  0  0
   -0.2186   -9.5841    2.0886 H   0  0  0  0  0  0  0  0  0  0  0  0
    0.3145   -9.9051    3.7281 H   0  0  0  0  0  0  0  0  0  0  0  0
    1.8150   -8.3147    0.8824 H   0  0  0  0  0  0  0  0  0  0  0  0
    0.3919   -7.3282    0.9304 H   0  0  0  0  0  0  0  0  0  0  0  0
    2.4073   -6.1134    0.2108 H   0  0  0  0  0  0  0  0  0  0  0  0
    1.6670   -5.3986    1.6087 H   0  0  0  0  0  0  0  0  0  0  0  0
    3.9720   -7.3594    1.6470 H   0  0  0  0  0  0  0  0  0  0  0  0
    4.2010   -6.9350    4.0229 H   0  0  0  0  0  0  0  0  0  0  0  0
    1.9574   -4.9013    3.7479 H   0  0  0  0  0  0  0  0  0  0  0  0
    2.6544   -5.4380    5.2423 H   0  0  0  0  0  0  0  0  0  0  0  0
    3.7134   -3.3598    4.5497 H   0  0  0  0  0  0  0  0  0  0  0  0
    4.8493   -4.6524    4.6661 H   0  0  0  0  0  0  0  0  0  0  0  0
    5.5343   -3.6517    2.7579 H   0  0  0  0  0  0  0  0  0  0  0  0
    6.8915   -5.3464    2.0056 H   0  0  0  0  0  0  0  0  0  0  0  0
    6.2169   -6.9411    1.7476 H   0  0  0  0  0  0  0  0  0  0  0  0
    6.0813   -6.1529    3.3147 H   0  0  0  0  0  0  0  0  0  0  0  0
    5.9720   -4.8621    0.0636 H   0  0  0  0  0  0  0  0  0  0  0  0
    4.7005   -5.9562   -0.3309 H   0  0  0  0  0  0  0  0  0  0  0  0
    4.5283   -3.6891   -1.3756 H   0  0  0  0  0  0  0  0  0  0  0  0
    3.1034   -4.0802   -0.4734 H   0  0  0  0  0  0  0  0  0  0  0  0
    5.4824   -2.5195    0.6093 H   0  0  0  0  0  0  0  0  0  0  0  0
    4.6426   -0.7815   -0.6195 H   0  0  0  0  0  0  0  0  0  0  0  0
    3.0142   -1.4155   -0.6544 H   0  0  0  0  0  0  0  0  0  0  0  0
    4.0109    0.5036    1.2460 H   0  0  0  0  0  0  0  0  0  0  0  0
    2.4490   -0.2760    1.2317 H   0  0  0  0  0  0  0  0  0  0  0  0
    5.8117   -1.7102    3.5196 H   0  0  0  0  0  0  0  0  0  0  0  0
    5.9502   -0.5027    2.2535 H   0  0  0  0  0  0  0  0  0  0  0  0
    5.6080    0.0906    4.9392 H   0  0  0  0  0  0  0  0  0  0  0  0
    4.9338    1.1509    3.6818 H   0  0  0  0  0  0  0  0  0  0  0  0
    2.0403   -2.3291    1.3315 H   0  0  0  0  0  0  0  0  0  0  0  0
    2.9885   -8.7760    3.5851 H   0  0  0  0  0  0  0  0  0  0  0  0
    1.6713   -9.0359    5.4815 H   0  0  0  0  0  0  0  0  0  0  0  0
    2.4816   -7.5642    5.9482 H   0  0  0  0  0  0  0  0  0  0  0  0
   -0.3077   -7.8486    5.7566 H   0  0  0  0  0  0  0  0  0  0  0  0
    0.4806   -6.2812    5.5616 H   0  0  0  0  0  0  0  0  0  0  0  0
  2  1  1  6
  1 30  1  0
  1 31  1  0
  1 32  1  0
  2 25  1  0
  2 28  1  0
  2  3  1  0
  3  4  1  0
  3 33  1  0
  3 34  1  0
  4  5  1  0
  4 35  1  0
  4 36  1  0
  5 10  1  0
  5  6  1  0
  5 37  1  6
  6  7  1  0
  6 25  1  0
  6 38  1  1
  7  8  1  0
  7 39  1  0
  7 40  1  0
  8  9  1  0
  8 41  1  0
  8 42  1  0
  9 23  1  0
  9 10  1  0
  9 43  1  1
 10 11  1  1
 10 12  1  0
 11 44  1  0
 11 45  1  0
 11 46  1  0
 12 13  1  0
 12 47  1  0
 12 48  1  0
 13 14  1  0
 13 49  1  0
 13 50  1  0
 14 23  1  0
 14 15  1  0
 14 51  1  1
 15 16  1  0
 15 52  1  0
 15 53  1  0
 16 17  1  0
 16 54  1  0
 16 55  1  0
 17 22  1  1
 17 18  1  0
 17 23  1  0
 18 19  1  0
 18 56  1  0
 18 57  1  0
 19 20  1  0
 19 58  1  0
 19 59  1  0
 20 21  2  0
 20 22  1  0
 23 24  1  6
 24 60  1  0
 25 26  1  0
 25 61  1  6
 26 27  1  0
 26 62  1  0
 26 63  1  0
 27 28  1  0
 27 64  1  0
 27 65  1  0
 28 29  2  0
M  END
>  <i_m_ct_stereo_status>  (128) 
1

>  <s_m_source_file>  (128) 
/var/tmp/pbs.5076255.sched01/tmp7dp07en1/447ppmqug5.sdf

>  <i_m_source_file_index>  (128) 
11

>  <i_lp_mmshare_version>  (128) 
48012

>  <i_f3d_flags>  (128) 
0

>  <s_epik_input>  (128) 
W0NIMl0xW0NIMl1DKD1PKVtDQEBdKFtDSDNdKShbQ0gyXVtDSDJdMilbQ0BIXTFbQ0BIXShbQ0gyXVtDSDJdMylbQ0BASF0yW0NAQF0oW0NIM10pKFtDSDJdW0NIMl1bQ0BIXTRbQ0gyXVtDSDJdNSlbQ0BIXTNbQ0BAXTQoW09IXSlbQ0BAXTU2W0NIMl1bQ0gyXUMoPU8pTzY=

>  <s_epik_cmdline>  (128) 
J2VwaWtfcHl0aG9uJywgJy1waHQnLCAnMi4wJywgJy1waCcsICc3LjAnLCAnLXRuJywgJzgnLCAnLW1hJywgJzIwMCcsICctaW1hZScsICc8aW5maWxlLm1hZT4nLCAnLW9tYWUnLCAnPG91dGZpbGUubWFlPic=

>  <r_lp_tautomer_probability>  (128) 
1

>  <r_epik_Ionization_Penalty>  (128) 
5.39154e-08

>  <r_epik_Ionization_Penalty_Charging>  (128) 
0

>  <r_epik_Ionization_Penalty_Neutral>  (128) 
5.39154e-08

>  <r_epik_State_Penalty>  (128) 
-0

>  <r_epik_Charging_Adjusted_Penalty>  (128) 
0

>  <i_epik_Tot_Q>  (128) 
0

>  <i_epik_Tot_abs_Q>  (128) 
0

>  <s_epik_Chemistry_Notes>  (128) 
This compound has an ester and may undergo hydrolysis at high or low pH.

>  <s_lp_Force_Field>  (128) 
OPLS3e

>  <r_lp_Energy>  (128) 
57.1525

>  <b_lp_Chiralities_Consistent>  (128) 
1

>  <s_lp_Variant>  (128) 
39:0-1

>  <s_i_glide_gridfile>  (128) 
pfpi4k_grid

>  <i_i_glide_lignum>  (128) 
11

>  <i_i_glide_rotatable_bonds>  (128) 
1

>  <r_i_docking_score>  (128) 
-3.08656

>  <r_i_glide_ligand_efficiency>  (128) 
-0.106433

>  <r_i_glide_ligand_efficiency_sa>  (128) 
-0.326997

>  <r_i_glide_ligand_efficiency_ln>  (128) 
-0.706745

>  <r_i_glide_gscore>  (128) 
-3.08656

>  <r_i_glide_lipo>  (128) 
-0.331928

>  <r_i_glide_hbond>  (128) 
-0.154869

>  <r_i_glide_metal>  (128) 
-0

>  <r_i_glide_rewards>  (128) 
-0.678555

>  <r_i_glide_evdw>  (128) 
-27.1787

>  <r_i_glide_ecoul>  (128) 
-3.48738

>  <r_i_glide_erotb>  (128) 
0

>  <r_i_glide_esite>  (128) 
-0.0391686

>  <r_i_glide_emodel>  (128) 
-37.1124

>  <r_i_glide_energy>  (128) 
-30.6661

>  <r_i_glide_einternal>  (128) 
0.0232921

>  <r_i_glide_intrahb_reward>  (128) 
-0

>  <i_i_glide_confnum>  (128) 
1

>  <i_i_glide_posenum>  (128) 
1

>  <r_i_glide_eff_state_penalty>  (128) 
0

>  <ligand_id>  (128) 
39

>  <original_smiles>  (128) 
CC12CCC3C(CCC4C3(C)CCC3CCC5(CCC(=O)O5)C34O)C1CCC2=O

>  <smiles>  (128) 
[H]OC12C([H])(C([H])([H])C([H])([H])C13OC(=O)C([H])([H])C3([H])[H])C([H])([H])C([H])([H])C1(C([H])([H])[H])C3([H])C([H])([H])C([H])([H])C4(C([H])([H])[H])C(=O)C([H])([H])C([H])([H])C4([H])C3([H])C([H])([H])C([H])([H])C21[H]

$$$$
39:0:1
     RDKit          3D

 65 70  0  0  1  0  0  0  0  0999 V2000
    0.4651   -9.6222    4.0203 C   0  0  0  0  0  0  0  0  0  0  0  0
    0.8875   -8.2115    3.5468 C   0  0  2  0  0  0  0  0  0  0  0  0
    1.7048   -8.3842    2.2390 C   0  0  0  0  0  0  0  0  0  0  0  0
    2.6014   -7.2084    1.8337 C   0  0  0  0  0  0  0  0  0  0  0  0
    3.5120   -6.7562    2.9956 C   0  0  2  0  0  0  0  0  0  0  0  0
    2.6285   -6.3202    4.1899 C   0  0  1  0  0  0  0  0  0  0  0  0
    2.0246   -4.9242    3.8958 C   0  0  0  0  0  0  0  0  0  0  0  0
    3.1410   -3.8815    3.7158 C   0  0  0  0  0  0  0  0  0  0  0  0
    4.1828   -4.2159    2.6202 C   0  0  1  0  0  0  0  0  0  0  0  0
    4.6651   -5.7248    2.6748 C   0  0  1  0  0  0  0  0  0  0  0  0
    5.6881   -5.8330    3.8452 C   0  0  0  0  0  0  0  0  0  0  0  0
    5.4888   -6.1456    1.4109 C   0  0  0  0  0  0  0  0  0  0  0  0
    5.0682   -5.5257    0.0704 C   0  0  0  0  0  0  0  0  0  0  0  0
    4.9663   -4.0109    0.2265 C   0  0  1  0  0  0  0  0  0  0  0  0
    4.7398   -3.1834   -1.0455 C   0  0  0  0  0  0  0  0  0  0  0  0
    3.9321   -1.9564   -0.5806 C   0  0  0  0  0  0  0  0  0  0  0  0
    3.7732   -2.0936    0.9595 C   0  0  1  0  0  0  0  0  0  0  0  0
    4.8128   -1.1980    1.6792 C   0  0  0  0  0  0  0  0  0  0  0  0
    4.0832    0.1281    1.8699 C   0  0  0  0  0  0  0  0  0  0  0  0
    2.6297   -0.2909    1.8553 C   0  0  0  0  0  0  0  0  0  0  0  0
    1.6992    0.4236    2.2197 O   0  0  0  0  0  0  0  0  0  0  0  0
    2.5463   -1.5400    1.4175 O   0  0  0  0  0  0  0  0  0  0  0  0
    3.8537   -3.6334    1.2028 C   0  0  2  0  0  0  0  0  0  0  0  0
    2.6450   -4.1767    0.7021 O   0  0  0  0  0  0  0  0  0  0  0  0
    1.6704   -7.4711    4.6622 C   0  0  1  0  0  0  0  0  0  0  0  0
    0.5833   -6.9871    5.6456 C   0  0  0  0  0  0  0  0  0  0  0  0
   -0.6420   -6.6476    4.7845 C   0  0  0  0  0  0  0  0  0  0  0  0
   -0.3732   -7.3531    3.4594 C   0  0  0  0  0  0  0  0  0  0  0  0
   -1.0835   -7.2181    2.4660 O   0  0  0  0  0  0  0  0  0  0  0  0
    1.3270  -10.2193    4.3179 H   0  0  0  0  0  0  0  0  0  0  0  0
   -0.0453  -10.1686    3.2271 H   0  0  0  0  0  0  0  0  0  0  0  0
   -0.2105   -9.5952    4.8748 H   0  0  0  0  0  0  0  0  0  0  0  0
    2.3420   -9.2612    2.3418 H   0  0  0  0  0  0  0  0  0  0  0  0
    1.0334   -8.6153    1.4160 H   0  0  0  0  0  0  0  0  0  0  0  0
    3.1972   -7.5379    0.9865 H   0  0  0  0  0  0  0  0  0  0  0  0
    1.9629   -6.4131    1.4696 H   0  0  0  0  0  0  0  0  0  0  0  0
    4.0138   -7.6751    3.3052 H   0  0  0  0  0  0  0  0  0  0  0  0
    3.2710   -6.1721    5.0584 H   0  0  0  0  0  0  0  0  0  0  0  0
    1.3781   -4.9336    3.0191 H   0  0  0  0  0  0  0  0  0  0  0  0
    1.3978   -4.5908    4.7202 H   0  0  0  0  0  0  0  0  0  0  0  0
    2.6931   -2.9096    3.5325 H   0  0  0  0  0  0  0  0  0  0  0  0
    3.6573   -3.7765    4.6711 H   0  0  0  0  0  0  0  0  0  0  0  0
    5.0698   -3.6588    2.9133 H   0  0  0  0  0  0  0  0  0  0  0  0
    6.5816   -5.2357    3.6540 H   0  0  0  0  0  0  0  0  0  0  0  0
    6.0292   -6.8603    3.9925 H   0  0  0  0  0  0  0  0  0  0  0  0
    5.2923   -5.4797    4.7957 H   0  0  0  0  0  0  0  0  0  0  0  0
    6.5338   -5.8661    1.5448 H   0  0  0  0  0  0  0  0  0  0  0  0
    5.5107   -7.2324    1.3203 H   0  0  0  0  0  0  0  0  0  0  0  0
    5.8125   -5.7653   -0.6828 H   0  0  0  0  0  0  0  0  0  0  0  0
    4.1384   -5.9651   -0.2906 H   0  0  0  0  0  0  0  0  0  0  0  0
    5.9178   -3.6728    0.6410 H   0  0  0  0  0  0  0  0  0  0  0  0
    5.6904   -2.8981   -1.4983 H   0  0  0  0  0  0  0  0  0  0  0  0
    4.1781   -3.7444   -1.7960 H   0  0  0  0  0  0  0  0  0  0  0  0
    4.4002   -1.0143   -0.8795 H   0  0  0  0  0  0  0  0  0  0  0  0
    2.9571   -1.9853   -1.0629 H   0  0  0  0  0  0  0  0  0  0  0  0
    5.0868   -1.5610    2.6689 H   0  0  0  0  0  0  0  0  0  0  0  0
    5.7382   -1.0739    1.1106 H   0  0  0  0  0  0  0  0  0  0  0  0
    4.3365    0.6089    2.8159 H   0  0  0  0  0  0  0  0  0  0  0  0
    4.2570    0.8213    1.0426 H   0  0  0  0  0  0  0  0  0  0  0  0
    2.8504   -5.0108    0.3058 H   0  0  0  0  0  0  0  0  0  0  0  0
    2.3018   -8.1972    5.1778 H   0  0  0  0  0  0  0  0  0  0  0  0
    0.3241   -7.7937    6.3336 H   0  0  0  0  0  0  0  0  0  0  0  0
    0.9111   -6.1496    6.2665 H   0  0  0  0  0  0  0  0  0  0  0  0
   -1.5701   -6.9837    5.2417 H   0  0  0  0  0  0  0  0  0  0  0  0
   -0.7143   -5.5776    4.6060 H   0  0  0  0  0  0  0  0  0  0  0  0
  2  1  1  1
  1 30  1  0
  1 31  1  0
  1 32  1  0
  2 25  1  0
  2 28  1  0
  2  3  1  0
  3  4  1  0
  3 33  1  0
  3 34  1  0
  4  5  1  0
  4 35  1  0
  4 36  1  0
  5 10  1  0
  5  6  1  0
  5 37  1  1
  6  7  1  0
  6 25  1  0
  6 38  1  1
  7  8  1  0
  7 39  1  0
  7 40  1  0
  8  9  1  0
  8 41  1  0
  8 42  1  0
  9 23  1  0
  9 10  1  0
  9 43  1  1
 10 11  1  1
 10 12  1  0
 11 44  1  0
 11 45  1  0
 11 46  1  0
 12 13  1  0
 12 47  1  0
 12 48  1  0
 13 14  1  0
 13 49  1  0
 13 50  1  0
 14 23  1  0
 14 15  1  0
 14 51  1  1
 15 16  1  0
 15 52  1  0
 15 53  1  0
 16 17  1  0
 16 54  1  0
 16 55  1  0
 17 22  1  1
 17 18  1  0
 17 23  1  0
 18 19  1  0
 18 56  1  0
 18 57  1  0
 19 20  1  0
 19 58  1  0
 19 59  1  0
 20 21  2  0
 20 22  1  0
 23 24  1  6
 24 60  1  0
 25 26  1  0
 25 61  1  1
 26 27  1  0
 26 62  1  0
 26 63  1  0
 27 28  1  0
 27 64  1  0
 27 65  1  0
 28 29  2  0
M  END
>  <i_m_ct_stereo_status>  (129) 
1

>  <s_m_source_file>  (129) 
/var/tmp/pbs.5076255.sched01/tmp7dp07en1/447ppmqug5.sdf

>  <i_m_source_file_index>  (129) 
11

>  <i_lp_mmshare_version>  (129) 
48012

>  <i_f3d_flags>  (129) 
0

>  <s_epik_input>  (129) 
W0NIMl0xW0NIMl1DKD1PKVtDQEBdKFtDSDNdKShbQ0gyXVtDSDJdMilbQ0BIXTFbQ0BIXShbQ0gyXVtDSDJdMylbQ0BASF0yW0NAQF0oW0NIM10pKFtDSDJdW0NIMl1bQ0BIXTRbQ0gyXVtDSDJdNSlbQ0BIXTNbQ0BAXTQoW09IXSlbQ0BAXTU2W0NIMl1bQ0gyXUMoPU8pTzY=

>  <s_epik_cmdline>  (129) 
J2VwaWtfcHl0aG9uJywgJy1waHQnLCAnMi4wJywgJy1waCcsICc3LjAnLCAnLXRuJywgJzgnLCAnLW1hJywgJzIwMCcsICctaW1hZScsICc8aW5maWxlLm1hZT4nLCAnLW9tYWUnLCAnPG91dGZpbGUubWFlPic=

>  <r_lp_tautomer_probability>  (129) 
1

>  <r_epik_Ionization_Penalty>  (129) 
5.39154e-08

>  <r_epik_Ionization_Penalty_Charging>  (129) 
0

>  <r_epik_Ionization_Penalty_Neutral>  (129) 
5.39154e-08

>  <r_epik_State_Penalty>  (129) 
-0

>  <r_epik_Charging_Adjusted_Penalty>  (129) 
0

>  <i_epik_Tot_Q>  (129) 
0

>  <i_epik_Tot_abs_Q>  (129) 
0

>  <s_epik_Chemistry_Notes>  (129) 
This compound has an ester and may undergo hydrolysis at high or low pH.

>  <s_lp_Force_Field>  (129) 
OPLS3e

>  <r_lp_Energy>  (129) 
57.1525

>  <b_lp_Chiralities_Consistent>  (129) 
1

>  <s_lp_Variant>  (129) 
39:0-1

>  <s_i_glide_gridfile>  (129) 
pfpi4k_grid

>  <i_i_glide_lignum>  (129) 
11

>  <i_i_glide_rotatable_bonds>  (129) 
1

>  <r_i_docking_score>  (129) 
-2.82173

>  <r_i_glide_ligand_efficiency>  (129) 
-0.0973011

>  <r_i_glide_ligand_efficiency_sa>  (129) 
-0.29894

>  <r_i_glide_ligand_efficiency_ln>  (129) 
-0.646105

>  <r_i_glide_gscore>  (129) 
-2.82173

>  <r_i_glide_lipo>  (129) 
-0.30327

>  <r_i_glide_hbond>  (129) 
-0.147098

>  <r_i_glide_metal>  (129) 
-0

>  <r_i_glide_rewards>  (129) 
-0.678062

>  <r_i_glide_evdw>  (129) 
-29.2653

>  <r_i_glide_ecoul>  (129) 
-0.906958

>  <r_i_glide_erotb>  (129) 
0

>  <r_i_glide_esite>  (129) 
-0.0939949

>  <r_i_glide_emodel>  (129) 
-35.5581

>  <r_i_glide_energy>  (129) 
-30.1722

>  <r_i_glide_einternal>  (129) 
0.76331

>  <r_i_glide_intrahb_reward>  (129) 
-0

>  <i_i_glide_confnum>  (129) 
3

>  <i_i_glide_posenum>  (129) 
34

>  <r_i_glide_eff_state_penalty>  (129) 
0

>  <ligand_id>  (129) 
39

>  <original_smiles>  (129) 
CC12CCC3C(CCC4C3(C)CCC3CCC5(CCC(=O)O5)C34O)C1CCC2=O

>  <smiles>  (129) 
[H]OC12C([H])(C([H])([H])C([H])([H])C13OC(=O)C([H])([H])C3([H])[H])C([H])([H])C([H])([H])C1(C([H])([H])[H])C3([H])C([H])([H])C([H])([H])C4(C([H])([H])[H])C(=O)C([H])([H])C([H])([H])C4([H])C3([H])C([H])([H])C([H])([H])C21[H]

$$$$
39:0:2
     RDKit          3D

 65 70  0  0  1  0  0  0  0  0999 V2000
    0.9413  -10.7734    3.7980 C   0  0  0  0  0  0  0  0  0  0  0  0
    1.1934   -9.2835    3.4631 C   0  0  2  0  0  0  0  0  0  0  0  0
    2.0830   -9.2391    2.1907 C   0  0  0  0  0  0  0  0  0  0  0  0
    2.8335   -7.9268    1.9254 C   0  0  0  0  0  0  0  0  0  0  0  0
    3.6290   -7.4611    3.1650 C   0  0  2  0  0  0  0  0  0  0  0  0
    2.6473   -7.2471    4.3433 C   0  0  1  0  0  0  0  0  0  0  0  0
    1.8792   -5.9183    4.1344 C   0  0  0  0  0  0  0  0  0  0  0  0
    2.8543   -4.7293    4.0996 C   0  0  0  0  0  0  0  0  0  0  0  0
    3.9793   -4.8302    3.0389 C   0  0  1  0  0  0  0  0  0  0  0  0
    4.6501   -6.2654    2.9888 C   0  0  1  0  0  0  0  0  0  0  0  0
    5.6323   -6.3428    4.1952 C   0  0  0  0  0  0  0  0  0  0  0  0
    5.5744   -6.4660    1.7357 C   0  0  0  0  0  0  0  0  0  0  0  0
    5.1361   -5.7884    0.4264 C   0  0  0  0  0  0  0  0  0  0  0  0
    4.8223   -4.3227    0.7069 C   0  0  1  0  0  0  0  0  0  0  0  0
    4.5358   -3.4209   -0.5016 C   0  0  0  0  0  0  0  0  0  0  0  0
    3.5532   -2.3569    0.0191 C   0  0  0  0  0  0  0  0  0  0  0  0
    3.3565   -2.6421    1.5315 C   0  0  1  0  0  0  0  0  0  0  0  0
    4.2396   -1.6839    2.3728 C   0  0  0  0  0  0  0  0  0  0  0  0
    3.3447   -0.4761    2.6369 C   0  0  0  0  0  0  0  0  0  0  0  0
    1.9589   -1.0752    2.5100 C   0  0  0  0  0  0  0  0  0  0  0  0
    0.9284   -0.5222    2.8960 O   0  0  0  0  0  0  0  0  0  0  0  0
    2.0475   -2.2793    1.9536 O   0  0  0  0  0  0  0  0  0  0  0  0
    3.6324   -4.1760    1.6586 C   0  0  2  0  0  0  0  0  0  0  0  0
    2.5268   -4.8353    1.0632 O   0  0  0  0  0  0  0  0  0  0  0  0
    1.8283   -8.5460    4.6703 C   0  0  1  0  0  0  0  0  0  0  0  0
    0.6479   -8.2907    5.6325 C   0  0  0  0  0  0  0  0  0  0  0  0
   -0.5806   -8.0358    4.7414 C   0  0  0  0  0  0  0  0  0  0  0  0
   -0.1700   -8.5921    3.3832 C   0  0  0  0  0  0  0  0  0  0  0  0
   -0.8678   -8.4927    2.3741 O   0  0  0  0  0  0  0  0  0  0  0  0
    1.8623  -11.2771    4.0934 H   0  0  0  0  0  0  0  0  0  0  0  0
    0.5491  -11.3079    2.9323 H   0  0  0  0  0  0  0  0  0  0  0  0
    0.2238  -10.9103    4.6085 H   0  0  0  0  0  0  0  0  0  0  0  0
    2.8283  -10.0300    2.2604 H   0  0  0  0  0  0  0  0  0  0  0  0
    1.4887   -9.4844    1.3129 H   0  0  0  0  0  0  0  0  0  0  0  0
    3.4997   -8.0997    1.0829 H   0  0  0  0  0  0  0  0  0  0  0  0
    2.1087   -7.1956    1.5921 H   0  0  0  0  0  0  0  0  0  0  0  0
    4.2343   -8.3300    3.4248 H   0  0  0  0  0  0  0  0  0  0  0  0
    3.2298   -7.0958    5.2517 H   0  0  0  0  0  0  0  0  0  0  0  0
    1.2752   -5.9406    3.2285 H   0  0  0  0  0  0  0  0  0  0  0  0
    1.1794   -5.7429    4.9488 H   0  0  0  0  0  0  0  0  0  0  0  0
    2.2908   -3.8118    3.9701 H   0  0  0  0  0  0  0  0  0  0  0  0
    3.3112   -4.6438    5.0842 H   0  0  0  0  0  0  0  0  0  0  0  0
    4.7726   -4.1901    3.4186 H   0  0  0  0  0  0  0  0  0  0  0  0
    6.4443   -5.6192    4.1000 H   0  0  0  0  0  0  0  0  0  0  0  0
    6.0987   -7.3259    4.2754 H   0  0  0  0  0  0  0  0  0  0  0  0
    5.1537   -6.1269    5.1489 H   0  0  0  0  0  0  0  0  0  0  0  0
    6.5673   -6.0698    1.9477 H   0  0  0  0  0  0  0  0  0  0  0  0
    5.7399   -7.5288    1.5571 H   0  0  0  0  0  0  0  0  0  0  0  0
    5.9388   -5.8594   -0.3048 H   0  0  0  0  0  0  0  0  0  0  0  0
    4.2893   -6.3034   -0.0234 H   0  0  0  0  0  0  0  0  0  0  0  0
    5.7013   -3.9008    1.1959 H   0  0  0  0  0  0  0  0  0  0  0  0
    5.4584   -2.9719   -0.8749 H   0  0  0  0  0  0  0  0  0  0  0  0
    4.0910   -3.9792   -1.3292 H   0  0  0  0  0  0  0  0  0  0  0  0
    3.9060   -1.3428   -0.1772 H   0  0  0  0  0  0  0  0  0  0  0  0
    2.6120   -2.4601   -0.5165 H   0  0  0  0  0  0  0  0  0  0  0  0
    4.5195   -2.0963    3.3404 H   0  0  0  0  0  0  0  0  0  0  0  0
    5.1636   -1.3999    1.8651 H   0  0  0  0  0  0  0  0  0  0  0  0
    3.4991   -0.0502    3.6293 H   0  0  0  0  0  0  0  0  0  0  0  0
    3.4708    0.3056    1.8846 H   0  0  0  0  0  0  0  0  0  0  0  0
    2.5467   -4.6346    0.1406 H   0  0  0  0  0  0  0  0  0  0  0  0
    2.5258   -9.2290    5.1578 H   0  0  0  0  0  0  0  0  0  0  0  0
    0.4673   -9.1838    6.2331 H   0  0  0  0  0  0  0  0  0  0  0  0
    0.8367   -7.4801    6.3367 H   0  0  0  0  0  0  0  0  0  0  0  0
   -1.4661   -8.5423    5.1202 H   0  0  0  0  0  0  0  0  0  0  0  0
   -0.8013   -6.9749    4.6450 H   0  0  0  0  0  0  0  0  0  0  0  0
  2  1  1  1
  1 30  1  0
  1 31  1  0
  1 32  1  0
  2 25  1  0
  2 28  1  0
  2  3  1  0
  3  4  1  0
  3 33  1  0
  3 34  1  0
  4  5  1  0
  4 35  1  0
  4 36  1  0
  5 10  1  0
  5  6  1  0
  5 37  1  1
  6  7  1  0
  6 25  1  0
  6 38  1  1
  7  8  1  0
  7 39  1  0
  7 40  1  0
  8  9  1  0
  8 41  1  0
  8 42  1  0
  9 23  1  0
  9 10  1  0
  9 43  1  1
 10 11  1  1
 10 12  1  0
 11 44  1  0
 11 45  1  0
 11 46  1  0
 12 13  1  0
 12 47  1  0
 12 48  1  0
 13 14  1  0
 13 49  1  0
 13 50  1  0
 14 23  1  0
 14 15  1  0
 14 51  1  1
 15 16  1  0
 15 52  1  0
 15 53  1  0
 16 17  1  0
 16 54  1  0
 16 55  1  0
 17 22  1  1
 17 18  1  0
 17 23  1  0
 18 19  1  0
 18 56  1  0
 18 57  1  0
 19 20  1  0
 19 58  1  0
 19 59  1  0
 20 21  2  0
 20 22  1  0
 23 24  1  6
 24 60  1  0
 25 26  1  0
 25 61  1  1
 26 27  1  0
 26 62  1  0
 26 63  1  0
 27 28  1  0
 27 64  1  0
 27 65  1  0
 28 29  2  0
M  END
>  <i_m_ct_stereo_status>  (130) 
1

>  <s_m_source_file>  (130) 
/var/tmp/pbs.5076255.sched01/tmp7dp07en1/447ppmqug5.sdf

>  <i_m_source_file_index>  (130) 
11

>  <i_lp_mmshare_version>  (130) 
48012

>  <i_f3d_flags>  (130) 
0

>  <s_epik_input>  (130) 
W0NIMl0xW0NIMl1DKD1PKVtDQEBdKFtDSDNdKShbQ0gyXVtDSDJdMilbQ0BIXTFbQ0BIXShbQ0gyXVtDSDJdMylbQ0BASF0yW0NAQF0oW0NIM10pKFtDSDJdW0NIMl1bQ0BIXTRbQ0gyXVtDSDJdNSlbQ0BIXTNbQ0BAXTQoW09IXSlbQ0BAXTU2W0NIMl1bQ0gyXUMoPU8pTzY=

>  <s_epik_cmdline>  (130) 
J2VwaWtfcHl0aG9uJywgJy1waHQnLCAnMi4wJywgJy1waCcsICc3LjAnLCAnLXRuJywgJzgnLCAnLW1hJywgJzIwMCcsICctaW1hZScsICc8aW5maWxlLm1hZT4nLCAnLW9tYWUnLCAnPG91dGZpbGUubWFlPic=

>  <r_lp_tautomer_probability>  (130) 
1

>  <r_epik_Ionization_Penalty>  (130) 
5.39154e-08

>  <r_epik_Ionization_Penalty_Charging>  (130) 
0

>  <r_epik_Ionization_Penalty_Neutral>  (130) 
5.39154e-08

>  <r_epik_State_Penalty>  (130) 
-0

>  <r_epik_Charging_Adjusted_Penalty>  (130) 
0

>  <i_epik_Tot_Q>  (130) 
0

>  <i_epik_Tot_abs_Q>  (130) 
0

>  <s_epik_Chemistry_Notes>  (130) 
This compound has an ester and may undergo hydrolysis at high or low pH.

>  <s_lp_Force_Field>  (130) 
OPLS3e

>  <r_lp_Energy>  (130) 
57.1525

>  <b_lp_Chiralities_Consistent>  (130) 
1

>  <s_lp_Variant>  (130) 
39:0-1

>  <s_i_glide_gridfile>  (130) 
pfpi4k_grid

>  <i_i_glide_lignum>  (130) 
11

>  <i_i_glide_rotatable_bonds>  (130) 
1

>  <r_i_docking_score>  (130) 
-2.64525

>  <r_i_glide_ligand_efficiency>  (130) 
-0.0912154

>  <r_i_glide_ligand_efficiency_sa>  (130) 
-0.280243

>  <r_i_glide_ligand_efficiency_ln>  (130) 
-0.605695

>  <r_i_glide_gscore>  (130) 
-2.64525

>  <r_i_glide_lipo>  (130) 
-0.419574

>  <r_i_glide_hbond>  (130) 
0

>  <r_i_glide_metal>  (130) 
-0

>  <r_i_glide_rewards>  (130) 
-0.678062

>  <r_i_glide_evdw>  (130) 
-29.9974

>  <r_i_glide_ecoul>  (130) 
0.108832

>  <r_i_glide_erotb>  (130) 
0

>  <r_i_glide_esite>  (130) 
-0.0640678

>  <r_i_glide_emodel>  (130) 
-35.2933

>  <r_i_glide_energy>  (130) 
-29.8885

>  <r_i_glide_einternal>  (130) 
0.275327

>  <r_i_glide_intrahb_reward>  (130) 
-0

>  <i_i_glide_confnum>  (130) 
1

>  <i_i_glide_posenum>  (130) 
12

>  <r_i_glide_eff_state_penalty>  (130) 
0

>  <ligand_id>  (130) 
39

>  <original_smiles>  (130) 
CC12CCC3C(CCC4C3(C)CCC3CCC5(CCC(=O)O5)C34O)C1CCC2=O

>  <smiles>  (130) 
[H]OC12C([H])(C([H])([H])C([H])([H])C13OC(=O)C([H])([H])C3([H])[H])C([H])([H])C([H])([H])C1(C([H])([H])[H])C3([H])C([H])([H])C([H])([H])C4(C([H])([H])[H])C(=O)C([H])([H])C([H])([H])C4([H])C3([H])C([H])([H])C([H])([H])C21[H]

$$$$
40:0:0
     RDKit          3D

 51 56  0  0  1  0  0  0  0  0999 V2000
    8.5826   -6.0138    2.1858 C   0  0  0  0  0  0  0  0  0  0  0  0
    7.0862   -6.3921    2.1737 C   0  0  2  0  0  0  0  0  0  0  0  0
    6.9479   -7.8851    1.7440 C   0  0  0  0  0  0  0  0  0  0  0  0
    5.4986   -8.3727    1.4958 C   0  0  0  0  0  0  0  0  0  0  0  0
    4.5004   -7.3003    1.9321 C   0  0  2  0  0  0  0  0  0  0  0  0
    2.9994   -7.5813    2.0270 C   0  0  1  0  0  0  0  0  0  0  0  0
    2.3409   -8.7764    2.6812 C   0  0  0  0  0  0  0  0  0  0  0  0
    2.6960  -10.1370    2.6480 C   0  0  0  0  0  0  0  0  0  0  0  0
    1.8293  -11.0620    3.2743 C   0  0  0  0  0  0  0  0  0  0  0  0
    0.6271  -10.6319    3.8773 C   0  0  0  0  0  0  0  0  0  0  0  0
    0.2838   -9.2646    3.9053 C   0  0  0  0  0  0  0  0  0  0  0  0
    1.1637   -8.3531    3.3061 C   0  0  0  0  0  0  0  0  0  0  0  0
    1.0191   -6.8466    3.2587 C   0  0  0  0  0  0  0  0  0  0  0  0
    2.4664   -6.4498    2.9377 C   0  0  2  0  0  0  0  0  0  0  0  0
    2.8074   -5.1211    2.5429 O   0  0  0  0  0  0  0  0  0  0  0  0
    3.4496   -5.0332    1.3061 C   0  0  1  0  0  0  0  0  0  0  0  0
    3.6401   -3.7461    0.8683 O   0  0  0  0  0  0  0  0  0  0  0  0
    4.5074   -3.6413   -0.2478 C   0  0  1  0  0  0  0  0  0  0  0  0
    3.8852   -2.5936   -1.1908 C   0  0  0  0  0  0  0  0  0  0  0  0
    5.8420   -3.1533    0.3271 C   0  0  0  0  0  0  0  0  0  0  0  0
    6.2879   -3.9568    1.5522 C   0  0  0  0  0  0  0  0  0  0  0  0
    6.1880   -5.4616    1.2885 C   0  0  2  0  0  0  0  0  0  0  0  0
    4.7088   -5.9794    1.1135 C   0  0  1  0  0  0  0  0  0  0  0  0
    4.6150   -6.1913   -0.2789 O   0  0  0  0  0  0  0  0  0  0  0  0
    4.6893   -4.8376   -1.0472 O   0  0  0  0  0  0  0  0  0  0  0  0
    8.9937   -5.9950    1.1754 H   0  0  0  0  0  0  0  0  0  0  0  0
    9.1593   -6.7498    2.7530 H   0  0  0  0  0  0  0  0  0  0  0  0
    8.7682   -5.0503    2.6562 H   0  0  0  0  0  0  0  0  0  0  0  0
    6.7605   -6.3052    3.2106 H   0  0  0  0  0  0  0  0  0  0  0  0
    7.5575   -8.0783    0.8619 H   0  0  0  0  0  0  0  0  0  0  0  0
    7.3837   -8.5109    2.5239 H   0  0  0  0  0  0  0  0  0  0  0  0
    5.3618   -8.6123    0.4410 H   0  0  0  0  0  0  0  0  0  0  0  0
    5.3450   -9.2997    2.0434 H   0  0  0  0  0  0  0  0  0  0  0  0
    4.7859   -7.1068    2.9638 H   0  0  0  0  0  0  0  0  0  0  0  0
    2.5562   -7.5426    1.0308 H   0  0  0  0  0  0  0  0  0  0  0  0
    3.5807  -10.4974    2.1464 H   0  0  0  0  0  0  0  0  0  0  0  0
    2.0683  -12.1153    3.2579 H   0  0  0  0  0  0  0  0  0  0  0  0
   -0.0351  -11.3579    4.3223 H   0  0  0  0  0  0  0  0  0  0  0  0
   -0.6343   -8.9413    4.3723 H   0  0  0  0  0  0  0  0  0  0  0  0
    0.3503   -6.5727    2.4454 H   0  0  0  0  0  0  0  0  0  0  0  0
    0.6583   -6.4217    4.1928 H   0  0  0  0  0  0  0  0  0  0  0  0
    2.9687   -6.5383    3.9059 H   0  0  0  0  0  0  0  0  0  0  0  0
    2.6773   -5.3671    0.6080 H   0  0  0  0  0  0  0  0  0  0  0  0
    2.9151   -2.9306   -1.5594 H   0  0  0  0  0  0  0  0  0  0  0  0
    4.5237   -2.4176   -2.0561 H   0  0  0  0  0  0  0  0  0  0  0  0
    3.7229   -1.6378   -0.6898 H   0  0  0  0  0  0  0  0  0  0  0  0
    6.5970   -3.2029   -0.4545 H   0  0  0  0  0  0  0  0  0  0  0  0
    5.7611   -2.1069    0.6168 H   0  0  0  0  0  0  0  0  0  0  0  0
    7.3160   -3.6676    1.7398 H   0  0  0  0  0  0  0  0  0  0  0  0
    5.7122   -3.6905    2.4388 H   0  0  0  0  0  0  0  0  0  0  0  0
    6.6690   -5.5812    0.3155 H   0  0  0  0  0  0  0  0  0  0  0  0
  1  2  1  0
  1 26  1  0
  1 27  1  0
  1 28  1  0
  2 22  1  0
  2  3  1  0
  2 29  1  1
  3  4  1  0
  3 30  1  0
  3 31  1  0
  4  5  1  0
  4 32  1  0
  4 33  1  0
  5 23  1  0
  5  6  1  0
  5 34  1  1
  6 14  1  0
  6  7  1  0
  6 35  1  6
  7 12  2  0
  7  8  1  0
  8  9  2  0
  8 36  1  0
  9 10  1  0
  9 37  1  0
 10 11  2  0
 10 38  1  0
 11 12  1  0
 11 39  1  0
 12 13  1  0
 13 14  1  0
 13 40  1  0
 13 41  1  0
 14 15  1  0
 14 42  1  1
 15 16  1  0
 16 23  1  0
 16 17  1  0
 16 43  1  6
 17 18  1  0
 18 25  1  0
 18 19  1  6
 18 20  1  0
 19 44  1  0
 19 45  1  0
 19 46  1  0
 20 21  1  0
 20 47  1  0
 20 48  1  0
 21 22  1  0
 21 49  1  0
 21 50  1  0
 22 23  1  0
 22 51  1  6
 23 24  1  6
 24 25  1  0
M  END
>  <i_m_ct_stereo_status>  (131) 
1

>  <s_m_source_file>  (131) 
/var/tmp/pbs.5076255.sched01/tmp7dp07en1/447ppmqug5.sdf

>  <i_m_source_file_index>  (131) 
12

>  <i_lp_mmshare_version>  (131) 
48012

>  <i_f3d_flags>  (131) 
0

>  <s_epik_input>  (131) 
W0NIMl0xW0NIMl1bQ0BASF0oW0NIM10pW0NAQEhdMltDSDJdW0NIMl1bQ0BAXShbQ0gzXSkoT08zKU9bQ0BASF00T1tDQEhdNVtDSDJdYyhjNltDQEBIXTVbQ0BASF0xW0NAQF0yMzQpW2NIXVtjSF1bY0hdW2NIXTY=

>  <s_epik_cmdline>  (131) 
J2VwaWtfcHl0aG9uJywgJy1waHQnLCAnMi4wJywgJy1waCcsICc3LjAnLCAnLXRuJywgJzgnLCAnLW1hJywgJzIwMCcsICctaW1hZScsICc8aW5maWxlLm1hZT4nLCAnLW9tYWUnLCAnPG91dGZpbGUubWFlPic=

>  <r_lp_tautomer_probability>  (131) 
1

>  <r_epik_Ionization_Penalty>  (131) 
6.44636e-15

>  <r_epik_Ionization_Penalty_Charging>  (131) 
0

>  <r_epik_Ionization_Penalty_Neutral>  (131) 
6.44636e-15

>  <r_epik_State_Penalty>  (131) 
-0

>  <r_epik_Charging_Adjusted_Penalty>  (131) 
0

>  <i_epik_Tot_Q>  (131) 
0

>  <i_epik_Tot_abs_Q>  (131) 
0

>  <s_epik_Chemistry_Notes>  (131) 
This compound contains an acetal/aminal-like group ( X-CH(R)-Y where X, Y are N, S, or O) that may be acid/base labile, releasing an aldehyde.

>  <s_lp_Force_Field>  (131) 
OPLS3e

>  <r_lp_Energy>  (131) 
91.404

>  <b_lp_Chiralities_Consistent>  (131) 
1

>  <s_lp_Variant>  (131) 
40:0-1

>  <s_i_glide_gridfile>  (131) 
pfpi4k_grid

>  <i_i_glide_lignum>  (131) 
12

>  <i_i_glide_rotatable_bonds>  (131) 
0

>  <r_i_docking_score>  (131) 
-2.93974

>  <r_i_glide_ligand_efficiency>  (131) 
-0.11759

>  <r_i_glide_ligand_efficiency_sa>  (131) 
-0.343834

>  <r_i_glide_ligand_efficiency_ln>  (131) 
-0.696807

>  <r_i_glide_gscore>  (131) 
-2.93974

>  <r_i_glide_lipo>  (131) 
-0.694753

>  <r_i_glide_hbond>  (131) 
0

>  <r_i_glide_metal>  (131) 
-0

>  <r_i_glide_rewards>  (131) 
-1.11918

>  <r_i_glide_evdw>  (131) 
-26.2179

>  <r_i_glide_ecoul>  (131) 
1.23392

>  <r_i_glide_erotb>  (131) 
0

>  <r_i_glide_esite>  (131) 
0

>  <r_i_glide_emodel>  (131) 
-29.3128

>  <r_i_glide_energy>  (131) 
-24.9839

>  <r_i_glide_einternal>  (131) 
0

>  <r_i_glide_intrahb_reward>  (131) 
-0

>  <i_i_glide_confnum>  (131) 
1

>  <i_i_glide_posenum>  (131) 
10

>  <r_i_glide_eff_state_penalty>  (131) 
0

>  <ligand_id>  (131) 
40

>  <original_smiles>  (131) 
CC1CCC2C3c4ccccc4CC3OC3OC4(C)CCC1C32OO4

>  <smiles>  (131) 
[H]c1c([H])c([H])c2c(c1[H])C([H])([H])C1([H])OC3([H])OC4(C([H])([H])[H])OOC35C([H])(C([H])([H])C([H])([H])C([H])(C([H])([H])[H])C5([H])C([H])([H])C4([H])[H])C21[H]

$$$$
40:0:1
     RDKit          3D

 51 56  0  0  1  0  0  0  0  0999 V2000
    6.9588   -3.7694    0.4930 C   0  0  0  0  0  0  0  0  0  0  0  0
    5.6031   -4.0845    1.1606 C   0  0  2  0  0  0  0  0  0  0  0  0
    4.7723   -4.9974    0.2072 C   0  0  0  0  0  0  0  0  0  0  0  0
    3.3102   -5.2552    0.6417 C   0  0  0  0  0  0  0  0  0  0  0  0
    3.0785   -4.7011    2.0471 C   0  0  2  0  0  0  0  0  0  0  0  0
    1.8095   -5.0088    2.8394 C   0  0  1  0  0  0  0  0  0  0  0  0
    1.1456   -6.3563    3.0172 C   0  0  0  0  0  0  0  0  0  0  0  0
    0.9462   -7.4040    2.0968 C   0  0  0  0  0  0  0  0  0  0  0  0
    0.2044   -8.5281    2.5259 C   0  0  0  0  0  0  0  0  0  0  0  0
   -0.3466   -8.5830    3.8272 C   0  0  0  0  0  0  0  0  0  0  0  0
   -0.1343   -7.5276    4.7377 C   0  0  0  0  0  0  0  0  0  0  0  0
    0.6205   -6.4264    4.3115 C   0  0  0  0  0  0  0  0  0  0  0  0
    1.0053   -5.2135    5.1362 C   0  0  0  0  0  0  0  0  0  0  0  0
    2.1798   -4.6813    4.3033 C   0  0  2  0  0  0  0  0  0  0  0  0
    2.7301   -3.3828    4.5231 O   0  0  0  0  0  0  0  0  0  0  0  0
    2.7015   -2.5426    3.4059 C   0  0  1  0  0  0  0  0  0  0  0  0
    3.0937   -1.2529    3.6684 O   0  0  0  0  0  0  0  0  0  0  0  0
    3.3071   -0.4782    2.5015 C   0  0  1  0  0  0  0  0  0  0  0  0
    2.7260    0.9174    2.7980 C   0  0  0  0  0  0  0  0  0  0  0  0
    4.8347   -0.4239    2.3459 C   0  0  0  0  0  0  0  0  0  0  0  0
    5.5013   -1.7980    2.4700 C   0  0  0  0  0  0  0  0  0  0  0  0
    4.7818   -2.8226    1.5928 C   0  0  2  0  0  0  0  0  0  0  0  0
    3.3159   -3.1521    2.0735 C   0  0  1  0  0  0  0  0  0  0  0  0
    2.5159   -2.4770    1.1252 O   0  0  0  0  0  0  0  0  0  0  0  0
    2.6294   -0.9349    1.2982 O   0  0  0  0  0  0  0  0  0  0  0  0
    6.8342   -3.1184   -0.3733 H   0  0  0  0  0  0  0  0  0  0  0  0
    7.4406   -4.6875    0.1475 H   0  0  0  0  0  0  0  0  0  0  0  0
    7.6561   -3.2971    1.1851 H   0  0  0  0  0  0  0  0  0  0  0  0
    5.8510   -4.6585    2.0539 H   0  0  0  0  0  0  0  0  0  0  0  0
    4.7767   -4.5897   -0.8061 H   0  0  0  0  0  0  0  0  0  0  0  0
    5.2743   -5.9631    0.1300 H   0  0  0  0  0  0  0  0  0  0  0  0
    2.6310   -4.7926   -0.0768 H   0  0  0  0  0  0  0  0  0  0  0  0
    3.1234   -6.3257    0.6057 H   0  0  0  0  0  0  0  0  0  0  0  0
    3.8596   -5.1771    2.6372 H   0  0  0  0  0  0  0  0  0  0  0  0
    1.0117   -4.3643    2.4801 H   0  0  0  0  0  0  0  0  0  0  0  0
    1.3336   -7.3763    1.0906 H   0  0  0  0  0  0  0  0  0  0  0  0
    0.0421   -9.3575    1.8543 H   0  0  0  0  0  0  0  0  0  0  0  0
   -0.9221   -9.4478    4.1253 H   0  0  0  0  0  0  0  0  0  0  0  0
   -0.5394   -7.5782    5.7360 H   0  0  0  0  0  0  0  0  0  0  0  0
    0.1771   -4.5081    5.1483 H   0  0  0  0  0  0  0  0  0  0  0  0
    1.2867   -5.4637    6.1568 H   0  0  0  0  0  0  0  0  0  0  0  0
    3.0067   -5.3373    4.5885 H   0  0  0  0  0  0  0  0  0  0  0  0
    1.6299   -2.3929    3.2402 H   0  0  0  0  0  0  0  0  0  0  0  0
    1.6479    0.8663    2.9537 H   0  0  0  0  0  0  0  0  0  0  0  0
    2.9066    1.6026    1.9699 H   0  0  0  0  0  0  0  0  0  0  0  0
    3.1646    1.3599    3.6948 H   0  0  0  0  0  0  0  0  0  0  0  0
    5.0753    0.0376    1.3896 H   0  0  0  0  0  0  0  0  0  0  0  0
    5.2585    0.2202    3.1161 H   0  0  0  0  0  0  0  0  0  0  0  0
    6.5362   -1.6761    2.1645 H   0  0  0  0  0  0  0  0  0  0  0  0
    5.5229   -2.1400    3.5048 H   0  0  0  0  0  0  0  0  0  0  0  0
    4.6788   -2.3084    0.6346 H   0  0  0  0  0  0  0  0  0  0  0  0
  1  2  1  0
  1 26  1  0
  1 27  1  0
  1 28  1  0
  2 22  1  0
  2  3  1  0
  2 29  1  1
  3  4  1  0
  3 30  1  0
  3 31  1  0
  4  5  1  0
  4 32  1  0
  4 33  1  0
  5 23  1  0
  5  6  1  0
  5 34  1  1
  6 14  1  0
  6  7  1  0
  6 35  1  6
  7 12  2  0
  7  8  1  0
  8  9  2  0
  8 36  1  0
  9 10  1  0
  9 37  1  0
 10 11  2  0
 10 38  1  0
 11 12  1  0
 11 39  1  0
 12 13  1  0
 13 14  1  0
 13 40  1  0
 13 41  1  0
 14 15  1  0
 14 42  1  1
 15 16  1  0
 16 23  1  0
 16 17  1  0
 16 43  1  6
 17 18  1  0
 18 25  1  0
 18 19  1  1
 18 20  1  0
 19 44  1  0
 19 45  1  0
 19 46  1  0
 20 21  1  0
 20 47  1  0
 20 48  1  0
 21 22  1  0
 21 49  1  0
 21 50  1  0
 22 23  1  0
 22 51  1  6
 23 24  1  6
 24 25  1  0
M  END
>  <i_m_ct_stereo_status>  (132) 
1

>  <s_m_source_file>  (132) 
/var/tmp/pbs.5076255.sched01/tmp7dp07en1/447ppmqug5.sdf

>  <i_m_source_file_index>  (132) 
12

>  <i_lp_mmshare_version>  (132) 
48012

>  <i_f3d_flags>  (132) 
0

>  <s_epik_input>  (132) 
W0NIMl0xW0NIMl1bQ0BASF0oW0NIM10pW0NAQEhdMltDSDJdW0NIMl1bQ0BAXShbQ0gzXSkoT08zKU9bQ0BASF00T1tDQEhdNVtDSDJdYyhjNltDQEBIXTVbQ0BASF0xW0NAQF0yMzQpW2NIXVtjSF1bY0hdW2NIXTY=

>  <s_epik_cmdline>  (132) 
J2VwaWtfcHl0aG9uJywgJy1waHQnLCAnMi4wJywgJy1waCcsICc3LjAnLCAnLXRuJywgJzgnLCAnLW1hJywgJzIwMCcsICctaW1hZScsICc8aW5maWxlLm1hZT4nLCAnLW9tYWUnLCAnPG91dGZpbGUubWFlPic=

>  <r_lp_tautomer_probability>  (132) 
1

>  <r_epik_Ionization_Penalty>  (132) 
6.44636e-15

>  <r_epik_Ionization_Penalty_Charging>  (132) 
0

>  <r_epik_Ionization_Penalty_Neutral>  (132) 
6.44636e-15

>  <r_epik_State_Penalty>  (132) 
-0

>  <r_epik_Charging_Adjusted_Penalty>  (132) 
0

>  <i_epik_Tot_Q>  (132) 
0

>  <i_epik_Tot_abs_Q>  (132) 
0

>  <s_epik_Chemistry_Notes>  (132) 
This compound contains an acetal/aminal-like group ( X-CH(R)-Y where X, Y are N, S, or O) that may be acid/base labile, releasing an aldehyde.

>  <s_lp_Force_Field>  (132) 
OPLS3e

>  <r_lp_Energy>  (132) 
91.404

>  <b_lp_Chiralities_Consistent>  (132) 
1

>  <s_lp_Variant>  (132) 
40:0-1

>  <s_i_glide_gridfile>  (132) 
pfpi4k_grid

>  <i_i_glide_lignum>  (132) 
12

>  <i_i_glide_rotatable_bonds>  (132) 
0

>  <r_i_docking_score>  (132) 
-2.87577

>  <r_i_glide_ligand_efficiency>  (132) 
-0.115031

>  <r_i_glide_ligand_efficiency_sa>  (132) 
-0.336353

>  <r_i_glide_ligand_efficiency_ln>  (132) 
-0.681645

>  <r_i_glide_gscore>  (132) 
-2.87577

>  <r_i_glide_lipo>  (132) 
-0.464723

>  <r_i_glide_hbond>  (132) 
0

>  <r_i_glide_metal>  (132) 
-0

>  <r_i_glide_rewards>  (132) 
-1.07478

>  <r_i_glide_evdw>  (132) 
-23.7504

>  <r_i_glide_ecoul>  (132) 
-0.981113

>  <r_i_glide_erotb>  (132) 
0

>  <r_i_glide_esite>  (132) 
-0.00158625

>  <r_i_glide_emodel>  (132) 
-28.9881

>  <r_i_glide_energy>  (132) 
-24.7315

>  <r_i_glide_einternal>  (132) 
0

>  <r_i_glide_intrahb_reward>  (132) 
-0

>  <i_i_glide_confnum>  (132) 
2

>  <i_i_glide_posenum>  (132) 
33

>  <r_i_glide_eff_state_penalty>  (132) 
0

>  <ligand_id>  (132) 
40

>  <original_smiles>  (132) 
CC1CCC2C3c4ccccc4CC3OC3OC4(C)CCC1C32OO4

>  <smiles>  (132) 
[H]c1c([H])c([H])c2c(c1[H])C([H])([H])C1([H])OC3([H])OC4(C([H])([H])[H])OOC35C([H])(C([H])([H])C([H])([H])C([H])(C([H])([H])[H])C5([H])C([H])([H])C4([H])[H])C21[H]

$$$$
40:0:2
     RDKit          3D

 51 56  0  0  1  0  0  0  0  0999 V2000
    7.9400   -8.0405    2.4015 C   0  0  0  0  0  0  0  0  0  0  0  0
    6.4588   -7.6333    2.3932 C   0  0  2  0  0  0  0  0  0  0  0  0
    5.6138   -8.8137    1.8257 C   0  0  0  0  0  0  0  0  0  0  0  0
    4.1189   -8.4981    1.5897 C   0  0  0  0  0  0  0  0  0  0  0  0
    3.7800   -7.1224    2.1608 C   0  0  2  0  0  0  0  0  0  0  0  0
    2.3397   -6.6282    2.2874 C   0  0  1  0  0  0  0  0  0  0  0  0
    1.1652   -7.3941    2.8496 C   0  0  0  0  0  0  0  0  0  0  0  0
    0.7966   -8.7423    2.6781 C   0  0  0  0  0  0  0  0  0  0  0  0
   -0.4218   -9.1724    3.2450 C   0  0  0  0  0  0  0  0  0  0  0  0
   -1.2561   -8.2672    3.9377 C   0  0  0  0  0  0  0  0  0  0  0  0
   -0.8667   -6.9267    4.1151 C   0  0  0  0  0  0  0  0  0  0  0  0
    0.3519   -6.5094    3.5647 C   0  0  0  0  0  0  0  0  0  0  0  0
    0.9934   -5.1367    3.6706 C   0  0  0  0  0  0  0  0  0  0  0  0
    2.4413   -5.4809    3.3240 C   0  0  2  0  0  0  0  0  0  0  0  0
    3.3952   -4.4627    3.0297 O   0  0  0  0  0  0  0  0  0  0  0  0
    4.0015   -4.5839    1.7760 C   0  0  1  0  0  0  0  0  0  0  0  0
    4.8129   -3.5260    1.4445 O   0  0  0  0  0  0  0  0  0  0  0  0
    5.6149   -3.7689    0.3031 C   0  0  1  0  0  0  0  0  0  0  0  0
    5.6138   -2.4617   -0.5120 C   0  0  0  0  0  0  0  0  0  0  0  0
    7.0131   -4.0635    0.8702 C   0  0  0  0  0  0  0  0  0  0  0  0
    6.9910   -5.0870    2.0119 C   0  0  0  0  0  0  0  0  0  0  0  0
    6.1628   -6.3073    1.6197 C   0  0  2  0  0  0  0  0  0  0  0  0
    4.6248   -6.0083    1.4539 C   0  0  1  0  0  0  0  0  0  0  0  0
    4.4501   -6.0271    0.0531 O   0  0  0  0  0  0  0  0  0  0  0  0
    5.1273   -4.7921   -0.6097 O   0  0  0  0  0  0  0  0  0  0  0  0
    8.3172   -8.1273    1.3802 H   0  0  0  0  0  0  0  0  0  0  0  0
    8.0701   -9.0110    2.8887 H   0  0  0  0  0  0  0  0  0  0  0  0
    8.5749   -7.3361    2.9400 H   0  0  0  0  0  0  0  0  0  0  0  0
    6.2021   -7.4960    3.4433 H   0  0  0  0  0  0  0  0  0  0  0  0
    6.0527   -9.1881    0.8985 H   0  0  0  0  0  0  0  0  0  0  0  0
    5.6731   -9.6467    2.5279 H   0  0  0  0  0  0  0  0  0  0  0  0
    3.9020   -8.5371    0.5209 H   0  0  0  0  0  0  0  0  0  0  0  0
    3.5252   -9.2777    2.0611 H   0  0  0  0  0  0  0  0  0  0  0  0
    4.1094   -7.1950    3.1966 H   0  0  0  0  0  0  0  0  0  0  0  0
    1.9871   -6.2816    1.3139 H   0  0  0  0  0  0  0  0  0  0  0  0
    1.4028   -9.4458    2.1304 H   0  0  0  0  0  0  0  0  0  0  0  0
   -0.7353  -10.2021    3.1507 H   0  0  0  0  0  0  0  0  0  0  0  0
   -2.1812   -8.6270    4.3563 H   0  0  0  0  0  0  0  0  0  0  0  0
   -1.5049   -6.2595    4.6733 H   0  0  0  0  0  0  0  0  0  0  0  0
    0.6030   -4.4730    2.9053 H   0  0  0  0  0  0  0  0  0  0  0  0
    0.8692   -4.6781    4.6488 H   0  0  0  0  0  0  0  0  0  0  0  0
    2.8211   -5.8994    4.2598 H   0  0  0  0  0  0  0  0  0  0  0  0
    3.1706   -4.4216    1.0819 H   0  0  0  0  0  0  0  0  0  0  0  0
    4.6098   -2.2326   -0.8712 H   0  0  0  0  0  0  0  0  0  0  0  0
    6.2664   -2.5439   -1.3806 H   0  0  0  0  0  0  0  0  0  0  0  0
    5.9464   -1.6092    0.0838 H   0  0  0  0  0  0  0  0  0  0  0  0
    7.6635   -4.3969    0.0638 H   0  0  0  0  0  0  0  0  0  0  0  0
    7.4496   -3.1427    1.2562 H   0  0  0  0  0  0  0  0  0  0  0  0
    8.0209   -5.3492    2.2324 H   0  0  0  0  0  0  0  0  0  0  0  0
    6.5858   -4.6586    2.9259 H   0  0  0  0  0  0  0  0  0  0  0  0
    6.5354   -6.5535    0.6236 H   0  0  0  0  0  0  0  0  0  0  0  0
  1  2  1  0
  1 26  1  0
  1 27  1  0
  1 28  1  0
  2 22  1  0
  2  3  1  0
  2 29  1  1
  3  4  1  0
  3 30  1  0
  3 31  1  0
  4  5  1  0
  4 32  1  0
  4 33  1  0
  5 23  1  0
  5  6  1  0
  5 34  1  1
  6 14  1  0
  6  7  1  0
  6 35  1  6
  7 12  2  0
  7  8  1  0
  8  9  2  0
  8 36  1  0
  9 10  1  0
  9 37  1  0
 10 11  2  0
 10 38  1  0
 11 12  1  0
 11 39  1  0
 12 13  1  0
 13 14  1  0
 13 40  1  0
 13 41  1  0
 14 15  1  0
 14 42  1  1
 15 16  1  0
 16 23  1  0
 16 17  1  0
 16 43  1  6
 17 18  1  0
 18 25  1  0
 18 19  1  6
 18 20  1  0
 19 44  1  0
 19 45  1  0
 19 46  1  0
 20 21  1  0
 20 47  1  0
 20 48  1  0
 21 22  1  0
 21 49  1  0
 21 50  1  0
 22 23  1  0
 22 51  1  6
 23 24  1  6
 24 25  1  0
M  END
>  <i_m_ct_stereo_status>  (133) 
1

>  <s_m_source_file>  (133) 
/var/tmp/pbs.5076255.sched01/tmp7dp07en1/447ppmqug5.sdf

>  <i_m_source_file_index>  (133) 
12

>  <i_lp_mmshare_version>  (133) 
48012

>  <i_f3d_flags>  (133) 
0

>  <s_epik_input>  (133) 
W0NIMl0xW0NIMl1bQ0BASF0oW0NIM10pW0NAQEhdMltDSDJdW0NIMl1bQ0BAXShbQ0gzXSkoT08zKU9bQ0BASF00T1tDQEhdNVtDSDJdYyhjNltDQEBIXTVbQ0BASF0xW0NAQF0yMzQpW2NIXVtjSF1bY0hdW2NIXTY=

>  <s_epik_cmdline>  (133) 
J2VwaWtfcHl0aG9uJywgJy1waHQnLCAnMi4wJywgJy1waCcsICc3LjAnLCAnLXRuJywgJzgnLCAnLW1hJywgJzIwMCcsICctaW1hZScsICc8aW5maWxlLm1hZT4nLCAnLW9tYWUnLCAnPG91dGZpbGUubWFlPic=

>  <r_lp_tautomer_probability>  (133) 
1

>  <r_epik_Ionization_Penalty>  (133) 
6.44636e-15

>  <r_epik_Ionization_Penalty_Charging>  (133) 
0

>  <r_epik_Ionization_Penalty_Neutral>  (133) 
6.44636e-15

>  <r_epik_State_Penalty>  (133) 
-0

>  <r_epik_Charging_Adjusted_Penalty>  (133) 
0

>  <i_epik_Tot_Q>  (133) 
0

>  <i_epik_Tot_abs_Q>  (133) 
0

>  <s_epik_Chemistry_Notes>  (133) 
This compound contains an acetal/aminal-like group ( X-CH(R)-Y where X, Y are N, S, or O) that may be acid/base labile, releasing an aldehyde.

>  <s_lp_Force_Field>  (133) 
OPLS3e

>  <r_lp_Energy>  (133) 
91.404

>  <b_lp_Chiralities_Consistent>  (133) 
1

>  <s_lp_Variant>  (133) 
40:0-1

>  <s_i_glide_gridfile>  (133) 
pfpi4k_grid

>  <i_i_glide_lignum>  (133) 
12

>  <i_i_glide_rotatable_bonds>  (133) 
0

>  <r_i_docking_score>  (133) 
-2.80058

>  <r_i_glide_ligand_efficiency>  (133) 
-0.112023

>  <r_i_glide_ligand_efficiency_sa>  (133) 
-0.327558

>  <r_i_glide_ligand_efficiency_ln>  (133) 
-0.663821

>  <r_i_glide_gscore>  (133) 
-2.80058

>  <r_i_glide_lipo>  (133) 
-0.367888

>  <r_i_glide_hbond>  (133) 
0

>  <r_i_glide_metal>  (133) 
-0

>  <r_i_glide_rewards>  (133) 
-1.17253

>  <r_i_glide_evdw>  (133) 
-25.4998

>  <r_i_glide_ecoul>  (133) 
0.0988437

>  <r_i_glide_erotb>  (133) 
0

>  <r_i_glide_esite>  (133) 
0

>  <r_i_glide_emodel>  (133) 
-29.4982

>  <r_i_glide_energy>  (133) 
-25.4009

>  <r_i_glide_einternal>  (133) 
0

>  <r_i_glide_intrahb_reward>  (133) 
-0

>  <i_i_glide_confnum>  (133) 
2

>  <i_i_glide_posenum>  (133) 
37

>  <r_i_glide_eff_state_penalty>  (133) 
0

>  <ligand_id>  (133) 
40

>  <original_smiles>  (133) 
CC1CCC2C3c4ccccc4CC3OC3OC4(C)CCC1C32OO4

>  <smiles>  (133) 
[H]c1c([H])c([H])c2c(c1[H])C([H])([H])C1([H])OC3([H])OC4(C([H])([H])[H])OOC35C([H])(C([H])([H])C([H])([H])C([H])(C([H])([H])[H])C5([H])C([H])([H])C4([H])[H])C21[H]

$$$$
42:0:0
     RDKit          3D

 58 62  0  0  1  0  0  0  0  0999 V2000
    8.7410   -4.7398    0.6140 C   0  0  0  0  0  0  0  0  0  0  0  0
    7.2643   -4.3283    0.5629 C   0  0  0  0  0  0  0  0  0  0  0  0
    6.4081   -4.8839    1.4920 C   0  0  0  0  0  0  0  0  0  0  0  0
    6.8010   -5.8881    2.5773 C   0  0  0  0  0  0  0  0  0  0  0  0
    5.6187   -6.7275    3.0849 C   0  0  0  0  0  0  0  0  0  0  0  0
    5.7148   -7.9277    3.2400 O   0  0  0  0  0  0  0  0  0  0  0  0
    4.3553   -5.9643    3.4844 C   0  0  0  0  0  0  0  0  0  0  0  0
    3.9375   -5.0245    2.3730 C   0  0  0  0  0  0  0  0  0  0  0  0
    2.7044   -4.5222    2.1742 C   0  0  0  0  0  0  0  0  0  0  0  0
    2.4377   -3.3640    1.1584 C   0  0  0  0  0  0  0  0  0  0  0  0
    3.6837   -2.5352    0.6171 C   0  0  2  0  0  0  0  0  0  0  0  0
    3.3801   -1.1533    0.7338 O   0  0  0  0  0  0  0  0  0  0  0  0
    4.0797   -2.7900   -0.8837 C   0  0  1  0  0  0  0  0  0  0  0  0
    3.2702   -1.9484   -1.8830 C   0  0  0  0  0  0  0  0  0  0  0  0
    3.2453   -2.5272   -3.2813 C   0  0  2  0  0  0  0  0  0  0  0  0
    2.5139   -3.6228   -3.3555 F   0  0  0  0  0  0  0  0  0  0  0  0
    4.6489   -2.7901   -3.7339 C   0  0  0  0  0  0  0  0  0  0  0  0
    5.5779   -3.5195   -2.7512 C   0  0  0  0  0  0  0  0  0  0  0  0
    5.6091   -2.8715   -1.3418 C   0  0  2  0  0  0  0  0  0  0  0  0
    6.9418   -3.1160   -0.4315 C   0  0  2  0  0  0  0  0  0  0  0  0
    8.1425   -2.9346   -1.4118 C   0  0  0  0  0  0  0  0  0  0  0  0
    7.0084   -1.8819    0.4711 C   0  0  0  0  0  0  0  0  0  0  0  0
    6.0742   -1.9965    1.6525 C   0  0  1  0  0  0  0  0  0  0  0  0
    5.7883   -0.6789    2.0763 O   0  0  0  0  0  0  0  0  0  0  0  0
    4.8258   -2.9320    1.5170 C   0  0  1  0  0  0  0  0  0  0  0  0
    4.4449   -2.6715    2.7833 F   0  0  0  0  0  0  0  0  0  0  0  0
    4.9685   -4.5145    1.3824 C   0  0  1  0  0  0  0  0  0  0  0  0
    4.5833   -5.4586    0.1734 C   0  0  0  0  0  0  0  0  0  0  0  0
    9.0452   -5.1953   -0.3324 H   0  0  0  0  0  0  0  0  0  0  0  0
    8.9911   -5.4549    1.3931 H   0  0  0  0  0  0  0  0  0  0  0  0
    9.3752   -3.8728    0.8281 H   0  0  0  0  0  0  0  0  0  0  0  0
    7.5659   -6.5943    2.2347 H   0  0  0  0  0  0  0  0  0  0  0  0
    7.2047   -5.3455    3.4326 H   0  0  0  0  0  0  0  0  0  0  0  0
    3.5518   -6.6568    3.7519 H   0  0  0  0  0  0  0  0  0  0  0  0
    4.5983   -5.3647    4.3626 H   0  0  0  0  0  0  0  0  0  0  0  0
    1.8718   -4.8071    2.8130 H   0  0  0  0  0  0  0  0  0  0  0  0
    1.8679   -3.7640    0.3203 H   0  0  0  0  0  0  0  0  0  0  0  0
    1.7798   -2.6722    1.6867 H   0  0  0  0  0  0  0  0  0  0  0  0
    2.5562   -0.9963    0.2669 H   0  0  0  0  0  0  0  0  0  0  0  0
    3.6423   -3.7347   -1.1322 H   0  0  0  0  0  0  0  0  0  0  0  0
    2.2294   -1.9749   -1.5953 H   0  0  0  0  0  0  0  0  0  0  0  0
    3.6218   -0.9155   -1.9133 H   0  0  0  0  0  0  0  0  0  0  0  0
    2.7563   -1.8432   -3.9669 H   0  0  0  0  0  0  0  0  0  0  0  0
    4.6067   -3.3701   -4.6452 H   0  0  0  0  0  0  0  0  0  0  0  0
    5.0659   -1.8108   -3.9297 H   0  0  0  0  0  0  0  0  0  0  0  0
    5.2500   -4.5524   -2.7020 H   0  0  0  0  0  0  0  0  0  0  0  0
    6.5630   -3.5381   -3.2142 H   0  0  0  0  0  0  0  0  0  0  0  0
    5.7655   -1.8349   -1.6284 H   0  0  0  0  0  0  0  0  0  0  0  0
    7.9649   -2.1422   -2.1307 H   0  0  0  0  0  0  0  0  0  0  0  0
    8.3566   -3.8336   -1.9926 H   0  0  0  0  0  0  0  0  0  0  0  0
    9.0596   -2.6534   -0.9028 H   0  0  0  0  0  0  0  0  0  0  0  0
    8.0113   -1.7482    0.8711 H   0  0  0  0  0  0  0  0  0  0  0  0
    6.8073   -0.9614   -0.0843 H   0  0  0  0  0  0  0  0  0  0  0  0
    6.6227   -2.4273    2.4749 H   0  0  0  0  0  0  0  0  0  0  0  0
    5.0822   -0.3455    1.5166 H   0  0  0  0  0  0  0  0  0  0  0  0
    4.7845   -6.5000    0.4207 H   0  0  0  0  0  0  0  0  0  0  0  0
    5.1643   -5.3020   -0.7231 H   0  0  0  0  0  0  0  0  0  0  0  0
    3.5290   -5.4735   -0.0884 H   0  0  0  0  0  0  0  0  0  0  0  0
  1  2  1  0
  1 29  1  0
  1 30  1  0
  1 31  1  0
  2 20  1  0
  2  3  2  0
  3 27  1  0
  3  4  1  0
  4  5  1  0
  4 32  1  0
  4 33  1  0
  5  6  2  0
  5  7  1  0
  7  8  1  0
  7 34  1  0
  7 35  1  0
  8 27  1  0
  8  9  2  0
  9 10  1  0
  9 36  1  0
 10 11  1  0
 10 37  1  0
 10 38  1  0
 11 25  1  0
 11 12  1  6
 11 13  1  0
 12 39  1  0
 13 19  1  0
 13 14  1  0
 13 40  1  6
 14 15  1  0
 14 41  1  0
 14 42  1  0
 15 16  1  0
 15 17  1  0
 15 43  1  6
 17 18  1  0
 17 44  1  0
 17 45  1  0
 18 19  1  0
 18 46  1  0
 18 47  1  0
 19 20  1  0
 19 48  1  6
 20 21  1  6
 20 22  1  0
 21 49  1  0
 21 50  1  0
 21 51  1  0
 22 23  1  0
 22 52  1  0
 22 53  1  0
 23 24  1  0
 23 25  1  0
 23 54  1  1
 24 55  1  0
 25 26  1  1
 25 27  1  0
 27 28  1  6
 28 56  1  0
 28 57  1  0
 28 58  1  0
M  END
>  <i_m_ct_stereo_status>  (134) 
1

>  <s_m_source_file>  (134) 
/var/tmp/pbs.5076255.sched01/tmp7dp07en1/447ppmqug5.sdf

>  <i_m_source_file_index>  (134) 
14

>  <i_lp_mmshare_version>  (134) 
48012

>  <i_f3d_flags>  (134) 
0

>  <s_epik_input>  (134) 
W0NIMl0xW0NASF0oRilbQ0gyXVtDSDJdW0NAQEhdKFtDQEhdMVtDQEBdMjNbT0hdKVtDQF00KFtDSDNdKUMoW0NIM10pPUM1W0NAXShbQ0gzXSkoW0NAQF0zKEYpW0NAQEhdKFtDSDJdNClbT0hdKUMoPVtDSF1bQ0gyXTIpW0NIMl1DKD1PKVtDSDJdNQ==

>  <s_epik_cmdline>  (134) 
J2VwaWtfcHl0aG9uJywgJy1waHQnLCAnMi4wJywgJy1waCcsICc3LjAnLCAnLXRuJywgJzgnLCAnLW1hJywgJzIwMCcsICctaW1hZScsICc8aW5maWxlLm1hZT4nLCAnLW9tYWUnLCAnPG91dGZpbGUubWFlPic=

>  <r_lp_tautomer_probability>  (134) 
1

>  <r_epik_Ionization_Penalty>  (134) 
4.07506e-07

>  <r_epik_Ionization_Penalty_Charging>  (134) 
0

>  <r_epik_Ionization_Penalty_Neutral>  (134) 
4.07506e-07

>  <r_epik_State_Penalty>  (134) 
-0

>  <r_epik_Charging_Adjusted_Penalty>  (134) 
0

>  <i_epik_Tot_Q>  (134) 
0

>  <i_epik_Tot_abs_Q>  (134) 
0

>  <s_lp_Force_Field>  (134) 
OPLS3e

>  <r_lp_Energy>  (134) 
172.384

>  <b_lp_Chiralities_Consistent>  (134) 
1

>  <s_lp_Variant>  (134) 
42:0-1

>  <s_i_glide_gridfile>  (134) 
pfpi4k_grid

>  <i_i_glide_lignum>  (134) 
14

>  <i_i_glide_rotatable_bonds>  (134) 
2

>  <r_i_docking_score>  (134) 
-3.86194

>  <r_i_glide_ligand_efficiency>  (134) 
-0.137926

>  <r_i_glide_ligand_efficiency_sa>  (134) 
-0.418826

>  <r_i_glide_ligand_efficiency_ln>  (134) 
-0.891449

>  <r_i_glide_gscore>  (134) 
-3.86194

>  <r_i_glide_lipo>  (134) 
-1.01098

>  <r_i_glide_hbond>  (134) 
0

>  <r_i_glide_metal>  (134) 
-0

>  <r_i_glide_rewards>  (134) 
-1.44727

>  <r_i_glide_evdw>  (134) 
-25.5971

>  <r_i_glide_ecoul>  (134) 
-0.825522

>  <r_i_glide_erotb>  (134) 
0

>  <r_i_glide_esite>  (134) 
0

>  <r_i_glide_emodel>  (134) 
-37.1455

>  <r_i_glide_energy>  (134) 
-26.4227

>  <r_i_glide_einternal>  (134) 
0.0674793

>  <r_i_glide_intrahb_reward>  (134) 
-0.5

>  <i_i_glide_confnum>  (134) 
2

>  <i_i_glide_posenum>  (134) 
7

>  <r_i_glide_eff_state_penalty>  (134) 
0

>  <ligand_id>  (134) 
42

>  <original_smiles>  (134) 
CC1=C2CC(=O)CC3=CCC4(O)C5CC(F)CCC5C1(C)CC(O)C4(F)C32C

>  <smiles>  (134) 
[H]OC1([H])C([H])([H])C2(C([H])([H])[H])C(C([H])([H])[H])=C3C([H])([H])C(=O)C([H])([H])C4=C([H])C([H])([H])C(O[H])(C5([H])C([H])([H])C([H])(F)C([H])([H])C([H])([H])C52[H])C1(F)C43C([H])([H])[H]

$$$$
42:0:1
     RDKit          3D

 58 62  0  0  1  0  0  0  0  0999 V2000
    8.7174   -4.7004    0.6823 C   0  0  0  0  0  0  0  0  0  0  0  0
    7.2420   -4.2953    0.6034 C   0  0  0  0  0  0  0  0  0  0  0  0
    6.3758   -4.8300    1.5307 C   0  0  0  0  0  0  0  0  0  0  0  0
    6.7529   -5.8149    2.6476 C   0  0  0  0  0  0  0  0  0  0  0  0
    5.5677   -6.6306    3.1698 C   0  0  0  0  0  0  0  0  0  0  0  0
    5.6591   -7.8417    3.3529 O   0  0  0  0  0  0  0  0  0  0  0  0
    4.3036   -5.8633    3.5377 C   0  0  0  0  0  0  0  0  0  0  0  0
    3.9015   -4.9395    2.4020 C   0  0  0  0  0  0  0  0  0  0  0  0
    2.6650   -4.4362    2.1877 C   0  0  0  0  0  0  0  0  0  0  0  0
    2.4175   -3.3063    1.1440 C   0  0  0  0  0  0  0  0  0  0  0  0
    3.6662   -2.4805    0.6120 C   0  0  2  0  0  0  0  0  0  0  0  0
    3.3120   -1.1089    0.7131 O   0  0  0  0  0  0  0  0  0  0  0  0
    4.0698   -2.7633   -0.8884 C   0  0  1  0  0  0  0  0  0  0  0  0
    3.2643   -1.9415   -1.9187 C   0  0  0  0  0  0  0  0  0  0  0  0
    3.2588   -2.5554   -3.3089 C   0  0  2  0  0  0  0  0  0  0  0  0
    2.5372   -3.6615   -3.3593 F   0  0  0  0  0  0  0  0  0  0  0  0
    4.6691   -2.8281   -3.7442 C   0  0  0  0  0  0  0  0  0  0  0  0
    5.5827   -3.5435   -2.7345 C   0  0  0  0  0  0  0  0  0  0  0  0
    5.5995   -2.8637   -1.3375 C   0  0  2  0  0  0  0  0  0  0  0  0
    6.9319   -3.0903   -0.4112 C   0  0  2  0  0  0  0  0  0  0  0  0
    8.1388   -2.9303   -1.3880 C   0  0  0  0  0  0  0  0  0  0  0  0
    6.9988   -1.8446    0.4658 C   0  0  0  0  0  0  0  0  0  0  0  0
    6.0639   -1.9384    1.6467 C   0  0  1  0  0  0  0  0  0  0  0  0
    5.8182   -0.6091    2.0540 O   0  0  0  0  0  0  0  0  0  0  0  0
    4.8028   -2.8546    1.5314 C   0  0  1  0  0  0  0  0  0  0  0  0
    4.4164   -2.5728    2.7937 F   0  0  0  0  0  0  0  0  0  0  0  0
    4.9399   -4.4515    1.4153 C   0  0  1  0  0  0  0  0  0  0  0  0
    4.5601   -5.4127    0.2202 C   0  0  0  0  0  0  0  0  0  0  0  0
    9.0303   -5.1765   -0.2504 H   0  0  0  0  0  0  0  0  0  0  0  0
    8.9583   -5.3986    1.4806 H   0  0  0  0  0  0  0  0  0  0  0  0
    9.3498   -3.8283    0.8827 H   0  0  0  0  0  0  0  0  0  0  0  0
    7.5256   -6.5178    2.3346 H   0  0  0  0  0  0  0  0  0  0  0  0
    7.1370   -5.2428    3.4937 H   0  0  0  0  0  0  0  0  0  0  0  0
    3.4953   -6.5393    3.8160 H   0  0  0  0  0  0  0  0  0  0  0  0
    4.5415   -5.2409    4.4020 H   0  0  0  0  0  0  0  0  0  0  0  0
    1.8289   -4.7127    2.8257 H   0  0  0  0  0  0  0  0  0  0  0  0
    1.8989   -3.7376    0.2910 H   0  0  0  0  0  0  0  0  0  0  0  0
    1.7261   -2.6164    1.6367 H   0  0  0  0  0  0  0  0  0  0  0  0
    2.4778   -0.9810    0.2589 H   0  0  0  0  0  0  0  0  0  0  0  0
    3.6307   -3.7148   -1.1269 H   0  0  0  0  0  0  0  0  0  0  0  0
    2.2203   -1.9445   -1.6472 H   0  0  0  0  0  0  0  0  0  0  0  0
    3.6199   -0.9085   -1.9603 H   0  0  0  0  0  0  0  0  0  0  0  0
    2.7715   -1.8871   -4.0162 H   0  0  0  0  0  0  0  0  0  0  0  0
    4.6527   -3.4049   -4.6614 H   0  0  0  0  0  0  0  0  0  0  0  0
    5.0988   -1.8499   -3.9359 H   0  0  0  0  0  0  0  0  0  0  0  0
    5.2599   -4.5805   -2.6726 H   0  0  0  0  0  0  0  0  0  0  0  0
    6.5709   -3.5680   -3.1882 H   0  0  0  0  0  0  0  0  0  0  0  0
    5.7627   -1.8314   -1.6457 H   0  0  0  0  0  0  0  0  0  0  0  0
    7.9671   -2.1478   -2.1215 H   0  0  0  0  0  0  0  0  0  0  0  0
    8.3533   -3.8399   -1.9510 H   0  0  0  0  0  0  0  0  0  0  0  0
    9.0555   -2.6432   -0.8804 H   0  0  0  0  0  0  0  0  0  0  0  0
    8.0034   -1.7039    0.8619 H   0  0  0  0  0  0  0  0  0  0  0  0
    6.7887   -0.9377   -0.1036 H   0  0  0  0  0  0  0  0  0  0  0  0
    6.6105   -2.3553    2.4828 H   0  0  0  0  0  0  0  0  0  0  0  0
    6.6512   -0.1499    2.0848 H   0  0  0  0  0  0  0  0  0  0  0  0
    4.7537   -6.4527    0.4847 H   0  0  0  0  0  0  0  0  0  0  0  0
    5.1440   -5.2802   -0.6782 H   0  0  0  0  0  0  0  0  0  0  0  0
    3.5071   -5.4359   -0.0538 H   0  0  0  0  0  0  0  0  0  0  0  0
  1  2  1  0
  1 29  1  0
  1 30  1  0
  1 31  1  0
  2 20  1  0
  2  3  2  0
  3 27  1  0
  3  4  1  0
  4  5  1  0
  4 32  1  0
  4 33  1  0
  5  6  2  0
  5  7  1  0
  7  8  1  0
  7 34  1  0
  7 35  1  0
  8 27  1  0
  8  9  2  0
  9 10  1  0
  9 36  1  0
 10 11  1  0
 10 37  1  0
 10 38  1  0
 11 25  1  0
 11 12  1  6
 11 13  1  0
 12 39  1  0
 13 19  1  0
 13 14  1  0
 13 40  1  6
 14 15  1  0
 14 41  1  0
 14 42  1  0
 15 16  1  0
 15 17  1  0
 15 43  1  6
 17 18  1  0
 17 44  1  0
 17 45  1  0
 18 19  1  0
 18 46  1  0
 18 47  1  0
 19 20  1  0
 19 48  1  6
 20 21  1  6
 20 22  1  0
 21 49  1  0
 21 50  1  0
 21 51  1  0
 22 23  1  0
 22 52  1  0
 22 53  1  0
 23 24  1  0
 23 25  1  0
 23 54  1  1
 24 55  1  0
 25 26  1  1
 25 27  1  0
 27 28  1  6
 28 56  1  0
 28 57  1  0
 28 58  1  0
M  END
>  <i_m_ct_stereo_status>  (135) 
1

>  <s_m_source_file>  (135) 
/var/tmp/pbs.5076255.sched01/tmp7dp07en1/447ppmqug5.sdf

>  <i_m_source_file_index>  (135) 
14

>  <i_lp_mmshare_version>  (135) 
48012

>  <i_f3d_flags>  (135) 
0

>  <s_epik_input>  (135) 
W0NIMl0xW0NASF0oRilbQ0gyXVtDSDJdW0NAQEhdKFtDQEhdMVtDQEBdMjNbT0hdKVtDQF00KFtDSDNdKUMoW0NIM10pPUM1W0NAXShbQ0gzXSkoW0NAQF0zKEYpW0NAQEhdKFtDSDJdNClbT0hdKUMoPVtDSF1bQ0gyXTIpW0NIMl1DKD1PKVtDSDJdNQ==

>  <s_epik_cmdline>  (135) 
J2VwaWtfcHl0aG9uJywgJy1waHQnLCAnMi4wJywgJy1waCcsICc3LjAnLCAnLXRuJywgJzgnLCAnLW1hJywgJzIwMCcsICctaW1hZScsICc8aW5maWxlLm1hZT4nLCAnLW9tYWUnLCAnPG91dGZpbGUubWFlPic=

>  <r_lp_tautomer_probability>  (135) 
1

>  <r_epik_Ionization_Penalty>  (135) 
4.07506e-07

>  <r_epik_Ionization_Penalty_Charging>  (135) 
0

>  <r_epik_Ionization_Penalty_Neutral>  (135) 
4.07506e-07

>  <r_epik_State_Penalty>  (135) 
-0

>  <r_epik_Charging_Adjusted_Penalty>  (135) 
0

>  <i_epik_Tot_Q>  (135) 
0

>  <i_epik_Tot_abs_Q>  (135) 
0

>  <s_lp_Force_Field>  (135) 
OPLS3e

>  <r_lp_Energy>  (135) 
172.384

>  <b_lp_Chiralities_Consistent>  (135) 
1

>  <s_lp_Variant>  (135) 
42:0-1

>  <s_i_glide_gridfile>  (135) 
pfpi4k_grid

>  <i_i_glide_lignum>  (135) 
14

>  <i_i_glide_rotatable_bonds>  (135) 
2

>  <r_i_docking_score>  (135) 
-3.58572

>  <r_i_glide_ligand_efficiency>  (135) 
-0.128061

>  <r_i_glide_ligand_efficiency_sa>  (135) 
-0.38887

>  <r_i_glide_ligand_efficiency_ln>  (135) 
-0.827689

>  <r_i_glide_gscore>  (135) 
-3.58572

>  <r_i_glide_lipo>  (135) 
-1.0121

>  <r_i_glide_hbond>  (135) 
0

>  <r_i_glide_metal>  (135) 
-0

>  <r_i_glide_rewards>  (135) 
-0.9287

>  <r_i_glide_evdw>  (135) 
-24.5433

>  <r_i_glide_ecoul>  (135) 
-2.785

>  <r_i_glide_erotb>  (135) 
0

>  <r_i_glide_esite>  (135) 
0

>  <r_i_glide_emodel>  (135) 
-32.5782

>  <r_i_glide_energy>  (135) 
-27.3283

>  <r_i_glide_einternal>  (135) 
0.533102

>  <r_i_glide_intrahb_reward>  (135) 
-0

>  <i_i_glide_confnum>  (135) 
2

>  <i_i_glide_posenum>  (135) 
24

>  <r_i_glide_eff_state_penalty>  (135) 
0

>  <ligand_id>  (135) 
42

>  <original_smiles>  (135) 
CC1=C2CC(=O)CC3=CCC4(O)C5CC(F)CCC5C1(C)CC(O)C4(F)C32C

>  <smiles>  (135) 
[H]OC1([H])C([H])([H])C2(C([H])([H])[H])C(C([H])([H])[H])=C3C([H])([H])C(=O)C([H])([H])C4=C([H])C([H])([H])C(O[H])(C5([H])C([H])([H])C([H])(F)C([H])([H])C([H])([H])C52[H])C1(F)C43C([H])([H])[H]

$$$$
42:0:2
     RDKit          3D

 58 62  0  0  1  0  0  0  0  0999 V2000
    2.3527   -3.5697    6.9981 C   0  0  0  0  0  0  0  0  0  0  0  0
    2.5103   -2.8433    5.6569 C   0  0  0  0  0  0  0  0  0  0  0  0
    1.7623   -1.7159    5.4352 C   0  0  0  0  0  0  0  0  0  0  0  0
    0.7482   -1.0938    6.4144 C   0  0  0  0  0  0  0  0  0  0  0  0
   -0.3065   -0.2068    5.7471 C   0  0  0  0  0  0  0  0  0  0  0  0
   -1.4973   -0.3088    6.0383 O   0  0  0  0  0  0  0  0  0  0  0  0
    0.1951    0.8487    4.7643 C   0  0  0  0  0  0  0  0  0  0  0  0
    1.1490    0.2319    3.7531 C   0  0  0  0  0  0  0  0  0  0  0  0
    1.4649    0.7516    2.5327 C   0  0  0  0  0  0  0  0  0  0  0  0
    2.6393    0.1763    1.6800 C   0  0  0  0  0  0  0  0  0  0  0  0
    3.7007   -0.7682    2.4265 C   0  0  2  0  0  0  0  0  0  0  0  0
    5.0067   -0.3025    2.1062 O   0  0  0  0  0  0  0  0  0  0  0  0
    3.6370   -2.2974    2.0342 C   0  0  1  0  0  0  0  0  0  0  0  0
    4.4154   -2.6314    0.7343 C   0  0  0  0  0  0  0  0  0  0  0  0
    3.9307   -3.9577    0.1208 C   0  0  2  0  0  0  0  0  0  0  0  0
    2.6811   -3.8321   -0.3315 F   0  0  0  0  0  0  0  0  0  0  0  0
    3.9956   -5.1054    1.1408 C   0  0  0  0  0  0  0  0  0  0  0  0
    3.2958   -4.7882    2.4800 C   0  0  0  0  0  0  0  0  0  0  0  0
    3.8307   -3.4652    3.1231 C   0  0  2  0  0  0  0  0  0  0  0  0
    3.7453   -3.3602    4.7613 C   0  0  2  0  0  0  0  0  0  0  0  0
    4.2117   -4.7555    5.2836 C   0  0  0  0  0  0  0  0  0  0  0  0
    4.8970   -2.4309    5.1493 C   0  0  0  0  0  0  0  0  0  0  0  0
    4.5274   -0.9669    4.9825 C   0  0  1  0  0  0  0  0  0  0  0  0
    5.7478   -0.2563    4.8318 O   0  0  0  0  0  0  0  0  0  0  0  0
    3.4325   -0.6014    3.9124 C   0  0  1  0  0  0  0  0  0  0  0  0
    3.5237    0.7138    4.1908 F   0  0  0  0  0  0  0  0  0  0  0  0
    1.9051   -1.0304    4.1151 C   0  0  1  0  0  0  0  0  0  0  0  0
    1.0215   -2.0347    3.2772 C   0  0  0  0  0  0  0  0  0  0  0  0
    2.0371   -4.6033    6.8422 H   0  0  0  0  0  0  0  0  0  0  0  0
    1.6233   -3.1237    7.6686 H   0  0  0  0  0  0  0  0  0  0  0  0
    3.2898   -3.5621    7.5596 H   0  0  0  0  0  0  0  0  0  0  0  0
    0.2175   -1.8634    6.9712 H   0  0  0  0  0  0  0  0  0  0  0  0
    1.2927   -0.4702    7.1280 H   0  0  0  0  0  0  0  0  0  0  0  0
   -0.6241    1.3692    4.2708 H   0  0  0  0  0  0  0  0  0  0  0  0
    0.7582    1.5800    5.3461 H   0  0  0  0  0  0  0  0  0  0  0  0
    0.9841    1.6460    2.1620 H   0  0  0  0  0  0  0  0  0  0  0  0
    2.2198   -0.3192    0.8059 H   0  0  0  0  0  0  0  0  0  0  0  0
    3.1580    1.0575    1.3000 H   0  0  0  0  0  0  0  0  0  0  0  0
    5.0846   -0.3152    1.1616 H   0  0  0  0  0  0  0  0  0  0  0  0
    2.6556   -2.4330    1.6190 H   0  0  0  0  0  0  0  0  0  0  0  0
    4.2869   -1.8344   -0.0029 H   0  0  0  0  0  0  0  0  0  0  0  0
    5.4879   -2.6972    0.9329 H   0  0  0  0  0  0  0  0  0  0  0  0
    4.5360   -4.2102   -0.7494 H   0  0  0  0  0  0  0  0  0  0  0  0
    3.5454   -5.9951    0.7012 H   0  0  0  0  0  0  0  0  0  0  0  0
    5.0431   -5.3602    1.3310 H   0  0  0  0  0  0  0  0  0  0  0  0
    2.2254   -4.7460    2.3081 H   0  0  0  0  0  0  0  0  0  0  0  0
    3.4565   -5.6643    3.1058 H   0  0  0  0  0  0  0  0  0  0  0  0
    4.9034   -3.6333    3.0092 H   0  0  0  0  0  0  0  0  0  0  0  0
    5.0490   -5.1384    4.6978 H   0  0  0  0  0  0  0  0  0  0  0  0
    3.4113   -5.4955    5.2446 H   0  0  0  0  0  0  0  0  0  0  0  0
    4.5776   -4.7426    6.3092 H   0  0  0  0  0  0  0  0  0  0  0  0
    5.1568   -2.5676    6.2007 H   0  0  0  0  0  0  0  0  0  0  0  0
    5.8119   -2.6681    4.6010 H   0  0  0  0  0  0  0  0  0  0  0  0
    4.1500   -0.6251    5.9503 H   0  0  0  0  0  0  0  0  0  0  0  0
    6.0263   -0.3801    3.9309 H   0  0  0  0  0  0  0  0  0  0  0  0
    0.0083   -2.0770    3.6760 H   0  0  0  0  0  0  0  0  0  0  0  0
    1.3401   -3.0679    3.3049 H   0  0  0  0  0  0  0  0  0  0  0  0
    0.8602   -1.7537    2.2382 H   0  0  0  0  0  0  0  0  0  0  0  0
  1  2  1  0
  1 29  1  0
  1 30  1  0
  1 31  1  0
  2 20  1  0
  2  3  2  0
  3 27  1  0
  3  4  1  0
  4  5  1  0
  4 32  1  0
  4 33  1  0
  5  6  2  0
  5  7  1  0
  7  8  1  0
  7 34  1  0
  7 35  1  0
  8 27  1  0
  8  9  2  0
  9 10  1  0
  9 36  1  0
 10 11  1  0
 10 37  1  0
 10 38  1  0
 11 25  1  0
 11 12  1  1
 11 13  1  0
 12 39  1  0
 13 19  1  0
 13 14  1  0
 13 40  1  6
 14 15  1  0
 14 41  1  0
 14 42  1  0
 15 16  1  0
 15 17  1  0
 15 43  1  6
 17 18  1  0
 17 44  1  0
 17 45  1  0
 18 19  1  0
 18 46  1  0
 18 47  1  0
 19 20  1  0
 19 48  1  1
 20 21  1  1
 20 22  1  0
 21 49  1  0
 21 50  1  0
 21 51  1  0
 22 23  1  0
 22 52  1  0
 22 53  1  0
 23 24  1  0
 23 25  1  0
 23 54  1  1
 24 55  1  0
 25 26  1  6
 25 27  1  0
 27 28  1  6
 28 56  1  0
 28 57  1  0
 28 58  1  0
M  END
>  <i_m_ct_stereo_status>  (136) 
1

>  <s_m_source_file>  (136) 
/var/tmp/pbs.5076255.sched01/tmp7dp07en1/447ppmqug5.sdf

>  <i_m_source_file_index>  (136) 
14

>  <i_lp_mmshare_version>  (136) 
48012

>  <i_f3d_flags>  (136) 
0

>  <s_epik_input>  (136) 
W0NIMl0xW0NASF0oRilbQ0gyXVtDSDJdW0NAQEhdKFtDQEhdMVtDQEBdMjNbT0hdKVtDQF00KFtDSDNdKUMoW0NIM10pPUM1W0NAXShbQ0gzXSkoW0NAQF0zKEYpW0NAQEhdKFtDSDJdNClbT0hdKUMoPVtDSF1bQ0gyXTIpW0NIMl1DKD1PKVtDSDJdNQ==

>  <s_epik_cmdline>  (136) 
J2VwaWtfcHl0aG9uJywgJy1waHQnLCAnMi4wJywgJy1waCcsICc3LjAnLCAnLXRuJywgJzgnLCAnLW1hJywgJzIwMCcsICctaW1hZScsICc8aW5maWxlLm1hZT4nLCAnLW9tYWUnLCAnPG91dGZpbGUubWFlPic=

>  <r_lp_tautomer_probability>  (136) 
1

>  <r_epik_Ionization_Penalty>  (136) 
4.07506e-07

>  <r_epik_Ionization_Penalty_Charging>  (136) 
0

>  <r_epik_Ionization_Penalty_Neutral>  (136) 
4.07506e-07

>  <r_epik_State_Penalty>  (136) 
-0

>  <r_epik_Charging_Adjusted_Penalty>  (136) 
0

>  <i_epik_Tot_Q>  (136) 
0

>  <i_epik_Tot_abs_Q>  (136) 
0

>  <s_lp_Force_Field>  (136) 
OPLS3e

>  <r_lp_Energy>  (136) 
172.384

>  <b_lp_Chiralities_Consistent>  (136) 
1

>  <s_lp_Variant>  (136) 
42:0-1

>  <s_i_glide_gridfile>  (136) 
pfpi4k_grid

>  <i_i_glide_lignum>  (136) 
14

>  <i_i_glide_rotatable_bonds>  (136) 
2

>  <r_i_docking_score>  (136) 
-3.12593

>  <r_i_glide_ligand_efficiency>  (136) 
-0.11164

>  <r_i_glide_ligand_efficiency_sa>  (136) 
-0.339006

>  <r_i_glide_ligand_efficiency_ln>  (136) 
-0.721556

>  <r_i_glide_gscore>  (136) 
-3.12593

>  <r_i_glide_lipo>  (136) 
-0.114326

>  <r_i_glide_hbond>  (136) 
-0.107802

>  <r_i_glide_metal>  (136) 
-0

>  <r_i_glide_rewards>  (136) 
-1.2331

>  <r_i_glide_evdw>  (136) 
-21.4017

>  <r_i_glide_ecoul>  (136) 
-3.57695

>  <r_i_glide_erotb>  (136) 
0

>  <r_i_glide_esite>  (136) 
-0.0640764

>  <r_i_glide_emodel>  (136) 
-34.7944

>  <r_i_glide_energy>  (136) 
-24.9787

>  <r_i_glide_einternal>  (136) 
0.0300039

>  <r_i_glide_intrahb_reward>  (136) 
-0.5

>  <i_i_glide_confnum>  (136) 
1

>  <i_i_glide_posenum>  (136) 
9

>  <r_i_glide_eff_state_penalty>  (136) 
0

>  <ligand_id>  (136) 
42

>  <original_smiles>  (136) 
CC1=C2CC(=O)CC3=CCC4(O)C5CC(F)CCC5C1(C)CC(O)C4(F)C32C

>  <smiles>  (136) 
[H]OC1([H])C([H])([H])C2(C([H])([H])[H])C(C([H])([H])[H])=C3C([H])([H])C(=O)C([H])([H])C4=C([H])C([H])([H])C(O[H])(C5([H])C([H])([H])C([H])(F)C([H])([H])C([H])([H])C52[H])C1(F)C43C([H])([H])[H]

$$$$
45:0:0
     RDKit          3D

 41 45  0  0  1  0  0  0  0  0999 V2000
   -4.3277  -13.1514   -7.3899 N   0  0  0  0  0  0  0  0  0  0  0  0
   -4.5843  -12.0808   -7.0234 C   0  0  0  0  0  0  0  0  0  0  0  0
   -4.9020  -10.7358   -6.5687 C   0  0  0  0  0  0  0  0  0  0  0  0
   -4.1519  -10.1368   -5.5359 C   0  0  0  0  0  0  0  0  0  0  0  0
   -4.4424   -8.8219   -5.1115 C   0  0  0  0  0  0  0  0  0  0  0  0
   -5.4972   -8.0835   -5.6822 C   0  0  0  0  0  0  0  0  0  0  0  0
   -6.0704   -6.7865   -5.4979 C   0  0  0  0  0  0  0  0  0  0  0  0
   -7.0679   -6.5965   -6.3218 N   0  0  0  0  0  0  0  0  0  0  0  0
   -7.1921   -7.7372   -7.0700 N   0  0  0  0  0  0  0  0  0  0  0  0
   -8.2324   -7.8126   -8.1115 C   0  0  2  0  0  0  0  0  0  0  0  0
   -7.5865   -7.9463   -9.5138 C   0  0  0  0  0  0  0  0  0  0  0  0
   -8.6784   -8.0320  -10.5965 C   0  0  1  0  0  0  0  0  0  0  0  0
   -9.5620   -9.2705  -10.3420 C   0  0  0  0  0  0  0  0  0  0  0  0
  -10.2378   -9.1350   -8.9646 C   0  0  2  0  0  0  0  0  0  0  0  0
  -11.1096   -7.8631   -8.9276 C   0  0  0  0  0  0  0  0  0  0  0  0
  -10.2149   -6.6360   -9.1892 C   0  0  2  0  0  0  0  0  0  0  0  0
  -10.9888   -5.4598   -9.1323 O   0  0  0  0  0  0  0  0  0  0  0  0
   -9.5325   -6.7458  -10.5667 C   0  0  0  0  0  0  0  0  0  0  0  0
   -9.1321   -6.5347   -8.1115 C   0  0  0  0  0  0  0  0  0  0  0  0
   -9.1452   -9.0522   -7.8857 C   0  0  0  0  0  0  0  0  0  0  0  0
   -6.2467   -8.6994   -6.7204 C   0  0  0  0  0  0  0  0  0  0  0  0
   -5.9481  -10.0072   -7.1699 C   0  0  0  0  0  0  0  0  0  0  0  0
   -3.3363  -10.6730   -5.0691 H   0  0  0  0  0  0  0  0  0  0  0  0
   -3.8612   -8.3738   -4.3237 H   0  0  0  0  0  0  0  0  0  0  0  0
   -5.7916   -6.0003   -4.8081 H   0  0  0  0  0  0  0  0  0  0  0  0
   -6.9448   -7.0906   -9.7179 H   0  0  0  0  0  0  0  0  0  0  0  0
   -6.9521   -8.8337   -9.5716 H   0  0  0  0  0  0  0  0  0  0  0  0
   -8.2029   -8.1155  -11.5716 H   0  0  0  0  0  0  0  0  0  0  0  0
  -10.3132   -9.3784  -11.1232 H   0  0  0  0  0  0  0  0  0  0  0  0
   -8.9510  -10.1750  -10.3665 H   0  0  0  0  0  0  0  0  0  0  0  0
  -10.8641  -10.0063   -8.7741 H   0  0  0  0  0  0  0  0  0  0  0  0
  -11.9011   -7.9282   -9.6740 H   0  0  0  0  0  0  0  0  0  0  0  0
  -11.5986   -7.7785   -7.9555 H   0  0  0  0  0  0  0  0  0  0  0  0
  -11.8417   -5.6536   -8.7524 H   0  0  0  0  0  0  0  0  0  0  0  0
   -8.8919   -5.8791  -10.7365 H   0  0  0  0  0  0  0  0  0  0  0  0
  -10.2726   -6.7602  -11.3653 H   0  0  0  0  0  0  0  0  0  0  0  0
   -9.6115   -6.3952   -7.1415 H   0  0  0  0  0  0  0  0  0  0  0  0
   -8.5287   -5.6416   -8.2957 H   0  0  0  0  0  0  0  0  0  0  0  0
   -8.5957   -9.9917   -7.8834 H   0  0  0  0  0  0  0  0  0  0  0  0
   -9.5942   -9.0025   -6.9049 H   0  0  0  0  0  0  0  0  0  0  0  0
   -6.5099  -10.4582   -7.9704 H   0  0  0  0  0  0  0  0  0  0  0  0
  1  2  3  0
  2  3  1  0
  3 22  1  0
  3  4  2  0
  4  5  1  0
  4 23  1  0
  5  6  2  0
  5 24  1  0
  6 21  1  0
  6  7  1  0
  7  8  2  0
  7 25  1  0
  8  9  1  0
 10  9  1  1
  9 21  1  0
 10 19  1  0
 10 20  1  0
 10 11  1  0
 11 12  1  0
 11 26  1  0
 11 27  1  0
 12 18  1  0
 12 13  1  0
 12 28  1  6
 13 14  1  0
 13 29  1  0
 13 30  1  0
 14 15  1  0
 14 20  1  0
 14 31  1  1
 15 16  1  0
 15 32  1  0
 15 33  1  0
 16 17  1  6
 16 18  1  0
 16 19  1  0
 17 34  1  0
 18 35  1  0
 18 36  1  0
 19 37  1  0
 19 38  1  0
 20 39  1  0
 20 40  1  0
 21 22  2  0
 22 41  1  0
M  END
>  <i_m_ct_stereo_status>  (137) 
1

>  <s_m_source_file>  (137) 
/var/tmp/pbs.5076255.sched01/tmp7dp07en1/447ppmqug5.sdf

>  <i_m_source_file_index>  (137) 
18

>  <i_lp_mmshare_version>  (137) 
48012

>  <i_f3d_flags>  (137) 
0

>  <s_epik_input>  (137) 
TiNDYyhbY0hdW2NIXTEpW2NIXWMoYzEyKW4obltjSF0yKVtDQF0zNFtDSDJdW0NASF01W0NIMl1bQ0BASF0oW0NIMl00KVtDSDJdW0NAXShbT0hdKShbQ0gyXTUpW0NIMl0z

>  <s_epik_cmdline>  (137) 
J2VwaWtfcHl0aG9uJywgJy1waHQnLCAnMi4wJywgJy1waCcsICc3LjAnLCAnLXRuJywgJzgnLCAnLW1hJywgJzIwMCcsICctaW1hZScsICc8aW5maWxlLm1hZT4nLCAnLW9tYWUnLCAnPG91dGZpbGUubWFlPic=

>  <r_lp_tautomer_probability>  (137) 
1

>  <r_epik_Ionization_Penalty>  (137) 
2.26684e-06

>  <r_epik_Ionization_Penalty_Charging>  (137) 
0

>  <r_epik_Ionization_Penalty_Neutral>  (137) 
2.26684e-06

>  <r_epik_State_Penalty>  (137) 
-0

>  <r_epik_Charging_Adjusted_Penalty>  (137) 
0

>  <i_epik_Tot_Q>  (137) 
0

>  <i_epik_Tot_abs_Q>  (137) 
0

>  <s_lp_Force_Field>  (137) 
OPLS3e

>  <r_lp_Energy>  (137) 
3.62042

>  <b_lp_Chiralities_Consistent>  (137) 
1

>  <s_lp_Variant>  (137) 
45:0-1

>  <s_i_glide_gridfile>  (137) 
pfpi4k_grid

>  <i_i_glide_lignum>  (137) 
18

>  <i_i_glide_rotatable_bonds>  (137) 
3

>  <r_i_docking_score>  (137) 
-6.5275

>  <r_i_glide_ligand_efficiency>  (137) 
-0.296705

>  <r_i_glide_ligand_efficiency_sa>  (137) 
-0.831378

>  <r_i_glide_ligand_efficiency_ln>  (137) 
-1.59556

>  <r_i_glide_gscore>  (137) 
-6.5275

>  <r_i_glide_lipo>  (137) 
-2.07948

>  <r_i_glide_hbond>  (137) 
-0.265484

>  <r_i_glide_metal>  (137) 
-0

>  <r_i_glide_rewards>  (137) 
-1.97845

>  <r_i_glide_evdw>  (137) 
-29.5202

>  <r_i_glide_ecoul>  (137) 
-5.72509

>  <r_i_glide_erotb>  (137) 
0.148616

>  <r_i_glide_esite>  (137) 
-0.0179278

>  <r_i_glide_emodel>  (137) 
-47.6971

>  <r_i_glide_energy>  (137) 
-35.2453

>  <r_i_glide_einternal>  (137) 
1.19636

>  <r_i_glide_intrahb_reward>  (137) 
-0

>  <i_i_glide_confnum>  (137) 
6

>  <i_i_glide_posenum>  (137) 
37

>  <r_i_glide_eff_state_penalty>  (137) 
0

>  <ligand_id>  (137) 
45

>  <original_smiles>  (137) 
N#Cc1ccc2cnn(C34CC5CC(CC(O)(C5)C3)C4)c2c1

>  <smiles>  (137) 
[H]OC12C([H])([H])C3([H])C([H])([H])C([H])(C1([H])[H])C([H])([H])C(n1nc([H])c4c([H])c([H])c(C#N)c([H])c41)(C3([H])[H])C2([H])[H]

$$$$
45:0:1
     RDKit          3D

 41 45  0  0  1  0  0  0  0  0999 V2000
    2.3359   -3.2445   -3.9244 N   0  0  0  0  0  0  0  0  0  0  0  0
    3.2161   -3.0534   -3.2075 C   0  0  0  0  0  0  0  0  0  0  0  0
    4.3197   -2.8003   -2.3070 C   0  0  0  0  0  0  0  0  0  0  0  0
    5.6529   -2.9929   -2.7226 C   0  0  0  0  0  0  0  0  0  0  0  0
    6.7138   -2.7018   -1.8461 C   0  0  0  0  0  0  0  0  0  0  0  0
    6.4560   -2.2223   -0.5440 C   0  0  0  0  0  0  0  0  0  0  0  0
    7.2444   -1.8367    0.5788 C   0  0  0  0  0  0  0  0  0  0  0  0
    6.4862   -1.4518    1.5741 N   0  0  0  0  0  0  0  0  0  0  0  0
    5.1924   -1.5406    1.1590 N   0  0  0  0  0  0  0  0  0  0  0  0
    4.1148   -1.1734    2.0957 C   0  0  2  0  0  0  0  0  0  0  0  0
    3.3939   -2.4564    2.5986 C   0  0  0  0  0  0  0  0  0  0  0  0
    2.2552   -2.0734    3.5692 C   0  0  1  0  0  0  0  0  0  0  0  0
    2.8407   -1.3264    4.7855 C   0  0  0  0  0  0  0  0  0  0  0  0
    3.5321   -0.0353    4.3042 C   0  0  2  0  0  0  0  0  0  0  0  0
    2.5195    0.8785    3.5804 C   0  0  0  0  0  0  0  0  0  0  0  0
    1.9470    0.1241    2.3674 C   0  0  2  0  0  0  0  0  0  0  0  0
    1.0165    0.9359    1.6843 O   0  0  0  0  0  0  0  0  0  0  0  0
    1.2459   -1.1704    2.8322 C   0  0  0  0  0  0  0  0  0  0  0  0
    3.0891   -0.2346    1.3965 C   0  0  0  0  0  0  0  0  0  0  0  0
    4.6741   -0.4140    3.3415 C   0  0  0  0  0  0  0  0  0  0  0  0
    5.1021   -2.0414   -0.1388 C   0  0  0  0  0  0  0  0  0  0  0  0
    4.0335   -2.3491   -1.0082 C   0  0  0  0  0  0  0  0  0  0  0  0
    5.8691   -3.3648   -3.7193 H   0  0  0  0  0  0  0  0  0  0  0  0
    7.7359   -2.8526   -2.1640 H   0  0  0  0  0  0  0  0  0  0  0  0
    8.3224   -1.8331    0.6994 H   0  0  0  0  0  0  0  0  0  0  0  0
    2.9873   -3.0239    1.7590 H   0  0  0  0  0  0  0  0  0  0  0  0
    4.0995   -3.1253    3.0987 H   0  0  0  0  0  0  0  0  0  0  0  0
    1.7512   -2.9784    3.9090 H   0  0  0  0  0  0  0  0  0  0  0  0
    2.0580   -1.0854    5.5038 H   0  0  0  0  0  0  0  0  0  0  0  0
    3.5580   -1.9634    5.3004 H   0  0  0  0  0  0  0  0  0  0  0  0
    3.9522    0.4967    5.1604 H   0  0  0  0  0  0  0  0  0  0  0  0
    1.7220    1.1755    4.2608 H   0  0  0  0  0  0  0  0  0  0  0  0
    3.0168    1.7904    3.2440 H   0  0  0  0  0  0  0  0  0  0  0  0
    0.7741    0.5090    0.8685 H   0  0  0  0  0  0  0  0  0  0  0  0
    0.8408   -1.7055    1.9746 H   0  0  0  0  0  0  0  0  0  0  0  0
    0.4024   -0.9387    3.4821 H   0  0  0  0  0  0  0  0  0  0  0  0
    3.5942    0.6706    1.0465 H   0  0  0  0  0  0  0  0  0  0  0  0
    2.6189   -0.6984    0.5287 H   0  0  0  0  0  0  0  0  0  0  0  0
    5.3976   -1.0198    3.8955 H   0  0  0  0  0  0  0  0  0  0  0  0
    5.1944    0.4923    3.0305 H   0  0  0  0  0  0  0  0  0  0  0  0
    3.0054   -2.2383   -0.7077 H   0  0  0  0  0  0  0  0  0  0  0  0
  1  2  3  0
  2  3  1  0
  3 22  1  0
  3  4  2  0
  4  5  1  0
  4 23  1  0
  5  6  2  0
  5 24  1  0
  6 21  1  0
  6  7  1  0
  7  8  2  0
  7 25  1  0
  8  9  1  0
 10  9  1  6
  9 21  1  0
 10 19  1  0
 10 20  1  0
 10 11  1  0
 11 12  1  0
 11 26  1  0
 11 27  1  0
 12 18  1  0
 12 13  1  0
 12 28  1  1
 13 14  1  0
 13 29  1  0
 13 30  1  0
 14 15  1  0
 14 20  1  0
 14 31  1  1
 15 16  1  0
 15 32  1  0
 15 33  1  0
 16 17  1  6
 16 18  1  0
 16 19  1  0
 17 34  1  0
 18 35  1  0
 18 36  1  0
 19 37  1  0
 19 38  1  0
 20 39  1  0
 20 40  1  0
 21 22  2  0
 22 41  1  0
M  END
>  <i_m_ct_stereo_status>  (138) 
1

>  <s_m_source_file>  (138) 
/var/tmp/pbs.5076255.sched01/tmp7dp07en1/447ppmqug5.sdf

>  <i_m_source_file_index>  (138) 
18

>  <i_lp_mmshare_version>  (138) 
48012

>  <i_f3d_flags>  (138) 
0

>  <s_epik_input>  (138) 
TiNDYyhbY0hdW2NIXTEpW2NIXWMoYzEyKW4obltjSF0yKVtDQF0zNFtDSDJdW0NASF01W0NIMl1bQ0BASF0oW0NIMl00KVtDSDJdW0NAXShbT0hdKShbQ0gyXTUpW0NIMl0z

>  <s_epik_cmdline>  (138) 
J2VwaWtfcHl0aG9uJywgJy1waHQnLCAnMi4wJywgJy1waCcsICc3LjAnLCAnLXRuJywgJzgnLCAnLW1hJywgJzIwMCcsICctaW1hZScsICc8aW5maWxlLm1hZT4nLCAnLW9tYWUnLCAnPG91dGZpbGUubWFlPic=

>  <r_lp_tautomer_probability>  (138) 
1

>  <r_epik_Ionization_Penalty>  (138) 
2.26684e-06

>  <r_epik_Ionization_Penalty_Charging>  (138) 
0

>  <r_epik_Ionization_Penalty_Neutral>  (138) 
2.26684e-06

>  <r_epik_State_Penalty>  (138) 
-0

>  <r_epik_Charging_Adjusted_Penalty>  (138) 
0

>  <i_epik_Tot_Q>  (138) 
0

>  <i_epik_Tot_abs_Q>  (138) 
0

>  <s_lp_Force_Field>  (138) 
OPLS3e

>  <r_lp_Energy>  (138) 
3.62042

>  <b_lp_Chiralities_Consistent>  (138) 
1

>  <s_lp_Variant>  (138) 
45:0-1

>  <s_i_glide_gridfile>  (138) 
pfpi4k_grid

>  <i_i_glide_lignum>  (138) 
18

>  <i_i_glide_rotatable_bonds>  (138) 
3

>  <r_i_docking_score>  (138) 
-3.40736

>  <r_i_glide_ligand_efficiency>  (138) 
-0.15488

>  <r_i_glide_ligand_efficiency_sa>  (138) 
-0.43398

>  <r_i_glide_ligand_efficiency_ln>  (138) 
-0.832883

>  <r_i_glide_gscore>  (138) 
-3.40736

>  <r_i_glide_lipo>  (138) 
-0.297957

>  <r_i_glide_hbond>  (138) 
-0.0974487

>  <r_i_glide_metal>  (138) 
-0

>  <r_i_glide_rewards>  (138) 
-1.63696

>  <r_i_glide_evdw>  (138) 
-28.0266

>  <r_i_glide_ecoul>  (138) 
-1.23979

>  <r_i_glide_erotb>  (138) 
0.212308

>  <r_i_glide_esite>  (138) 
0

>  <r_i_glide_emodel>  (138) 
-35.8093

>  <r_i_glide_energy>  (138) 
-29.2664

>  <r_i_glide_einternal>  (138) 
0.547017

>  <r_i_glide_intrahb_reward>  (138) 
-0

>  <i_i_glide_confnum>  (138) 
4

>  <i_i_glide_posenum>  (138) 
8

>  <r_i_glide_eff_state_penalty>  (138) 
0

>  <ligand_id>  (138) 
45

>  <original_smiles>  (138) 
N#Cc1ccc2cnn(C34CC5CC(CC(O)(C5)C3)C4)c2c1

>  <smiles>  (138) 
[H]OC12C([H])([H])C3([H])C([H])([H])C([H])(C1([H])[H])C([H])([H])C(n1nc([H])c4c([H])c([H])c(C#N)c([H])c41)(C3([H])[H])C2([H])[H]

$$$$
45:0:2
     RDKit          3D

 41 45  0  0  1  0  0  0  0  0999 V2000
    3.0564   -0.6658   -4.2188 N   0  0  0  0  0  0  0  0  0  0  0  0
    3.6202   -1.1413   -3.3246 C   0  0  0  0  0  0  0  0  0  0  0  0
    4.3374   -1.7303   -2.2060 C   0  0  0  0  0  0  0  0  0  0  0  0
    5.4976   -2.5148   -2.4145 C   0  0  0  0  0  0  0  0  0  0  0  0
    6.2140   -3.0348   -1.3161 C   0  0  0  0  0  0  0  0  0  0  0  0
    5.7915   -2.8056    0.0115 C   0  0  0  0  0  0  0  0  0  0  0  0
    6.2262   -3.1834    1.3143 C   0  0  0  0  0  0  0  0  0  0  0  0
    5.4360   -2.7008    2.2407 N   0  0  0  0  0  0  0  0  0  0  0  0
    4.5022   -1.9350    1.5947 N   0  0  0  0  0  0  0  0  0  0  0  0
    3.4762   -1.2529    2.4165 C   0  0  2  0  0  0  0  0  0  0  0  0
    2.1746   -2.0947    2.4427 C   0  0  0  0  0  0  0  0  0  0  0  0
    1.0992   -1.3735    3.2851 C   0  0  1  0  0  0  0  0  0  0  0  0
    1.6050   -1.2021    4.7316 C   0  0  0  0  0  0  0  0  0  0  0  0
    2.8828   -0.3403    4.7282 C   0  0  2  0  0  0  0  0  0  0  0  0
    2.5877    1.0478    4.1231 C   0  0  0  0  0  0  0  0  0  0  0  0
    2.0804    0.8649    2.6852 C   0  0  2  0  0  0  0  0  0  0  0  0
    1.8078    2.1257    2.1209 O   0  0  0  0  0  0  0  0  0  0  0  0
    0.7993    0.0085    2.6658 C   0  0  0  0  0  0  0  0  0  0  0  0
    3.1599    0.1659    1.8482 C   0  0  0  0  0  0  0  0  0  0  0  0
    3.9606   -1.0568    3.8912 C   0  0  0  0  0  0  0  0  0  0  0  0
    4.6185   -2.0105    0.2094 C   0  0  0  0  0  0  0  0  0  0  0  0
    3.8978   -1.5030   -0.8990 C   0  0  0  0  0  0  0  0  0  0  0  0
    5.8403   -2.7120   -3.4246 H   0  0  0  0  0  0  0  0  0  0  0  0
    7.0927   -3.6442   -1.4839 H   0  0  0  0  0  0  0  0  0  0  0  0
    7.0737   -3.7916    1.6083 H   0  0  0  0  0  0  0  0  0  0  0  0
    1.8103   -2.2486    1.4265 H   0  0  0  0  0  0  0  0  0  0  0  0
    2.3621   -3.0888    2.8512 H   0  0  0  0  0  0  0  0  0  0  0  0
    0.1913   -1.9760    3.2907 H   0  0  0  0  0  0  0  0  0  0  0  0
    0.8430   -0.7352    5.3538 H   0  0  0  0  0  0  0  0  0  0  0  0
    1.8155   -2.1790    5.1668 H   0  0  0  0  0  0  0  0  0  0  0  0
    3.2513   -0.2204    5.7499 H   0  0  0  0  0  0  0  0  0  0  0  0
    1.8477    1.5779    4.7248 H   0  0  0  0  0  0  0  0  0  0  0  0
    3.4961    1.6531    4.1161 H   0  0  0  0  0  0  0  0  0  0  0  0
    1.2673    2.0166    1.3506 H   0  0  0  0  0  0  0  0  0  0  0  0
    0.4457   -0.1223    1.6409 H   0  0  0  0  0  0  0  0  0  0  0  0
   -0.0059    0.5041    3.2072 H   0  0  0  0  0  0  0  0  0  0  0  0
    4.0782    0.7581    1.8143 H   0  0  0  0  0  0  0  0  0  0  0  0
    2.7420    0.1453    0.8526 H   0  0  0  0  0  0  0  0  0  0  0  0
    4.1807   -2.0112    4.3775 H   0  0  0  0  0  0  0  0  0  0  0  0
    4.8870   -0.4774    3.9029 H   0  0  0  0  0  0  0  0  0  0  0  0
    2.9906   -0.9420   -0.7737 H   0  0  0  0  0  0  0  0  0  0  0  0
  1  2  3  0
  2  3  1  0
  3 22  1  0
  3  4  2  0
  4  5  1  0
  4 23  1  0
  5  6  2  0
  5 24  1  0
  6 21  1  0
  6  7  1  0
  7  8  2  0
  7 25  1  0
  8  9  1  0
 10  9  1  6
  9 21  1  0
 10 19  1  0
 10 20  1  0
 10 11  1  0
 11 12  1  0
 11 26  1  0
 11 27  1  0
 12 18  1  0
 12 13  1  0
 12 28  1  1
 13 14  1  0
 13 29  1  0
 13 30  1  0
 14 15  1  0
 14 20  1  0
 14 31  1  1
 15 16  1  0
 15 32  1  0
 15 33  1  0
 16 17  1  6
 16 18  1  0
 16 19  1  0
 17 34  1  0
 18 35  1  0
 18 36  1  0
 19 37  1  0
 19 38  1  0
 20 39  1  0
 20 40  1  0
 21 22  2  0
 22 41  1  0
M  END
>  <i_m_ct_stereo_status>  (139) 
1

>  <s_m_source_file>  (139) 
/var/tmp/pbs.5076255.sched01/tmp7dp07en1/447ppmqug5.sdf

>  <i_m_source_file_index>  (139) 
18

>  <i_lp_mmshare_version>  (139) 
48012

>  <i_f3d_flags>  (139) 
0

>  <s_epik_input>  (139) 
TiNDYyhbY0hdW2NIXTEpW2NIXWMoYzEyKW4obltjSF0yKVtDQF0zNFtDSDJdW0NASF01W0NIMl1bQ0BASF0oW0NIMl00KVtDSDJdW0NAXShbT0hdKShbQ0gyXTUpW0NIMl0z

>  <s_epik_cmdline>  (139) 
J2VwaWtfcHl0aG9uJywgJy1waHQnLCAnMi4wJywgJy1waCcsICc3LjAnLCAnLXRuJywgJzgnLCAnLW1hJywgJzIwMCcsICctaW1hZScsICc8aW5maWxlLm1hZT4nLCAnLW9tYWUnLCAnPG91dGZpbGUubWFlPic=

>  <r_lp_tautomer_probability>  (139) 
1

>  <r_epik_Ionization_Penalty>  (139) 
2.26684e-06

>  <r_epik_Ionization_Penalty_Charging>  (139) 
0

>  <r_epik_Ionization_Penalty_Neutral>  (139) 
2.26684e-06

>  <r_epik_State_Penalty>  (139) 
-0

>  <r_epik_Charging_Adjusted_Penalty>  (139) 
0

>  <i_epik_Tot_Q>  (139) 
0

>  <i_epik_Tot_abs_Q>  (139) 
0

>  <s_lp_Force_Field>  (139) 
OPLS3e

>  <r_lp_Energy>  (139) 
3.62042

>  <b_lp_Chiralities_Consistent>  (139) 
1

>  <s_lp_Variant>  (139) 
45:0-1

>  <s_i_glide_gridfile>  (139) 
pfpi4k_grid

>  <i_i_glide_lignum>  (139) 
18

>  <i_i_glide_rotatable_bonds>  (139) 
3

>  <r_i_docking_score>  (139) 
-3.22874

>  <r_i_glide_ligand_efficiency>  (139) 
-0.146761

>  <r_i_glide_ligand_efficiency_sa>  (139) 
-0.41123

>  <r_i_glide_ligand_efficiency_ln>  (139) 
-0.789222

>  <r_i_glide_gscore>  (139) 
-3.22874

>  <r_i_glide_lipo>  (139) 
-0.298613

>  <r_i_glide_hbond>  (139) 
0

>  <r_i_glide_metal>  (139) 
-0

>  <r_i_glide_rewards>  (139) 
-1.61261

>  <r_i_glide_evdw>  (139) 
-28.5911

>  <r_i_glide_ecoul>  (139) 
-0.668445

>  <r_i_glide_erotb>  (139) 
0.212308

>  <r_i_glide_esite>  (139) 
0

>  <r_i_glide_emodel>  (139) 
-35.0345

>  <r_i_glide_energy>  (139) 
-29.2595

>  <r_i_glide_einternal>  (139) 
1.19152

>  <r_i_glide_intrahb_reward>  (139) 
-0

>  <i_i_glide_confnum>  (139) 
4

>  <i_i_glide_posenum>  (139) 
2

>  <r_i_glide_eff_state_penalty>  (139) 
0

>  <ligand_id>  (139) 
45

>  <original_smiles>  (139) 
N#Cc1ccc2cnn(C34CC5CC(CC(O)(C5)C3)C4)c2c1

>  <smiles>  (139) 
[H]OC12C([H])([H])C3([H])C([H])([H])C([H])(C1([H])[H])C([H])([H])C(n1nc([H])c4c([H])c([H])c(C#N)c([H])c41)(C3([H])[H])C2([H])[H]

$$$$
46:0:0
     RDKit          3D

 48 51  0  0  1  0  0  0  0  0999 V2000
    3.2785   -0.4410   -5.0015 C   0  0  0  0  0  0  0  0  0  0  0  0
    4.1250   -1.0409   -3.9722 N   0  0  2  0  0  0  0  0  0  0  0  0
    3.8397   -2.4742   -3.7414 C   0  0  0  0  0  0  0  0  0  0  0  0
    4.8125   -3.0706   -2.7194 C   0  0  0  0  0  0  0  0  0  0  0  0
    4.7643   -2.3262   -1.3175 C   0  0  1  0  0  0  0  0  0  0  0  0
    5.0087   -0.8122   -1.7049 C   0  0  0  0  0  0  0  0  0  0  0  0
    4.0144   -0.2948   -2.7171 C   0  0  0  0  0  0  0  0  0  0  0  0
    3.5077   -2.5443   -0.4100 C   0  0  1  0  0  0  0  0  0  0  0  0
    3.1112   -4.0330   -0.5542 C   0  0  0  0  0  0  0  0  0  0  0  0
    4.3554   -4.9454   -0.2722 C   0  0  0  0  0  0  0  0  0  0  0  0
    5.4906   -4.1750    0.2647 N   0  0  0  0  0  0  0  0  0  0  0  0
    5.3006   -4.0398    1.7305 O   0  0  0  0  0  0  0  0  0  0  0  0
    4.1154   -3.3126    2.1203 C   0  0  0  0  0  0  0  0  0  0  0  0
    2.9053   -4.2296    2.4672 C   0  0  0  0  0  0  0  0  0  0  0  0
    4.5678   -2.7814    3.5076 C   0  0  0  0  0  0  0  0  0  0  0  0
    3.7539   -2.1327    1.1292 C   0  0  1  0  0  0  0  0  0  0  0  0
    4.9056   -1.1015    1.2816 C   0  0  0  0  0  0  0  0  0  0  0  0
    6.2024   -1.7403    0.6656 C   0  0  0  0  0  0  0  0  0  0  0  0
    5.8697   -2.8668   -0.3671 C   0  0  2  0  0  0  0  0  0  0  0  0
    2.2300   -0.4976   -4.6817 H   0  0  0  0  0  0  0  0  0  0  0  0
    3.4000   -0.9868   -5.9353 H   0  0  0  0  0  0  0  0  0  0  0  0
    3.5470    0.6083   -5.1586 H   0  0  0  0  0  0  0  0  0  0  0  0
    2.8134   -2.6007   -3.3899 H   0  0  0  0  0  0  0  0  0  0  0  0
    3.9384   -3.0330   -4.6795 H   0  0  0  0  0  0  0  0  0  0  0  0
    4.6164   -4.1421   -2.7270 H   0  0  0  0  0  0  0  0  0  0  0  0
    5.8317   -3.0035   -3.1035 H   0  0  0  0  0  0  0  0  0  0  0  0
    4.8768   -0.0764   -0.9481 H   0  0  0  0  0  0  0  0  0  0  0  0
    6.0179   -0.7383   -2.1175 H   0  0  0  0  0  0  0  0  0  0  0  0
    4.2129    0.7630   -2.8881 H   0  0  0  0  0  0  0  0  0  0  0  0
    2.9921   -0.3687   -2.3530 H   0  0  0  0  0  0  0  0  0  0  0  0
    2.6688   -1.9641   -0.8013 H   0  0  0  0  0  0  0  0  0  0  0  0
    2.2490   -4.2886    0.0588 H   0  0  0  0  0  0  0  0  0  0  0  0
    2.7111   -4.2230   -1.5498 H   0  0  0  0  0  0  0  0  0  0  0  0
    4.1046   -5.7945    0.3547 H   0  0  0  0  0  0  0  0  0  0  0  0
    4.6868   -5.4244   -1.1952 H   0  0  0  0  0  0  0  0  0  0  0  0
    1.9539   -3.7130    2.3124 H   0  0  0  0  0  0  0  0  0  0  0  0
    2.9096   -4.5498    3.5083 H   0  0  0  0  0  0  0  0  0  0  0  0
    2.8884   -5.1600    1.9061 H   0  0  0  0  0  0  0  0  0  0  0  0
    3.8683   -2.0500    3.9116 H   0  0  0  0  0  0  0  0  0  0  0  0
    5.5573   -2.3326    3.4805 H   0  0  0  0  0  0  0  0  0  0  0  0
    4.6858   -3.5797    4.2316 H   0  0  0  0  0  0  0  0  0  0  0  0
    2.8344   -1.6625    1.4864 H   0  0  0  0  0  0  0  0  0  0  0  0
    4.5645   -0.1548    0.8767 H   0  0  0  0  0  0  0  0  0  0  0  0
    5.1152   -0.7840    2.2960 H   0  0  0  0  0  0  0  0  0  0  0  0
    6.7789   -0.9577    0.1872 H   0  0  0  0  0  0  0  0  0  0  0  0
    6.8721   -2.1257    1.4342 H   0  0  0  0  0  0  0  0  0  0  0  0
    6.7600   -3.0646   -0.9679 H   0  0  0  0  0  0  0  0  0  0  0  0
    5.0930   -0.9604   -4.2541 H   0  0  0  0  0  0  0  0  0  0  0  0
  1  2  1  0
  1 20  1  0
  1 21  1  0
  1 22  1  0
  2  7  1  0
  2  3  1  0
  2 48  1  6
  3  4  1  0
  3 23  1  0
  3 24  1  0
  5  4  1  6
  4 25  1  0
  4 26  1  0
  5 19  1  0
  5  6  1  0
  5  8  1  0
  6  7  1  0
  6 27  1  0
  6 28  1  0
  7 29  1  0
  7 30  1  0
  8 16  1  0
  8  9  1  0
  8 31  1  6
  9 10  1  0
  9 32  1  0
  9 33  1  0
 10 11  1  0
 10 34  1  0
 10 35  1  0
 11 19  1  0
 11 12  1  0
 12 13  1  0
 13 14  1  0
 13 15  1  0
 13 16  1  0
 14 36  1  0
 14 37  1  0
 14 38  1  0
 15 39  1  0
 15 40  1  0
 15 41  1  0
 16 17  1  0
 16 42  1  1
 17 18  1  0
 17 43  1  0
 17 44  1  0
 18 19  1  0
 18 45  1  0
 18 46  1  0
 19 47  1  6
M  CHG  1   2   1
M  END
>  <i_m_ct_stereo_status>  (140) 
1

>  <s_m_source_file>  (140) 
/var/tmp/pbs.5076255.sched01/tmp7dp07en1/447ppmqug5.sdf

>  <i_m_source_file_index>  (140) 
19

>  <i_lp_mmshare_version>  (140) 
48012

>  <i_f3d_flags>  (140) 
0

>  <s_epik_input>  (140) 
W0NIMl0xW0NIMl1OKFtDSDNdKVtDSDJdW0NIMl1DMTJbQ0BASF0zW0NASF00QyhbQ0gzXSkoW0NIM10pT04oW0NIMl1bQ0gyXTMpW0NAQEhdMltDSDJdW0NIMl00

>  <s_epik_cmdline>  (140) 
J2VwaWtfcHl0aG9uJywgJy1waHQnLCAnMi4wJywgJy1waCcsICc3LjAnLCAnLXRuJywgJzgnLCAnLW1hJywgJzIwMCcsICctaW1hZScsICc8aW5maWxlLm1hZT4nLCAnLW9tYWUnLCAnPG91dGZpbGUubWFlPic=

>  <r_epik_Ionization_Penalty>  (140) 
0.101277

>  <r_epik_Ionization_Penalty_Charging>  (140) 
0.000680438

>  <r_epik_Ionization_Penalty_Neutral>  (140) 
0.100596

>  <r_epik_State_Penalty>  (140) 
0.0525788

>  <r_epik_Charging_Adjusted_Penalty>  (140) 
0.0532592

>  <i_epik_Tot_Q>  (140) 
1

>  <i_epik_Tot_abs_Q>  (140) 
1

>  <s_epik_Chemistry_Notes>  (140) 
This compound has a N-S or N-O group and may undergo hydrolysis at high or low pH.

>  <s_lp_Force_Field>  (140) 
OPLS3e

>  <r_lp_Energy>  (140) 
93.6604

>  <b_lp_Chiralities_Consistent>  (140) 
1

>  <s_lp_Variant>  (140) 
46:0-1

>  <s_i_glide_gridfile>  (140) 
pfpi4k_grid

>  <i_i_glide_lignum>  (140) 
19

>  <i_i_glide_rotatable_bonds>  (140) 
0

>  <r_i_docking_score>  (140) 
-3.71386

>  <r_i_glide_ligand_efficiency>  (140) 
-0.195466

>  <r_i_glide_ligand_efficiency_sa>  (140) 
-0.521583

>  <r_i_glide_ligand_efficiency_ln>  (140) 
-0.941543

>  <r_i_glide_gscore>  (140) 
-3.71386

>  <r_i_glide_lipo>  (140) 
-0.857592

>  <r_i_glide_hbond>  (140) 
0

>  <r_i_glide_metal>  (140) 
-0

>  <r_i_glide_rewards>  (140) 
-1.68703

>  <r_i_glide_evdw>  (140) 
-17.7556

>  <r_i_glide_ecoul>  (140) 
-1.87636

>  <r_i_glide_erotb>  (140) 
0

>  <r_i_glide_esite>  (140) 
0

>  <r_i_glide_emodel>  (140) 
-24.2604

>  <r_i_glide_energy>  (140) 
-19.632

>  <r_i_glide_einternal>  (140) 
0

>  <r_i_glide_intrahb_reward>  (140) 
-0

>  <i_i_glide_confnum>  (140) 
1

>  <i_i_glide_posenum>  (140) 
37

>  <r_i_glide_eff_state_penalty>  (140) 
0

>  <ligand_id>  (140) 
46

>  <original_smiles>  (140) 
CN1CCC2(CC1)C1CCN3OC(C)(C)C1CCC32

>  <smiles>  (140) 
[H]C([H])([H])C1(C([H])([H])[H])ON2C([H])([H])C([H])([H])C3([H])C1([H])C([H])([H])C([H])([H])C2([H])C31C([H])([H])C([H])([H])[N+]([H])(C([H])([H])[H])C([H])([H])C1([H])[H]

$$$$
46:0:1
     RDKit          3D

 48 51  0  0  1  0  0  0  0  0999 V2000
    2.9124   -0.9575   -4.3654 C   0  0  0  0  0  0  0  0  0  0  0  0
    3.0819   -1.2540   -2.9354 N   0  0  2  0  0  0  0  0  0  0  0  0
    4.3844   -0.7559   -2.4357 C   0  0  0  0  0  0  0  0  0  0  0  0
    4.5172   -1.0053   -0.9340 C   0  0  0  0  0  0  0  0  0  0  0  0
    4.3737   -2.5342   -0.5359 C   0  0  1  0  0  0  0  0  0  0  0  0
    2.9985   -2.9340   -1.1873 C   0  0  0  0  0  0  0  0  0  0  0  0
    2.9338   -2.6803   -2.6729 C   0  0  0  0  0  0  0  0  0  0  0  0
    5.5509   -3.5071   -0.8955 C   0  0  1  0  0  0  0  0  0  0  0  0
    6.8527   -2.7093   -0.6525 C   0  0  0  0  0  0  0  0  0  0  0  0
    6.8338   -2.0997    0.7805 C   0  0  0  0  0  0  0  0  0  0  0  0
    5.7308   -2.6140    1.6075 N   0  0  0  0  0  0  0  0  0  0  0  0
    6.1283   -3.9118    2.1892 O   0  0  0  0  0  0  0  0  0  0  0  0
    6.4229   -4.9527    1.2320 C   0  0  0  0  0  0  0  0  0  0  0  0
    7.9399   -5.0937    0.9140 C   0  0  0  0  0  0  0  0  0  0  0  0
    6.1181   -6.2128    2.0861 C   0  0  0  0  0  0  0  0  0  0  0  0
    5.5016   -4.8758   -0.0432 C   0  0  1  0  0  0  0  0  0  0  0  0
    4.0708   -5.1990    0.4610 C   0  0  0  0  0  0  0  0  0  0  0  0
    3.5823   -4.0049    1.3450 C   0  0  0  0  0  0  0  0  0  0  0  0
    4.3429   -2.6842    1.0072 C   0  0  2  0  0  0  0  0  0  0  0  0
    3.6715   -1.5041   -4.9301 H   0  0  0  0  0  0  0  0  0  0  0  0
    3.0119    0.1102   -4.5599 H   0  0  0  0  0  0  0  0  0  0  0  0
    1.9300   -1.2988   -4.7030 H   0  0  0  0  0  0  0  0  0  0  0  0
    5.1893   -1.2781   -2.9515 H   0  0  0  0  0  0  0  0  0  0  0  0
    4.4852    0.3097   -2.6463 H   0  0  0  0  0  0  0  0  0  0  0  0
    5.4326   -0.4883   -0.6428 H   0  0  0  0  0  0  0  0  0  0  0  0
    3.7550   -0.4401   -0.4019 H   0  0  0  0  0  0  0  0  0  0  0  0
    2.6927   -3.9732   -1.1916 H   0  0  0  0  0  0  0  0  0  0  0  0
    2.2276   -2.3830   -0.6541 H   0  0  0  0  0  0  0  0  0  0  0  0
    1.9746   -3.0478   -3.0420 H   0  0  0  0  0  0  0  0  0  0  0  0
    3.7050   -3.2549   -3.1911 H   0  0  0  0  0  0  0  0  0  0  0  0
    5.5237   -3.7402   -1.9553 H   0  0  0  0  0  0  0  0  0  0  0  0
    7.7372   -3.3142   -0.8381 H   0  0  0  0  0  0  0  0  0  0  0  0
    6.9730   -1.9172   -1.3895 H   0  0  0  0  0  0  0  0  0  0  0  0
    7.8173   -2.2405    1.2116 H   0  0  0  0  0  0  0  0  0  0  0  0
    6.7559   -1.0108    0.7617 H   0  0  0  0  0  0  0  0  0  0  0  0
    8.1098   -5.5179   -0.0770 H   0  0  0  0  0  0  0  0  0  0  0  0
    8.4513   -5.7624    1.6052 H   0  0  0  0  0  0  0  0  0  0  0  0
    8.4908   -4.1622    0.9877 H   0  0  0  0  0  0  0  0  0  0  0  0
    6.1093   -7.1223    1.4829 H   0  0  0  0  0  0  0  0  0  0  0  0
    5.1701   -6.1450    2.6163 H   0  0  0  0  0  0  0  0  0  0  0  0
    6.8334   -6.3447    2.8905 H   0  0  0  0  0  0  0  0  0  0  0  0
    5.7969   -5.6863   -0.7074 H   0  0  0  0  0  0  0  0  0  0  0  0
    3.4696   -5.4856   -0.3883 H   0  0  0  0  0  0  0  0  0  0  0  0
    3.9688   -6.1311    1.0131 H   0  0  0  0  0  0  0  0  0  0  0  0
    2.5172   -3.8593    1.1878 H   0  0  0  0  0  0  0  0  0  0  0  0
    3.6637   -4.2295    2.4102 H   0  0  0  0  0  0  0  0  0  0  0  0
    3.7897   -1.8426    1.4266 H   0  0  0  0  0  0  0  0  0  0  0  0
    2.3511   -0.7920   -2.4054 H   0  0  0  0  0  0  0  0  0  0  0  0
  1  2  1  0
  1 20  1  0
  1 21  1  0
  1 22  1  0
  2  7  1  0
  2  3  1  0
  2 48  1  1
  3  4  1  0
  3 23  1  0
  3 24  1  0
  5  4  1  1
  4 25  1  0
  4 26  1  0
  5 19  1  0
  5  6  1  0
  5  8  1  0
  6  7  1  0
  6 27  1  0
  6 28  1  0
  7 29  1  0
  7 30  1  0
  8 16  1  0
  8  9  1  0
  8 31  1  6
  9 10  1  0
  9 32  1  0
  9 33  1  0
 10 11  1  0
 10 34  1  0
 10 35  1  0
 11 19  1  0
 11 12  1  0
 12 13  1  0
 13 14  1  0
 13 15  1  0
 13 16  1  0
 14 36  1  0
 14 37  1  0
 14 38  1  0
 15 39  1  0
 15 40  1  0
 15 41  1  0
 16 17  1  0
 16 42  1  6
 17 18  1  0
 17 43  1  0
 17 44  1  0
 18 19  1  0
 18 45  1  0
 18 46  1  0
 19 47  1  1
M  CHG  1   2   1
M  END
>  <i_m_ct_stereo_status>  (141) 
1

>  <s_m_source_file>  (141) 
/var/tmp/pbs.5076255.sched01/tmp7dp07en1/447ppmqug5.sdf

>  <i_m_source_file_index>  (141) 
19

>  <i_lp_mmshare_version>  (141) 
48012

>  <i_f3d_flags>  (141) 
0

>  <s_epik_input>  (141) 
W0NIMl0xW0NIMl1OKFtDSDNdKVtDSDJdW0NIMl1DMTJbQ0BASF0zW0NASF00QyhbQ0gzXSkoW0NIM10pT04oW0NIMl1bQ0gyXTMpW0NAQEhdMltDSDJdW0NIMl00

>  <s_epik_cmdline>  (141) 
J2VwaWtfcHl0aG9uJywgJy1waHQnLCAnMi4wJywgJy1waCcsICc3LjAnLCAnLXRuJywgJzgnLCAnLW1hJywgJzIwMCcsICctaW1hZScsICc8aW5maWxlLm1hZT4nLCAnLW9tYWUnLCAnPG91dGZpbGUubWFlPic=

>  <r_epik_Ionization_Penalty>  (141) 
0.101277

>  <r_epik_Ionization_Penalty_Charging>  (141) 
0.000680438

>  <r_epik_Ionization_Penalty_Neutral>  (141) 
0.100596

>  <r_epik_State_Penalty>  (141) 
0.0525788

>  <r_epik_Charging_Adjusted_Penalty>  (141) 
0.0532592

>  <i_epik_Tot_Q>  (141) 
1

>  <i_epik_Tot_abs_Q>  (141) 
1

>  <s_epik_Chemistry_Notes>  (141) 
This compound has a N-S or N-O group and may undergo hydrolysis at high or low pH.

>  <s_lp_Force_Field>  (141) 
OPLS3e

>  <r_lp_Energy>  (141) 
93.6604

>  <b_lp_Chiralities_Consistent>  (141) 
1

>  <s_lp_Variant>  (141) 
46:0-1

>  <s_i_glide_gridfile>  (141) 
pfpi4k_grid

>  <i_i_glide_lignum>  (141) 
19

>  <i_i_glide_rotatable_bonds>  (141) 
0

>  <r_i_docking_score>  (141) 
-3.66341

>  <r_i_glide_ligand_efficiency>  (141) 
-0.192811

>  <r_i_glide_ligand_efficiency_sa>  (141) 
-0.514497

>  <r_i_glide_ligand_efficiency_ln>  (141) 
-0.928752

>  <r_i_glide_gscore>  (141) 
-3.66341

>  <r_i_glide_lipo>  (141) 
-0.55711

>  <r_i_glide_hbond>  (141) 
-0.0851953

>  <r_i_glide_metal>  (141) 
-0

>  <r_i_glide_rewards>  (141) 
-1.69801

>  <r_i_glide_evdw>  (141) 
-16.3665

>  <r_i_glide_ecoul>  (141) 
-3.19047

>  <r_i_glide_erotb>  (141) 
0

>  <r_i_glide_esite>  (141) 
-0.0261937

>  <r_i_glide_emodel>  (141) 
-24.138

>  <r_i_glide_energy>  (141) 
-19.557

>  <r_i_glide_einternal>  (141) 
0

>  <r_i_glide_intrahb_reward>  (141) 
-0

>  <i_i_glide_confnum>  (141) 
1

>  <i_i_glide_posenum>  (141) 
4

>  <r_i_glide_eff_state_penalty>  (141) 
0

>  <ligand_id>  (141) 
46

>  <original_smiles>  (141) 
CN1CCC2(CC1)C1CCN3OC(C)(C)C1CCC32

>  <smiles>  (141) 
[H]C([H])([H])C1(C([H])([H])[H])ON2C([H])([H])C([H])([H])C3([H])C1([H])C([H])([H])C([H])([H])C2([H])C31C([H])([H])C([H])([H])[N+]([H])(C([H])([H])[H])C([H])([H])C1([H])[H]

$$$$
46:1:0
     RDKit          3D

 48 51  0  0  1  0  0  0  0  0999 V2000
    2.7451    0.9314   -5.3640 C   0  0  0  0  0  0  0  0  0  0  0  0
    2.8372   -0.3020   -4.5540 N   0  0  2  0  0  0  0  0  0  0  0  0
    2.7302   -0.0695   -3.1459 C   0  0  0  0  0  0  0  0  0  0  0  0
    2.7131   -1.3340   -2.3422 C   0  0  0  0  0  0  0  0  0  0  0  0
    4.0201   -2.1166   -2.4010 C   0  0  2  0  0  0  0  0  0  0  0  0
    4.1195   -2.3103   -3.9778 C   0  0  0  0  0  0  0  0  0  0  0  0
    4.1129   -0.9853   -4.7603 C   0  0  0  0  0  0  0  0  0  0  0  0
    3.9452   -3.4340   -1.5783 C   0  0  1  0  0  0  0  0  0  0  0  0
    5.0529   -4.3103   -2.1940 C   0  0  0  0  0  0  0  0  0  0  0  0
    6.3917   -3.4575   -2.2697 C   0  0  0  0  0  0  0  0  0  0  0  0
    6.3701   -2.2434   -1.4802 N   0  0  0  0  0  0  0  0  0  0  0  0
    6.6108   -2.6197   -0.0608 O   0  0  0  0  0  0  0  0  0  0  0  0
    5.6174   -3.5073    0.5243 C   0  0  0  0  0  0  0  0  0  0  0  0
    6.0308   -5.0040    0.5405 C   0  0  0  0  0  0  0  0  0  0  0  0
    5.7037   -3.1131    2.0121 C   0  0  0  0  0  0  0  0  0  0  0  0
    4.1602   -3.2570   -0.0048 C   0  0  1  0  0  0  0  0  0  0  0  0
    3.7962   -1.8337    0.4880 C   0  0  0  0  0  0  0  0  0  0  0  0
    4.7539   -0.8208   -0.2360 C   0  0  0  0  0  0  0  0  0  0  0  0
    5.1806   -1.3691   -1.6420 C   0  0  2  0  0  0  0  0  0  0  0  0
    3.5355    1.6308   -5.0735 H   0  0  0  0  0  0  0  0  0  0  0  0
    1.7638    1.3994   -5.2153 H   0  0  0  0  0  0  0  0  0  0  0  0
    2.8868    0.6707   -6.4106 H   0  0  0  0  0  0  0  0  0  0  0  0
    3.6132    0.5117   -2.8558 H   0  0  0  0  0  0  0  0  0  0  0  0
    1.8060    0.5115   -2.9805 H   0  0  0  0  0  0  0  0  0  0  0  0
    2.6641   -0.7931   -1.4320 H   0  0  0  0  0  0  0  0  0  0  0  0
    1.8536   -1.9657   -2.5801 H   0  0  0  0  0  0  0  0  0  0  0  0
    5.0073   -2.8023   -4.3611 H   0  0  0  0  0  0  0  0  0  0  0  0
    3.2751   -2.9519   -4.2757 H   0  0  0  0  0  0  0  0  0  0  0  0
    4.1713   -1.0334   -5.8292 H   0  0  0  0  0  0  0  0  0  0  0  0
    4.9667   -0.3914   -4.4461 H   0  0  0  0  0  0  0  0  0  0  0  0
    2.9699   -3.8844   -1.7490 H   0  0  0  0  0  0  0  0  0  0  0  0
    5.0802   -5.2814   -1.6975 H   0  0  0  0  0  0  0  0  0  0  0  0
    4.7761   -4.6545   -3.1926 H   0  0  0  0  0  0  0  0  0  0  0  0
    7.3222   -3.8666   -1.9277 H   0  0  0  0  0  0  0  0  0  0  0  0
    6.5995   -3.2291   -3.3093 H   0  0  0  0  0  0  0  0  0  0  0  0
    5.1682   -5.6681    0.5363 H   0  0  0  0  0  0  0  0  0  0  0  0
    6.6364   -5.2904    1.3939 H   0  0  0  0  0  0  0  0  0  0  0  0
    6.6645   -5.2773   -0.3082 H   0  0  0  0  0  0  0  0  0  0  0  0
    4.9058   -3.5424    2.6196 H   0  0  0  0  0  0  0  0  0  0  0  0
    5.7654   -2.0334    2.1644 H   0  0  0  0  0  0  0  0  0  0  0  0
    6.6187   -3.4840    2.4423 H   0  0  0  0  0  0  0  0  0  0  0  0
    3.5002   -3.9782    0.4938 H   0  0  0  0  0  0  0  0  0  0  0  0
    2.7279   -1.7130    0.3210 H   0  0  0  0  0  0  0  0  0  0  0  0
    3.8457   -1.6829    1.5669 H   0  0  0  0  0  0  0  0  0  0  0  0
    4.2695    0.1382   -0.3576 H   0  0  0  0  0  0  0  0  0  0  0  0
    5.6085   -0.5090    0.3830 H   0  0  0  0  0  0  0  0  0  0  0  0
    5.5018   -0.5441   -2.2715 H   0  0  0  0  0  0  0  0  0  0  0  0
    2.0982   -0.9431   -4.8320 H   0  0  0  0  0  0  0  0  0  0  0  0
  1  2  1  0
  1 20  1  0
  1 21  1  0
  1 22  1  0
  2  7  1  0
  2  3  1  0
  2 48  1  6
  3  4  1  0
  3 23  1  0
  3 24  1  0
  5  4  1  6
  4 25  1  0
  4 26  1  0
  5 19  1  0
  5  6  1  0
  5  8  1  0
  6  7  1  0
  6 27  1  0
  6 28  1  0
  7 29  1  0
  7 30  1  0
  8 16  1  0
  8  9  1  0
  8 31  1  1
  9 10  1  0
  9 32  1  0
  9 33  1  0
 10 11  1  0
 10 34  1  0
 10 35  1  0
 11 19  1  0
 11 12  1  0
 12 13  1  0
 13 14  1  0
 13 15  1  0
 13 16  1  0
 14 36  1  0
 14 37  1  0
 14 38  1  0
 15 39  1  0
 15 40  1  0
 15 41  1  0
 16 17  1  0
 16 42  1  1
 17 18  1  0
 17 43  1  0
 17 44  1  0
 18 19  1  0
 18 45  1  0
 18 46  1  0
 19 47  1  6
M  CHG  1   2   1
M  END
>  <i_m_ct_stereo_status>  (142) 
1

>  <s_m_source_file>  (142) 
/var/tmp/pbs.5076255.sched01/tmp7dp07en1/447ppmqug5.sdf

>  <i_m_source_file_index>  (142) 
20

>  <i_lp_mmshare_version>  (142) 
48012

>  <i_f3d_flags>  (142) 
0

>  <s_epik_input>  (142) 
W0NIMl0xW0NIMl1OKFtDSDNdKVtDSDJdW0NIMl1DMTJbQ0BASF0zW0NASF00QyhbQ0gzXSkoW0NIM10pT04oW0NIMl1bQ0gyXTMpW0NAQEhdMltDSDJdW0NIMl00

>  <s_epik_cmdline>  (142) 
J2VwaWtfcHl0aG9uJywgJy1waHQnLCAnMi4wJywgJy1waCcsICc3LjAnLCAnLXRuJywgJzgnLCAnLW1hJywgJzIwMCcsICctaW1hZScsICc8aW5maWxlLm1hZT4nLCAnLW9tYWUnLCAnPG91dGZpbGUubWFlPic=

>  <r_epik_Ionization_Penalty>  (142) 
0.101277

>  <r_epik_Ionization_Penalty_Charging>  (142) 
0.000680438

>  <r_epik_Ionization_Penalty_Neutral>  (142) 
0.100596

>  <r_epik_State_Penalty>  (142) 
0.0525788

>  <r_epik_Charging_Adjusted_Penalty>  (142) 
0.0532592

>  <i_epik_Tot_Q>  (142) 
1

>  <i_epik_Tot_abs_Q>  (142) 
1

>  <s_epik_Chemistry_Notes>  (142) 
This compound has a N-S or N-O group and may undergo hydrolysis at high or low pH.

>  <s_lp_Force_Field>  (142) 
OPLS3e

>  <r_lp_Energy>  (142) 
93.9926

>  <b_lp_Chiralities_Consistent>  (142) 
1

>  <s_lp_Variant>  (142) 
46:0-2

>  <s_i_glide_gridfile>  (142) 
pfpi4k_grid

>  <i_i_glide_lignum>  (142) 
20

>  <i_i_glide_rotatable_bonds>  (142) 
0

>  <r_i_docking_score>  (142) 
-2.57118

>  <r_i_glide_ligand_efficiency>  (142) 
-0.135325

>  <r_i_glide_ligand_efficiency_sa>  (142) 
-0.361102

>  <r_i_glide_ligand_efficiency_ln>  (142) 
-0.651849

>  <r_i_glide_gscore>  (142) 
-2.57118

>  <r_i_glide_lipo>  (142) 
-0.464469

>  <r_i_glide_hbond>  (142) 
0

>  <r_i_glide_metal>  (142) 
-0

>  <r_i_glide_rewards>  (142) 
-1.59945

>  <r_i_glide_evdw>  (142) 
-7.03902

>  <r_i_glide_ecoul>  (142) 
-3.18023

>  <r_i_glide_erotb>  (142) 
0

>  <r_i_glide_esite>  (142) 
-0.0574622

>  <r_i_glide_emodel>  (142) 
-6.03913

>  <r_i_glide_energy>  (142) 
-10.2192

>  <r_i_glide_einternal>  (142) 
0

>  <r_i_glide_intrahb_reward>  (142) 
-0

>  <i_i_glide_confnum>  (142) 
2

>  <i_i_glide_posenum>  (142) 
35

>  <r_i_glide_eff_state_penalty>  (142) 
0

>  <ligand_id>  (142) 
46

>  <original_smiles>  (142) 
CN1CCC2(CC1)C1CCN3OC(C)(C)C1CCC32

>  <smiles>  (142) 
[H]C([H])([H])C1(C([H])([H])[H])ON2C([H])([H])C([H])([H])C3([H])C1([H])C([H])([H])C([H])([H])C2([H])C31C([H])([H])C([H])([H])[N+]([H])(C([H])([H])[H])C([H])([H])C1([H])[H]

$$$$
46:1:1
     RDKit          3D

 48 51  0  0  1  0  0  0  0  0999 V2000
    6.1536   -5.3332    4.1418 C   0  0  0  0  0  0  0  0  0  0  0  0
    5.8622   -4.3342    3.1071 N   0  0  2  0  0  0  0  0  0  0  0  0
    4.4555   -4.2492    2.7171 C   0  0  0  0  0  0  0  0  0  0  0  0
    4.2205   -3.0534    1.8051 C   0  0  0  0  0  0  0  0  0  0  0  0
    5.0758   -3.1643    0.4729 C   0  0  2  0  0  0  0  0  0  0  0  0
    6.5643   -3.3266    0.9542 C   0  0  0  0  0  0  0  0  0  0  0  0
    6.7474   -4.4889    1.9136 C   0  0  0  0  0  0  0  0  0  0  0  0
    4.8673   -1.9457   -0.4930 C   0  0  1  0  0  0  0  0  0  0  0  0
    6.0998   -1.9087   -1.4403 C   0  0  0  0  0  0  0  0  0  0  0  0
    6.3259   -3.2983   -2.1097 C   0  0  0  0  0  0  0  0  0  0  0  0
    5.1876   -4.2079   -1.8588 N   0  0  0  0  0  0  0  0  0  0  0  0
    4.1833   -3.9013   -2.8980 O   0  0  0  0  0  0  0  0  0  0  0  0
    3.6071   -2.5929   -2.8067 C   0  0  0  0  0  0  0  0  0  0  0  0
    4.2552   -1.5678   -3.7772 C   0  0  0  0  0  0  0  0  0  0  0  0
    2.2414   -2.8338   -3.4384 C   0  0  0  0  0  0  0  0  0  0  0  0
    3.4980   -2.0197   -1.3284 C   0  0  1  0  0  0  0  0  0  0  0  0
    2.4758   -2.9276   -0.6057 C   0  0  0  0  0  0  0  0  0  0  0  0
    3.0440   -4.3303   -0.4197 C   0  0  0  0  0  0  0  0  0  0  0  0
    4.6106   -4.3210   -0.4891 C   0  0  2  0  0  0  0  0  0  0  0  0
    5.9318   -6.3458    3.7597 H   0  0  0  0  0  0  0  0  0  0  0  0
    5.5577   -5.1470    5.0442 H   0  0  0  0  0  0  0  0  0  0  0  0
    7.2152   -5.3073    4.4295 H   0  0  0  0  0  0  0  0  0  0  0  0
    4.1805   -5.1930    2.2293 H   0  0  0  0  0  0  0  0  0  0  0  0
    3.8427   -4.1567    3.6089 H   0  0  0  0  0  0  0  0  0  0  0  0
    3.1371   -3.0257    1.7509 H   0  0  0  0  0  0  0  0  0  0  0  0
    4.5432   -2.1212    2.3115 H   0  0  0  0  0  0  0  0  0  0  0  0
    7.3344   -3.5001    0.2013 H   0  0  0  0  0  0  0  0  0  0  0  0
    6.8390   -2.3840    1.4566 H   0  0  0  0  0  0  0  0  0  0  0  0
    7.8163   -4.5285    2.1496 H   0  0  0  0  0  0  0  0  0  0  0  0
    6.5632   -5.4471    1.4076 H   0  0  0  0  0  0  0  0  0  0  0  0
    4.8819   -1.0208    0.0970 H   0  0  0  0  0  0  0  0  0  0  0  0
    6.0425   -1.0825   -2.1549 H   0  0  0  0  0  0  0  0  0  0  0  0
    7.0118   -1.6710   -0.8859 H   0  0  0  0  0  0  0  0  0  0  0  0
    6.5357   -3.2557   -3.1769 H   0  0  0  0  0  0  0  0  0  0  0  0
    7.2495   -3.7056   -1.6917 H   0  0  0  0  0  0  0  0  0  0  0  0
    4.2245   -0.5293   -3.4309 H   0  0  0  0  0  0  0  0  0  0  0  0
    3.8220   -1.5760   -4.7824 H   0  0  0  0  0  0  0  0  0  0  0  0
    5.2879   -1.8320   -3.9221 H   0  0  0  0  0  0  0  0  0  0  0  0
    1.6769   -1.9322   -3.2757 H   0  0  0  0  0  0  0  0  0  0  0  0
    1.7373   -3.6950   -3.0057 H   0  0  0  0  0  0  0  0  0  0  0  0
    2.2883   -3.0560   -4.5089 H   0  0  0  0  0  0  0  0  0  0  0  0
    3.0937   -1.0123   -1.3725 H   0  0  0  0  0  0  0  0  0  0  0  0
    2.2042   -2.4203    0.3198 H   0  0  0  0  0  0  0  0  0  0  0  0
    1.5257   -3.0638   -1.0864 H   0  0  0  0  0  0  0  0  0  0  0  0
    2.6811   -4.7595    0.5262 H   0  0  0  0  0  0  0  0  0  0  0  0
    2.5335   -4.9702   -1.1002 H   0  0  0  0  0  0  0  0  0  0  0  0
    4.9420   -5.2798   -0.1046 H   0  0  0  0  0  0  0  0  0  0  0  0
    6.0760   -3.4000    3.5067 H   0  0  0  0  0  0  0  0  0  0  0  0
  1  2  1  0
  1 20  1  0
  1 21  1  0
  1 22  1  0
  2  7  1  0
  2  3  1  0
  2 48  1  1
  3  4  1  0
  3 23  1  0
  3 24  1  0
  5  4  1  1
  4 25  1  0
  4 26  1  0
  5 19  1  0
  5  6  1  0
  5  8  1  0
  6  7  1  0
  6 27  1  0
  6 28  1  0
  7 29  1  0
  7 30  1  0
  8 16  1  0
  8  9  1  0
  8 31  1  1
  9 10  1  0
  9 32  1  0
  9 33  1  0
 10 11  1  0
 10 34  1  0
 10 35  1  0
 11 19  1  0
 11 12  1  0
 12 13  1  0
 13 14  1  0
 13 15  1  0
 13 16  1  0
 14 36  1  0
 14 37  1  0
 14 38  1  0
 15 39  1  0
 15 40  1  0
 15 41  1  0
 16 17  1  0
 16 42  1  6
 17 18  1  0
 17 43  1  0
 17 44  1  0
 18 19  1  0
 18 45  1  0
 18 46  1  0
 19 47  1  1
M  CHG  1   2   1
M  END
>  <i_m_ct_stereo_status>  (143) 
1

>  <s_m_source_file>  (143) 
/var/tmp/pbs.5076255.sched01/tmp7dp07en1/447ppmqug5.sdf

>  <i_m_source_file_index>  (143) 
20

>  <i_lp_mmshare_version>  (143) 
48012

>  <i_f3d_flags>  (143) 
0

>  <s_epik_input>  (143) 
W0NIMl0xW0NIMl1OKFtDSDNdKVtDSDJdW0NIMl1DMTJbQ0BASF0zW0NASF00QyhbQ0gzXSkoW0NIM10pT04oW0NIMl1bQ0gyXTMpW0NAQEhdMltDSDJdW0NIMl00

>  <s_epik_cmdline>  (143) 
J2VwaWtfcHl0aG9uJywgJy1waHQnLCAnMi4wJywgJy1waCcsICc3LjAnLCAnLXRuJywgJzgnLCAnLW1hJywgJzIwMCcsICctaW1hZScsICc8aW5maWxlLm1hZT4nLCAnLW9tYWUnLCAnPG91dGZpbGUubWFlPic=

>  <r_epik_Ionization_Penalty>  (143) 
0.101277

>  <r_epik_Ionization_Penalty_Charging>  (143) 
0.000680438

>  <r_epik_Ionization_Penalty_Neutral>  (143) 
0.100596

>  <r_epik_State_Penalty>  (143) 
0.0525788

>  <r_epik_Charging_Adjusted_Penalty>  (143) 
0.0532592

>  <i_epik_Tot_Q>  (143) 
1

>  <i_epik_Tot_abs_Q>  (143) 
1

>  <s_epik_Chemistry_Notes>  (143) 
This compound has a N-S or N-O group and may undergo hydrolysis at high or low pH.

>  <s_lp_Force_Field>  (143) 
OPLS3e

>  <r_lp_Energy>  (143) 
93.9926

>  <b_lp_Chiralities_Consistent>  (143) 
1

>  <s_lp_Variant>  (143) 
46:0-2

>  <s_i_glide_gridfile>  (143) 
pfpi4k_grid

>  <i_i_glide_lignum>  (143) 
20

>  <i_i_glide_rotatable_bonds>  (143) 
0

>  <r_i_docking_score>  (143) 
-2.55971

>  <r_i_glide_ligand_efficiency>  (143) 
-0.134722

>  <r_i_glide_ligand_efficiency_sa>  (143) 
-0.359491

>  <r_i_glide_ligand_efficiency_ln>  (143) 
-0.648942

>  <r_i_glide_gscore>  (143) 
-2.55971

>  <r_i_glide_lipo>  (143) 
-0.717252

>  <r_i_glide_hbond>  (143) 
0

>  <r_i_glide_metal>  (143) 
-0

>  <r_i_glide_rewards>  (143) 
-1.59945

>  <r_i_glide_evdw>  (143) 
-6.46861

>  <r_i_glide_ecoul>  (143) 
0.977453

>  <r_i_glide_erotb>  (143) 
0

>  <r_i_glide_esite>  (143) 
-0.0661975

>  <r_i_glide_emodel>  (143) 
-5.70516

>  <r_i_glide_energy>  (143) 
-5.49115

>  <r_i_glide_einternal>  (143) 
0

>  <r_i_glide_intrahb_reward>  (143) 
-0

>  <i_i_glide_confnum>  (143) 
1

>  <i_i_glide_posenum>  (143) 
16

>  <r_i_glide_eff_state_penalty>  (143) 
0

>  <ligand_id>  (143) 
46

>  <original_smiles>  (143) 
CN1CCC2(CC1)C1CCN3OC(C)(C)C1CCC32

>  <smiles>  (143) 
[H]C([H])([H])C1(C([H])([H])[H])ON2C([H])([H])C([H])([H])C3([H])C1([H])C([H])([H])C([H])([H])C2([H])C31C([H])([H])C([H])([H])[N+]([H])(C([H])([H])[H])C([H])([H])C1([H])[H]

$$$$
46:2:0
     RDKit          3D

 49 52  0  0  1  0  0  0  0  0999 V2000
    3.3857   -0.5587   -4.7385 C   0  0  0  0  0  0  0  0  0  0  0  0
    4.2027   -1.2498   -3.7051 N   0  0  2  0  0  0  0  0  0  0  0  0
    3.6928   -2.6055   -3.4023 C   0  0  0  0  0  0  0  0  0  0  0  0
    4.6317   -3.3182   -2.3903 C   0  0  0  0  0  0  0  0  0  0  0  0
    4.7320   -2.5582   -1.0176 C   0  0  2  0  0  0  0  0  0  0  0  0
    5.1688   -1.1191   -1.4182 C   0  0  0  0  0  0  0  0  0  0  0  0
    4.2548   -0.4607   -2.4784 C   0  0  0  0  0  0  0  0  0  0  0  0
    5.7158   -3.2390   -0.0146 C   0  0  1  0  0  0  0  0  0  0  0  0
    6.1033   -2.1271    1.0084 C   0  0  0  0  0  0  0  0  0  0  0  0
    4.8429   -1.4794    1.6323 C   0  0  0  0  0  0  0  0  0  0  0  0
    3.6157   -2.2718    1.2879 N   0  0  2  0  0  0  0  0  0  0  0  0
    3.4678   -3.3910    2.2622 O   0  0  0  0  0  0  0  0  0  0  0  0
    4.5337   -4.3617    2.1877 C   0  0  0  0  0  0  0  0  0  0  0  0
    5.6450   -4.1349    3.2409 C   0  0  0  0  0  0  0  0  0  0  0  0
    3.8380   -5.6492    2.6994 C   0  0  0  0  0  0  0  0  0  0  0  0
    5.1130   -4.5347    0.7195 C   0  0  1  0  0  0  0  0  0  0  0  0
    3.9660   -5.1429   -0.1151 C   0  0  0  0  0  0  0  0  0  0  0  0
    2.8435   -4.0945   -0.2961 C   0  0  0  0  0  0  0  0  0  0  0  0
    3.3997   -2.6492   -0.1852 C   0  0  2  0  0  0  0  0  0  0  0  0
    2.3437   -0.4360   -4.4294 H   0  0  0  0  0  0  0  0  0  0  0  0
    3.3985   -1.1210   -5.6675 H   0  0  0  0  0  0  0  0  0  0  0  0
    3.7924    0.4345   -4.9654 H   0  0  0  0  0  0  0  0  0  0  0  0
    2.6824   -2.5588   -2.9936 H   0  0  0  0  0  0  0  0  0  0  0  0
    3.6381   -3.1923   -4.3259 H   0  0  0  0  0  0  0  0  0  0  0  0
    4.2828   -4.3276   -2.4072 H   0  0  0  0  0  0  0  0  0  0  0  0
    5.6378   -3.3547   -2.8380 H   0  0  0  0  0  0  0  0  0  0  0  0
    5.1961   -0.3857   -0.5976 H   0  0  0  0  0  0  0  0  0  0  0  0
    6.2012   -1.1691   -1.8174 H   0  0  0  0  0  0  0  0  0  0  0  0
    4.6513    0.5081   -2.7366 H   0  0  0  0  0  0  0  0  0  0  0  0
    3.2472   -0.3124   -2.0907 H   0  0  0  0  0  0  0  0  0  0  0  0
    6.6241   -3.5358   -0.5444 H   0  0  0  0  0  0  0  0  0  0  0  0
    6.7914   -2.5051    1.7552 H   0  0  0  0  0  0  0  0  0  0  0  0
    6.6836   -1.3355    0.5556 H   0  0  0  0  0  0  0  0  0  0  0  0
    4.9018   -1.3548    2.7153 H   0  0  0  0  0  0  0  0  0  0  0  0
    4.6658   -0.4901    1.2288 H   0  0  0  0  0  0  0  0  0  0  0  0
    6.5874   -4.5628    2.8889 H   0  0  0  0  0  0  0  0  0  0  0  0
    5.4367   -4.5933    4.2053 H   0  0  0  0  0  0  0  0  0  0  0  0
    5.8148   -3.0963    3.4960 H   0  0  0  0  0  0  0  0  0  0  0  0
    4.4708   -6.5302    2.5308 H   0  0  0  0  0  0  0  0  0  0  0  0
    2.8698   -5.8099    2.2226 H   0  0  0  0  0  0  0  0  0  0  0  0
    3.5998   -5.5862    3.7635 H   0  0  0  0  0  0  0  0  0  0  0  0
    5.9211   -5.2910    0.7795 H   0  0  0  0  0  0  0  0  0  0  0  0
    4.4187   -5.4900   -1.0212 H   0  0  0  0  0  0  0  0  0  0  0  0
    3.5734   -6.0684    0.2597 H   0  0  0  0  0  0  0  0  0  0  0  0
    2.3632   -4.2310   -1.2572 H   0  0  0  0  0  0  0  0  0  0  0  0
    2.0649   -4.2722    0.4424 H   0  0  0  0  0  0  0  0  0  0  0  0
    2.6624   -1.9319   -0.5580 H   0  0  0  0  0  0  0  0  0  0  0  0
    5.1376   -1.3450   -4.0415 H   0  0  0  0  0  0  0  0  0  0  0  0
    2.8361   -1.6388    1.4839 H   0  0  0  0  0  0  0  0  0  0  0  0
  1  2  1  0
  1 20  1  0
  1 21  1  0
  1 22  1  0
  2  7  1  0
  2  3  1  0
  2 48  1  6
  3  4  1  0
  3 23  1  0
  3 24  1  0
  5  4  1  6
  4 25  1  0
  4 26  1  0
  5 19  1  0
  5  6  1  0
  5  8  1  0
  6  7  1  0
  6 27  1  0
  6 28  1  0
  7 29  1  0
  7 30  1  0
  8 16  1  0
  8  9  1  0
  8 31  1  6
  9 10  1  0
  9 32  1  0
  9 33  1  0
 10 11  1  0
 10 34  1  0
 10 35  1  0
 11 19  1  0
 11 12  1  0
 11 49  1  1
 12 13  1  0
 13 14  1  0
 13 15  1  0
 13 16  1  0
 14 36  1  0
 14 37  1  0
 14 38  1  0
 15 39  1  0
 15 40  1  0
 15 41  1  0
 16 17  1  0
 16 42  1  1
 17 18  1  0
 17 43  1  0
 17 44  1  0
 18 19  1  0
 18 45  1  0
 18 46  1  0
 19 47  1  6
M  CHG  2   2   1  11   1
M  END
>  <i_m_ct_stereo_status>  (144) 
1

>  <s_m_source_file>  (144) 
/var/tmp/pbs.5076255.sched01/tmp7dp07en1/447ppmqug5.sdf

>  <i_m_source_file_index>  (144) 
21

>  <i_lp_mmshare_version>  (144) 
48012

>  <i_f3d_flags>  (144) 
0

>  <s_epik_input>  (144) 
W0NIMl0xW0NIMl1OKFtDSDNdKVtDSDJdW0NIMl1DMTJbQ0BASF0zW0NASF00QyhbQ0gzXSkoW0NIM10pT04oW0NIMl1bQ0gyXTMpW0NAQEhdMltDSDJdW0NIMl00

>  <s_epik_cmdline>  (144) 
J2VwaWtfcHl0aG9uJywgJy1waHQnLCAnMi4wJywgJy1waCcsICc3LjAnLCAnLXRuJywgJzgnLCAnLW1hJywgJzIwMCcsICctaW1hZScsICc8aW5maWxlLm1hZT4nLCAnLW9tYWUnLCAnPG91dGZpbGUubWFlPic=

>  <r_epik_Ionization_Penalty>  (144) 
1.10738

>  <r_epik_Ionization_Penalty_Charging>  (144) 
1.10738

>  <r_epik_Ionization_Penalty_Neutral>  (144) 
0

>  <r_epik_State_Penalty>  (144) 
1.47258

>  <r_epik_Charging_Adjusted_Penalty>  (144) 
2.57997

>  <i_epik_Tot_Q>  (144) 
2

>  <i_epik_Tot_abs_Q>  (144) 
2

>  <s_epik_Chemistry_Notes>  (144) 
This compound has a N-S or N-O group and may undergo hydrolysis at high or low pH.

>  <s_lp_Force_Field>  (144) 
OPLS3e

>  <r_lp_Energy>  (144) 
105.428

>  <b_lp_Chiralities_Consistent>  (144) 
1

>  <s_lp_Variant>  (144) 
46:0-3

>  <s_i_glide_gridfile>  (144) 
pfpi4k_grid

>  <i_i_glide_lignum>  (144) 
21

>  <i_i_glide_rotatable_bonds>  (144) 
0

>  <r_i_docking_score>  (144) 
-3.81357

>  <r_i_glide_ligand_efficiency>  (144) 
-0.200714

>  <r_i_glide_ligand_efficiency_sa>  (144) 
-0.535586

>  <r_i_glide_ligand_efficiency_ln>  (144) 
-0.966822

>  <r_i_glide_gscore>  (144) 
-3.81357

>  <r_i_glide_lipo>  (144) 
-0.836713

>  <r_i_glide_hbond>  (144) 
0

>  <r_i_glide_metal>  (144) 
-0

>  <r_i_glide_rewards>  (144) 
-1.59258

>  <r_i_glide_evdw>  (144) 
-15.2895

>  <r_i_glide_ecoul>  (144) 
-4.05999

>  <r_i_glide_erotb>  (144) 
0

>  <r_i_glide_esite>  (144) 
-0.0108083

>  <r_i_glide_emodel>  (144) 
-23.2619

>  <r_i_glide_energy>  (144) 
-19.3495

>  <r_i_glide_einternal>  (144) 
0

>  <r_i_glide_intrahb_reward>  (144) 
-0

>  <i_i_glide_confnum>  (144) 
2

>  <i_i_glide_posenum>  (144) 
36

>  <r_i_glide_eff_state_penalty>  (144) 
0

>  <ligand_id>  (144) 
46

>  <original_smiles>  (144) 
CN1CCC2(CC1)C1CCN3OC(C)(C)C1CCC32

>  <smiles>  (144) 
[H]C([H])([H])C1(C([H])([H])[H])O[N+]2([H])C([H])([H])C([H])([H])C3([H])C1([H])C([H])([H])C([H])([H])C2([H])C31C([H])([H])C([H])([H])[N+]([H])(C([H])([H])[H])C([H])([H])C1([H])[H]

$$$$
46:2:1
     RDKit          3D

 49 52  0  0  1  0  0  0  0  0999 V2000
    3.0061   -0.2093   -5.7091 C   0  0  0  0  0  0  0  0  0  0  0  0
    3.0667   -0.5390   -4.2933 N   0  0  2  0  0  0  0  0  0  0  0  0
    4.4373   -0.5845   -3.8761 C   0  0  0  0  0  0  0  0  0  0  0  0
    4.5920   -0.7176   -2.3840 C   0  0  0  0  0  0  0  0  0  0  0  0
    4.0065   -2.0857   -1.8926 C   0  0  2  0  0  0  0  0  0  0  0  0
    2.5873   -2.0771   -2.5109 C   0  0  0  0  0  0  0  0  0  0  0  0
    2.4637   -1.8427   -3.9936 C   0  0  0  0  0  0  0  0  0  0  0  0
    3.9777   -2.1631   -0.3322 C   0  0  1  0  0  0  0  0  0  0  0  0
    2.8719   -3.1837    0.0314 C   0  0  0  0  0  0  0  0  0  0  0  0
    3.1168   -4.4957   -0.7584 C   0  0  0  0  0  0  0  0  0  0  0  0
    4.4785   -4.5164   -1.4100 N   0  0  2  0  0  0  0  0  0  0  0  0
    5.4797   -4.9726   -0.4692 O   0  0  0  0  0  0  0  0  0  0  0  0
    5.6308   -4.0932    0.6538 C   0  0  0  0  0  0  0  0  0  0  0  0
    4.8173   -4.5541    1.8943 C   0  0  0  0  0  0  0  0  0  0  0  0
    7.1022   -4.4058    1.0219 C   0  0  0  0  0  0  0  0  0  0  0  0
    5.4061   -2.5734    0.2754 C   0  0  1  0  0  0  0  0  0  0  0  0
    6.5562   -2.2032   -0.6881 C   0  0  0  0  0  0  0  0  0  0  0  0
    6.3505   -2.9412   -2.0499 C   0  0  0  0  0  0  0  0  0  0  0  0
    4.8609   -3.3214   -2.2642 C   0  0  2  0  0  0  0  0  0  0  0  0
    3.5213   -0.9822   -6.2717 H   0  0  0  0  0  0  0  0  0  0  0  0
    3.4508    0.7569   -5.9464 H   0  0  0  0  0  0  0  0  0  0  0  0
    1.9436   -0.2017   -5.9156 H   0  0  0  0  0  0  0  0  0  0  0  0
    4.9515   -1.3793   -4.4121 H   0  0  0  0  0  0  0  0  0  0  0  0
    4.6819    0.3910   -4.2057 H   0  0  0  0  0  0  0  0  0  0  0  0
    5.6426   -0.5779   -2.2517 H   0  0  0  0  0  0  0  0  0  0  0  0
    4.1937    0.1380   -1.8552 H   0  0  0  0  0  0  0  0  0  0  0  0
    1.8919   -2.8929   -2.3023 H   0  0  0  0  0  0  0  0  0  0  0  0
    2.2406   -1.1576   -2.0366 H   0  0  0  0  0  0  0  0  0  0  0  0
    1.4145   -1.8826   -4.3184 H   0  0  0  0  0  0  0  0  0  0  0  0
    2.9535   -2.6469   -4.5337 H   0  0  0  0  0  0  0  0  0  0  0  0
    3.6596   -1.1933    0.0586 H   0  0  0  0  0  0  0  0  0  0  0  0
    2.7921   -3.3431    1.0952 H   0  0  0  0  0  0  0  0  0  0  0  0
    1.8738   -2.8029   -0.1933 H   0  0  0  0  0  0  0  0  0  0  0  0
    2.9549   -5.4040   -0.1837 H   0  0  0  0  0  0  0  0  0  0  0  0
    2.3225   -4.6133   -1.5007 H   0  0  0  0  0  0  0  0  0  0  0  0
    4.5792   -3.7072    2.5391 H   0  0  0  0  0  0  0  0  0  0  0  0
    5.3555   -5.2689    2.5127 H   0  0  0  0  0  0  0  0  0  0  0  0
    3.8908   -5.0679    1.6592 H   0  0  0  0  0  0  0  0  0  0  0  0
    7.4769   -3.6909    1.7472 H   0  0  0  0  0  0  0  0  0  0  0  0
    7.7748   -4.3979    0.1642 H   0  0  0  0  0  0  0  0  0  0  0  0
    7.2186   -5.4071    1.4344 H   0  0  0  0  0  0  0  0  0  0  0  0
    5.5306   -1.9767    1.1785 H   0  0  0  0  0  0  0  0  0  0  0  0
    6.6130   -1.1230   -0.7117 H   0  0  0  0  0  0  0  0  0  0  0  0
    7.5568   -2.4012   -0.3262 H   0  0  0  0  0  0  0  0  0  0  0  0
    6.7076   -2.3188   -2.8545 H   0  0  0  0  0  0  0  0  0  0  0  0
    6.9713   -3.8273   -2.1395 H   0  0  0  0  0  0  0  0  0  0  0  0
    4.6986   -3.5831   -3.3167 H   0  0  0  0  0  0  0  0  0  0  0  0
    2.6296    0.2170   -3.7751 H   0  0  0  0  0  0  0  0  0  0  0  0
    4.3513   -5.2485   -2.1140 H   0  0  0  0  0  0  0  0  0  0  0  0
  1  2  1  0
  1 20  1  0
  1 21  1  0
  1 22  1  0
  2  7  1  0
  2  3  1  0
  2 48  1  1
  3  4  1  0
  3 23  1  0
  3 24  1  0
  5  4  1  1
  4 25  1  0
  4 26  1  0
  5 19  1  0
  5  6  1  0
  5  8  1  0
  6  7  1  0
  6 27  1  0
  6 28  1  0
  7 29  1  0
  7 30  1  0
  8 16  1  0
  8  9  1  0
  8 31  1  1
  9 10  1  0
  9 32  1  0
  9 33  1  0
 10 11  1  0
 10 34  1  0
 10 35  1  0
 11 19  1  0
 11 12  1  0
 11 49  1  6
 12 13  1  0
 13 14  1  0
 13 15  1  0
 13 16  1  0
 14 36  1  0
 14 37  1  0
 14 38  1  0
 15 39  1  0
 15 40  1  0
 15 41  1  0
 16 17  1  0
 16 42  1  1
 17 18  1  0
 17 43  1  0
 17 44  1  0
 18 19  1  0
 18 45  1  0
 18 46  1  0
 19 47  1  6
M  CHG  2   2   1  11   1
M  END
>  <i_m_ct_stereo_status>  (145) 
1

>  <s_m_source_file>  (145) 
/var/tmp/pbs.5076255.sched01/tmp7dp07en1/447ppmqug5.sdf

>  <i_m_source_file_index>  (145) 
21

>  <i_lp_mmshare_version>  (145) 
48012

>  <i_f3d_flags>  (145) 
0

>  <s_epik_input>  (145) 
W0NIMl0xW0NIMl1OKFtDSDNdKVtDSDJdW0NIMl1DMTJbQ0BASF0zW0NASF00QyhbQ0gzXSkoW0NIM10pT04oW0NIMl1bQ0gyXTMpW0NAQEhdMltDSDJdW0NIMl00

>  <s_epik_cmdline>  (145) 
J2VwaWtfcHl0aG9uJywgJy1waHQnLCAnMi4wJywgJy1waCcsICc3LjAnLCAnLXRuJywgJzgnLCAnLW1hJywgJzIwMCcsICctaW1hZScsICc8aW5maWxlLm1hZT4nLCAnLW9tYWUnLCAnPG91dGZpbGUubWFlPic=

>  <r_epik_Ionization_Penalty>  (145) 
1.10738

>  <r_epik_Ionization_Penalty_Charging>  (145) 
1.10738

>  <r_epik_Ionization_Penalty_Neutral>  (145) 
0

>  <r_epik_State_Penalty>  (145) 
1.47258

>  <r_epik_Charging_Adjusted_Penalty>  (145) 
2.57997

>  <i_epik_Tot_Q>  (145) 
2

>  <i_epik_Tot_abs_Q>  (145) 
2

>  <s_epik_Chemistry_Notes>  (145) 
This compound has a N-S or N-O group and may undergo hydrolysis at high or low pH.

>  <s_lp_Force_Field>  (145) 
OPLS3e

>  <r_lp_Energy>  (145) 
105.428

>  <b_lp_Chiralities_Consistent>  (145) 
1

>  <s_lp_Variant>  (145) 
46:0-3

>  <s_i_glide_gridfile>  (145) 
pfpi4k_grid

>  <i_i_glide_lignum>  (145) 
21

>  <i_i_glide_rotatable_bonds>  (145) 
0

>  <r_i_docking_score>  (145) 
-3.37117

>  <r_i_glide_ligand_efficiency>  (145) 
-0.17743

>  <r_i_glide_ligand_efficiency_sa>  (145) 
-0.473454

>  <r_i_glide_ligand_efficiency_ln>  (145) 
-0.854663

>  <r_i_glide_gscore>  (145) 
-3.37117

>  <r_i_glide_lipo>  (145) 
-0.631345

>  <r_i_glide_hbond>  (145) 
0

>  <r_i_glide_metal>  (145) 
-0

>  <r_i_glide_rewards>  (145) 
-1.59258

>  <r_i_glide_evdw>  (145) 
2.15927

>  <r_i_glide_ecoul>  (145) 
-8.64194

>  <r_i_glide_erotb>  (145) 
0

>  <r_i_glide_esite>  (145) 
-0.0430227

>  <r_i_glide_emodel>  (145) 
-6.13903

>  <r_i_glide_energy>  (145) 
-6.48268

>  <r_i_glide_einternal>  (145) 
0

>  <r_i_glide_intrahb_reward>  (145) 
-0

>  <i_i_glide_confnum>  (145) 
2

>  <i_i_glide_posenum>  (145) 
28

>  <r_i_glide_eff_state_penalty>  (145) 
0

>  <ligand_id>  (145) 
46

>  <original_smiles>  (145) 
CN1CCC2(CC1)C1CCN3OC(C)(C)C1CCC32

>  <smiles>  (145) 
[H]C([H])([H])C1(C([H])([H])[H])O[N+]2([H])C([H])([H])C([H])([H])C3([H])C1([H])C([H])([H])C([H])([H])C2([H])C31C([H])([H])C([H])([H])[N+]([H])(C([H])([H])[H])C([H])([H])C1([H])[H]

$$$$
46:2:2
     RDKit          3D

 49 52  0  0  1  0  0  0  0  0999 V2000
    3.8238    0.1931   -5.0949 C   0  0  0  0  0  0  0  0  0  0  0  0
    3.4793   -0.6111   -3.9097 N   0  0  2  0  0  0  0  0  0  0  0  0
    4.2000   -0.1071   -2.7360 C   0  0  0  0  0  0  0  0  0  0  0  0
    3.7156   -0.7884   -1.4774 C   0  0  0  0  0  0  0  0  0  0  0  0
    3.9811   -2.3278   -1.4499 C   0  0  2  0  0  0  0  0  0  0  0  0
    3.3248   -2.8055   -2.8384 C   0  0  0  0  0  0  0  0  0  0  0  0
    3.7840   -2.0385   -4.0614 C   0  0  0  0  0  0  0  0  0  0  0  0
    3.3378   -3.0506   -0.2115 C   0  0  1  0  0  0  0  0  0  0  0  0
    3.2345   -4.5365   -0.6150 C   0  0  0  0  0  0  0  0  0  0  0  0
    4.6412   -5.0331   -1.1266 C   0  0  0  0  0  0  0  0  0  0  0  0
    5.7297   -4.0854   -0.8144 N   0  0  2  0  0  0  0  0  0  0  0  0
    6.1868   -4.2969    0.5506 O   0  0  0  0  0  0  0  0  0  0  0  0
    5.1262   -4.0828    1.5089 C   0  0  0  0  0  0  0  0  0  0  0  0
    4.4038   -5.3721    1.9810 C   0  0  0  0  0  0  0  0  0  0  0  0
    5.9642   -3.7311    2.7039 C   0  0  0  0  0  0  0  0  0  0  0  0
    4.1751   -2.8793    1.1390 C   0  0  1  0  0  0  0  0  0  0  0  0
    5.0466   -1.5973    1.0975 C   0  0  0  0  0  0  0  0  0  0  0  0
    6.0383   -1.6875   -0.1059 C   0  0  0  0  0  0  0  0  0  0  0  0
    5.4845   -2.6417   -1.2071 C   0  0  2  0  0  0  0  0  0  0  0  0
    4.9020    0.1420   -5.1045 H   0  0  0  0  0  0  0  0  0  0  0  0
    3.5713    1.2648   -4.9790 H   0  0  0  0  0  0  0  0  0  0  0  0
    3.3920   -0.2027   -6.0263 H   0  0  0  0  0  0  0  0  0  0  0  0
    5.2795   -0.2417   -2.7420 H   0  0  0  0  0  0  0  0  0  0  0  0
    3.9934    0.9485   -2.7700 H   0  0  0  0  0  0  0  0  0  0  0  0
    4.0672   -0.1450   -0.6708 H   0  0  0  0  0  0  0  0  0  0  0  0
    2.6402   -0.6839   -1.4283 H   0  0  0  0  0  0  0  0  0  0  0  0
    3.4643   -3.8329   -3.1947 H   0  0  0  0  0  0  0  0  0  0  0  0
    2.2452   -2.6597   -2.7504 H   0  0  0  0  0  0  0  0  0  0  0  0
    3.2743   -2.4397   -4.9389 H   0  0  0  0  0  0  0  0  0  0  0  0
    4.8585   -2.1792   -4.1836 H   0  0  0  0  0  0  0  0  0  0  0  0
    2.3278   -2.6725   -0.0524 H   0  0  0  0  0  0  0  0  0  0  0  0
    2.8118   -5.1678    0.1608 H   0  0  0  0  0  0  0  0  0  0  0  0
    2.4260   -4.6417   -1.3348 H   0  0  0  0  0  0  0  0  0  0  0  0
    4.8640   -6.0500   -0.7994 H   0  0  0  0  0  0  0  0  0  0  0  0
    4.7311   -5.0413   -2.2030 H   0  0  0  0  0  0  0  0  0  0  0  0
    3.4113   -5.1244    2.3652 H   0  0  0  0  0  0  0  0  0  0  0  0
    4.9293   -5.8799    2.7880 H   0  0  0  0  0  0  0  0  0  0  0  0
    4.3103   -6.1375    1.2175 H   0  0  0  0  0  0  0  0  0  0  0  0
    5.3980   -3.3107    3.5371 H   0  0  0  0  0  0  0  0  0  0  0  0
    6.6698   -2.9951    2.3606 H   0  0  0  0  0  0  0  0  0  0  0  0
    6.5570   -4.5934    3.0153 H   0  0  0  0  0  0  0  0  0  0  0  0
    3.4494   -2.7717    1.9499 H   0  0  0  0  0  0  0  0  0  0  0  0
    4.3746   -0.7490    1.0965 H   0  0  0  0  0  0  0  0  0  0  0  0
    5.6085   -1.3800    2.0062 H   0  0  0  0  0  0  0  0  0  0  0  0
    6.1925   -0.7037   -0.5280 H   0  0  0  0  0  0  0  0  0  0  0  0
    7.0393   -2.0055    0.1967 H   0  0  0  0  0  0  0  0  0  0  0  0
    6.0116   -2.4828   -2.1419 H   0  0  0  0  0  0  0  0  0  0  0  0
    2.4836   -0.4930   -3.7438 H   0  0  0  0  0  0  0  0  0  0  0  0
    6.4363   -4.3697   -1.4709 H   0  0  0  0  0  0  0  0  0  0  0  0
  1  2  1  0
  1 20  1  0
  1 21  1  0
  1 22  1  0
  2  7  1  0
  2  3  1  0
  2 48  1  1
  3  4  1  0
  3 23  1  0
  3 24  1  0
  5  4  1  1
  4 25  1  0
  4 26  1  0
  5 19  1  0
  5  6  1  0
  5  8  1  0
  6  7  1  0
  6 27  1  0
  6 28  1  0
  7 29  1  0
  7 30  1  0
  8 16  1  0
  8  9  1  0
  8 31  1  1
  9 10  1  0
  9 32  1  0
  9 33  1  0
 10 11  1  0
 10 34  1  0
 10 35  1  0
 11 19  1  0
 11 12  1  0
 11 49  1  6
 12 13  1  0
 13 14  1  0
 13 15  1  0
 13 16  1  0
 14 36  1  0
 14 37  1  0
 14 38  1  0
 15 39  1  0
 15 40  1  0
 15 41  1  0
 16 17  1  0
 16 42  1  1
 17 18  1  0
 17 43  1  0
 17 44  1  0
 18 19  1  0
 18 45  1  0
 18 46  1  0
 19 47  1  6
M  CHG  2   2   1  11   1
M  END
>  <i_m_ct_stereo_status>  (146) 
1

>  <s_m_source_file>  (146) 
/var/tmp/pbs.5076255.sched01/tmp7dp07en1/447ppmqug5.sdf

>  <i_m_source_file_index>  (146) 
21

>  <i_lp_mmshare_version>  (146) 
48012

>  <i_f3d_flags>  (146) 
0

>  <s_epik_input>  (146) 
W0NIMl0xW0NIMl1OKFtDSDNdKVtDSDJdW0NIMl1DMTJbQ0BASF0zW0NASF00QyhbQ0gzXSkoW0NIM10pT04oW0NIMl1bQ0gyXTMpW0NAQEhdMltDSDJdW0NIMl00

>  <s_epik_cmdline>  (146) 
J2VwaWtfcHl0aG9uJywgJy1waHQnLCAnMi4wJywgJy1waCcsICc3LjAnLCAnLXRuJywgJzgnLCAnLW1hJywgJzIwMCcsICctaW1hZScsICc8aW5maWxlLm1hZT4nLCAnLW9tYWUnLCAnPG91dGZpbGUubWFlPic=

>  <r_epik_Ionization_Penalty>  (146) 
1.10738

>  <r_epik_Ionization_Penalty_Charging>  (146) 
1.10738

>  <r_epik_Ionization_Penalty_Neutral>  (146) 
0

>  <r_epik_State_Penalty>  (146) 
1.47258

>  <r_epik_Charging_Adjusted_Penalty>  (146) 
2.57997

>  <i_epik_Tot_Q>  (146) 
2

>  <i_epik_Tot_abs_Q>  (146) 
2

>  <s_epik_Chemistry_Notes>  (146) 
This compound has a N-S or N-O group and may undergo hydrolysis at high or low pH.

>  <s_lp_Force_Field>  (146) 
OPLS3e

>  <r_lp_Energy>  (146) 
105.428

>  <b_lp_Chiralities_Consistent>  (146) 
1

>  <s_lp_Variant>  (146) 
46:0-3

>  <s_i_glide_gridfile>  (146) 
pfpi4k_grid

>  <i_i_glide_lignum>  (146) 
21

>  <i_i_glide_rotatable_bonds>  (146) 
0

>  <r_i_docking_score>  (146) 
-2.71489

>  <r_i_glide_ligand_efficiency>  (146) 
-0.142889

>  <r_i_glide_ligand_efficiency_sa>  (146) 
-0.381285

>  <r_i_glide_ligand_efficiency_ln>  (146) 
-0.688282

>  <r_i_glide_gscore>  (146) 
-2.71489

>  <r_i_glide_lipo>  (146) 
-0.397157

>  <r_i_glide_hbond>  (146) 
0

>  <r_i_glide_metal>  (146) 
-0

>  <r_i_glide_rewards>  (146) 
-1.59258

>  <r_i_glide_evdw>  (146) 
-4.61949

>  <r_i_glide_ecoul>  (146) 
-3.29453

>  <r_i_glide_erotb>  (146) 
0

>  <r_i_glide_esite>  (146) 
0

>  <r_i_glide_emodel>  (146) 
-9.89513

>  <r_i_glide_energy>  (146) 
-7.91402

>  <r_i_glide_einternal>  (146) 
0

>  <r_i_glide_intrahb_reward>  (146) 
-0

>  <i_i_glide_confnum>  (146) 
2

>  <i_i_glide_posenum>  (146) 
29

>  <r_i_glide_eff_state_penalty>  (146) 
0

>  <ligand_id>  (146) 
46

>  <original_smiles>  (146) 
CN1CCC2(CC1)C1CCN3OC(C)(C)C1CCC32

>  <smiles>  (146) 
[H]C([H])([H])C1(C([H])([H])[H])O[N+]2([H])C([H])([H])C([H])([H])C3([H])C1([H])C([H])([H])C([H])([H])C2([H])C31C([H])([H])C([H])([H])[N+]([H])(C([H])([H])[H])C([H])([H])C1([H])[H]

$$$$
47:0:0
     RDKit          3D

 50 54  0  0  1  0  0  0  0  0999 V2000
    6.3882   -5.9554    5.6440 C   0  0  0  0  0  0  0  0  0  0  0  0
    5.5578   -4.9709    5.0440 O   0  0  0  0  0  0  0  0  0  0  0  0
    5.4418   -4.9538    3.6715 C   0  0  0  0  0  0  0  0  0  0  0  0
    6.0740   -5.8899    2.7882 C   0  0  0  0  0  0  0  0  0  0  0  0
    5.7840   -5.9060    1.3934 C   0  0  0  0  0  0  0  0  0  0  0  0
    4.9634   -4.8834    0.8778 C   0  0  0  0  0  0  0  0  0  0  0  0
    4.5656   -3.8933    1.7456 C   0  0  0  0  0  0  0  0  0  0  0  0
    4.6138   -3.9536    3.1079 C   0  0  0  0  0  0  0  0  0  0  0  0
    3.6884   -3.1266    3.6610 O   0  0  0  0  0  0  0  0  0  0  0  0
    2.7973   -2.7715    2.5644 C   0  0  1  0  0  0  0  0  0  0  0  0
    2.1418   -1.4332    2.8863 C   0  0  0  0  0  0  0  0  0  0  0  0
    1.0150   -1.1570    2.4773 O   0  0  0  0  0  0  0  0  0  0  0  0
    2.9484   -0.4577    3.7372 C   0  0  0  0  0  0  0  0  0  0  0  0
    4.0831    0.2310    2.9556 C   0  0  0  0  0  0  0  0  0  0  0  0
    5.0412   -0.6764    2.1445 C   0  0  0  0  0  0  0  0  0  0  0  0
    4.3557   -1.4139    0.9602 C   0  0  1  0  0  0  0  0  0  0  0  0
    5.1709   -1.3807   -0.3560 C   0  0  1  0  0  0  0  0  0  0  0  0
    6.5605   -2.0539   -0.2931 C   0  0  0  0  0  0  0  0  0  0  0  0
    4.3084   -1.8257   -1.5677 C   0  0  0  0  0  0  0  0  0  0  0  0
    3.0288   -2.5031   -1.1936 N   0  0  1  0  0  0  0  0  0  0  0  0
    2.3248   -3.0576   -2.3755 C   0  0  0  0  0  0  0  0  0  0  0  0
    3.1884   -3.4688   -0.0642 C   0  0  1  0  0  0  0  0  0  0  0  0
    4.1884   -4.6373   -0.3914 C   0  0  0  0  0  0  0  0  0  0  0  0
    3.6790   -2.8071    1.2634 C   0  0  1  0  0  0  0  0  0  0  0  0
    6.3488   -5.8402    6.7274 H   0  0  0  0  0  0  0  0  0  0  0  0
    7.4306   -5.8416    5.3429 H   0  0  0  0  0  0  0  0  0  0  0  0
    6.0518   -6.9676    5.4148 H   0  0  0  0  0  0  0  0  0  0  0  0
    6.7246   -6.6554    3.1707 H   0  0  0  0  0  0  0  0  0  0  0  0
    6.1511   -6.6980    0.7545 H   0  0  0  0  0  0  0  0  0  0  0  0
    2.0264   -3.5440    2.5139 H   0  0  0  0  0  0  0  0  0  0  0  0
    2.2709    0.2943    4.1363 H   0  0  0  0  0  0  0  0  0  0  0  0
    3.3603   -0.9793    4.6010 H   0  0  0  0  0  0  0  0  0  0  0  0
    3.6437    0.9782    2.2937 H   0  0  0  0  0  0  0  0  0  0  0  0
    4.6764    0.8010    3.6708 H   0  0  0  0  0  0  0  0  0  0  0  0
    5.7964   -0.0086    1.7320 H   0  0  0  0  0  0  0  0  0  0  0  0
    5.5921   -1.3605    2.7876 H   0  0  0  0  0  0  0  0  0  0  0  0
    3.5292   -0.7510    0.6958 H   0  0  0  0  0  0  0  0  0  0  0  0
    5.3936   -0.3314   -0.5431 H   0  0  0  0  0  0  0  0  0  0  0  0
    6.5110   -3.1334   -0.1942 H   0  0  0  0  0  0  0  0  0  0  0  0
    7.1461   -1.6854    0.5510 H   0  0  0  0  0  0  0  0  0  0  0  0
    7.1372   -1.8599   -1.1974 H   0  0  0  0  0  0  0  0  0  0  0  0
    4.0530   -0.9518   -2.1666 H   0  0  0  0  0  0  0  0  0  0  0  0
    4.8963   -2.4643   -2.2299 H   0  0  0  0  0  0  0  0  0  0  0  0
    2.9000   -3.8553   -2.8495 H   0  0  0  0  0  0  0  0  0  0  0  0
    2.1715   -2.2722   -3.1161 H   0  0  0  0  0  0  0  0  0  0  0  0
    1.3450   -3.4470   -2.1039 H   0  0  0  0  0  0  0  0  0  0  0  0
    2.2137   -3.9069    0.1421 H   0  0  0  0  0  0  0  0  0  0  0  0
    4.8813   -4.4242   -1.2038 H   0  0  0  0  0  0  0  0  0  0  0  0
    3.6433   -5.5362   -0.6667 H   0  0  0  0  0  0  0  0  0  0  0  0
    2.3946   -1.7709   -0.8571 H   0  0  0  0  0  0  0  0  0  0  0  0
  1  2  1  0
  1 25  1  0
  1 26  1  0
  1 27  1  0
  2  3  1  0
  3  8  2  0
  3  4  1  0
  4  5  2  0
  4 28  1  0
  5  6  1  0
  5 29  1  0
  6 23  1  0
  6  7  2  0
 24  7  1  1
  7  8  1  0
  8  9  1  0
  9 10  1  0
 10 24  1  0
 10 11  1  0
 10 30  1  6
 11 12  2  0
 11 13  1  0
 13 14  1  0
 13 31  1  0
 13 32  1  0
 14 15  1  0
 14 33  1  0
 14 34  1  0
 15 16  1  0
 15 35  1  0
 15 36  1  0
 16 24  1  0
 16 17  1  0
 16 37  1  6
 17 18  1  0
 17 19  1  0
 17 38  1  6
 18 39  1  0
 18 40  1  0
 18 41  1  0
 19 20  1  0
 19 42  1  0
 19 43  1  0
 20 21  1  0
 20 22  1  0
 20 50  1  1
 21 44  1  0
 21 45  1  0
 21 46  1  0
 22 23  1  0
 22 24  1  0
 22 47  1  1
 23 48  1  0
 23 49  1  0
M  CHG  1  20   1
M  END
>  <i_m_ct_stereo_status>  (147) 
1

>  <s_m_source_file>  (147) 
/var/tmp/pbs.5076255.sched01/tmp7dp07en1/447ppmqug5.sdf

>  <i_m_source_file_index>  (147) 
22

>  <i_lp_mmshare_version>  (147) 
48012

>  <i_f3d_flags>  (147) 
0

>  <s_epik_input>  (147) 
W0NAXTEyM2M0YzVbY0hdW2NIXWMoT1tDSDNdKWM0T1tDQEhdMUMoPU8pW0NIMl1bQ0gyXVtDSDJdW0NASF0yW0NAQEhdKFtDSDNdKVtDSDJdTihbQ0gzXSlbQ0BIXTNbQ0gyXTU=

>  <s_epik_cmdline>  (147) 
J2VwaWtfcHl0aG9uJywgJy1waHQnLCAnMi4wJywgJy1waCcsICc3LjAnLCAnLXRuJywgJzgnLCAnLW1hJywgJzIwMCcsICctaW1hZScsICc8aW5maWxlLm1hZT4nLCAnLW9tYWUnLCAnPG91dGZpbGUubWFlPic=

>  <r_lp_tautomer_probability>  (147) 
1

>  <r_epik_Ionization_Penalty>  (147) 
0.0210999

>  <r_epik_Ionization_Penalty_Charging>  (147) 
0.0210999

>  <r_epik_Ionization_Penalty_Neutral>  (147) 
7.34763e-11

>  <r_epik_State_Penalty>  (147) 
0.0169501

>  <r_epik_Charging_Adjusted_Penalty>  (147) 
0.03805

>  <i_epik_Tot_Q>  (147) 
1

>  <i_epik_Tot_abs_Q>  (147) 
1

>  <s_lp_Force_Field>  (147) 
OPLS3e

>  <r_lp_Energy>  (147) 
81.6852

>  <b_lp_Chiralities_Consistent>  (147) 
1

>  <s_lp_Variant>  (147) 
47:0-1

>  <s_i_glide_gridfile>  (147) 
pfpi4k_grid

>  <i_i_glide_lignum>  (147) 
22

>  <i_i_glide_rotatable_bonds>  (147) 
1

>  <r_i_docking_score>  (147) 
-3.45646

>  <r_i_glide_ligand_efficiency>  (147) 
-0.144019

>  <r_i_glide_ligand_efficiency_sa>  (147) 
-0.415423

>  <r_i_glide_ligand_efficiency_ln>  (147) 
-0.82729

>  <r_i_glide_gscore>  (147) 
-3.45646

>  <r_i_glide_lipo>  (147) 
-0.397912

>  <r_i_glide_hbond>  (147) 
-0.199492

>  <r_i_glide_metal>  (147) 
-0

>  <r_i_glide_rewards>  (147) 
-1.16983

>  <r_i_glide_evdw>  (147) 
-18.7988

>  <r_i_glide_ecoul>  (147) 
-4.51756

>  <r_i_glide_erotb>  (147) 
0

>  <r_i_glide_esite>  (147) 
-0.0716559

>  <r_i_glide_emodel>  (147) 
-29.2526

>  <r_i_glide_energy>  (147) 
-23.3164

>  <r_i_glide_einternal>  (147) 
0.00326637

>  <r_i_glide_intrahb_reward>  (147) 
-0

>  <i_i_glide_confnum>  (147) 
1

>  <i_i_glide_posenum>  (147) 
23

>  <r_i_glide_eff_state_penalty>  (147) 
0

>  <ligand_id>  (147) 
47

>  <original_smiles>  (147) 
COc1ccc2c3c1OC1C(=O)CCCC4C(C)CN(C)C(C2)C314

>  <smiles>  (147) 
[H]c1c([H])c2c3c(c1OC([H])([H])[H])OC1([H])C(=O)C([H])([H])C([H])([H])C([H])([H])C4([H])C([H])(C([H])([H])[H])C([H])([H])[N+]([H])(C([H])([H])[H])C([H])(C2([H])[H])C314

$$$$
47:0:1
     RDKit          3D

 50 54  0  0  1  0  0  0  0  0999 V2000
    4.8540   -6.2963    5.5346 C   0  0  0  0  0  0  0  0  0  0  0  0
    4.3165   -5.1240    4.9396 O   0  0  0  0  0  0  0  0  0  0  0  0
    4.4976   -4.9263    3.5887 C   0  0  0  0  0  0  0  0  0  0  0  0
    5.1977   -5.8262    2.7212 C   0  0  0  0  0  0  0  0  0  0  0  0
    5.2064   -5.6401    1.3085 C   0  0  0  0  0  0  0  0  0  0  0  0
    4.6260   -4.4660    0.7946 C   0  0  0  0  0  0  0  0  0  0  0  0
    4.1611   -3.5421    1.7003 C   0  0  0  0  0  0  0  0  0  0  0  0
    3.9171   -3.7662    3.0252 C   0  0  0  0  0  0  0  0  0  0  0  0
    2.9840   -2.8967    3.5000 O   0  0  0  0  0  0  0  0  0  0  0  0
    2.3840   -2.2987    2.3150 C   0  0  1  0  0  0  0  0  0  0  0  0
    1.8163   -0.9298    2.6890 C   0  0  0  0  0  0  0  0  0  0  0  0
    0.8410   -0.4520    2.1146 O   0  0  0  0  0  0  0  0  0  0  0  0
    2.5275   -0.1822    3.8140 C   0  0  0  0  0  0  0  0  0  0  0  0
    3.8651    0.4416    3.3724 C   0  0  0  0  0  0  0  0  0  0  0  0
    4.8704   -0.4852    2.6431 C   0  0  0  0  0  0  0  0  0  0  0  0
    4.3774   -0.9786    1.2531 C   0  0  1  0  0  0  0  0  0  0  0  0
    5.4490   -0.8973    0.1379 C   0  0  1  0  0  0  0  0  0  0  0  0
    6.7157   -1.7503    0.3761 C   0  0  0  0  0  0  0  0  0  0  0  0
    4.8178   -1.0843   -1.2693 C   0  0  0  0  0  0  0  0  0  0  0  0
    3.4265   -1.6271   -1.2493 N   0  0  1  0  0  0  0  0  0  0  0  0
    2.9369   -1.9423   -2.6131 C   0  0  0  0  0  0  0  0  0  0  0  0
    3.2462   -2.7284   -0.2622 C   0  0  1  0  0  0  0  0  0  0  0  0
    4.1680   -3.9611   -0.5543 C   0  0  0  0  0  0  0  0  0  0  0  0
    3.5119   -2.2975    1.2174 C   0  0  1  0  0  0  0  0  0  0  0  0
    4.6043   -6.3044    6.5960 H   0  0  0  0  0  0  0  0  0  0  0  0
    5.9412   -6.3265    5.4578 H   0  0  0  0  0  0  0  0  0  0  0  0
    4.4341   -7.2028    5.0975 H   0  0  0  0  0  0  0  0  0  0  0  0
    5.6667   -6.7120    3.1106 H   0  0  0  0  0  0  0  0  0  0  0  0
    5.6130   -6.3920    0.6465 H   0  0  0  0  0  0  0  0  0  0  0  0
    1.5658   -2.9531    2.0104 H   0  0  0  0  0  0  0  0  0  0  0  0
    1.8606    0.5981    4.1745 H   0  0  0  0  0  0  0  0  0  0  0  0
    2.6908   -0.8542    4.6559 H   0  0  0  0  0  0  0  0  0  0  0  0
    3.6507    1.3144    2.7546 H   0  0  0  0  0  0  0  0  0  0  0  0
    4.3542    0.8394    4.2605 H   0  0  0  0  0  0  0  0  0  0  0  0
    5.7651    0.1174    2.4890 H   0  0  0  0  0  0  0  0  0  0  0  0
    5.1921   -1.3110    3.2756 H   0  0  0  0  0  0  0  0  0  0  0  0
    3.6979   -0.1866    0.9311 H   0  0  0  0  0  0  0  0  0  0  0  0
    5.8187    0.1274    0.1550 H   0  0  0  0  0  0  0  0  0  0  0  0
    6.5392   -2.8201    0.3067 H   0  0  0  0  0  0  0  0  0  0  0  0
    7.1349   -1.5566    1.3630 H   0  0  0  0  0  0  0  0  0  0  0  0
    7.5017   -1.5194   -0.3413 H   0  0  0  0  0  0  0  0  0  0  0  0
    4.7816   -0.1256   -1.7843 H   0  0  0  0  0  0  0  0  0  0  0  0
    5.4673   -1.7094   -1.8833 H   0  0  0  0  0  0  0  0  0  0  0  0
    3.5164   -2.7427   -3.0748 H   0  0  0  0  0  0  0  0  0  0  0  0
    3.0183   -1.0556   -3.2477 H   0  0  0  0  0  0  0  0  0  0  0  0
    1.8882   -2.2423   -2.5951 H   0  0  0  0  0  0  0  0  0  0  0  0
    2.2080   -3.0566   -0.3151 H   0  0  0  0  0  0  0  0  0  0  0  0
    5.0388   -3.7480   -1.1744 H   0  0  0  0  0  0  0  0  0  0  0  0
    3.5922   -4.7201   -1.0702 H   0  0  0  0  0  0  0  0  0  0  0  0
    2.8047   -0.8943   -0.9231 H   0  0  0  0  0  0  0  0  0  0  0  0
  1  2  1  0
  1 25  1  0
  1 26  1  0
  1 27  1  0
  2  3  1  0
  3  8  2  0
  3  4  1  0
  4  5  2  0
  4 28  1  0
  5  6  1  0
  5 29  1  0
  6 23  1  0
  6  7  2  0
 24  7  1  1
  7  8  1  0
  8  9  1  0
  9 10  1  0
 10 24  1  0
 10 11  1  0
 10 30  1  6
 11 12  2  0
 11 13  1  0
 13 14  1  0
 13 31  1  0
 13 32  1  0
 14 15  1  0
 14 33  1  0
 14 34  1  0
 15 16  1  0
 15 35  1  0
 15 36  1  0
 16 24  1  0
 16 17  1  0
 16 37  1  6
 17 18  1  0
 17 19  1  0
 17 38  1  6
 18 39  1  0
 18 40  1  0
 18 41  1  0
 19 20  1  0
 19 42  1  0
 19 43  1  0
 20 21  1  0
 20 22  1  0
 20 50  1  1
 21 44  1  0
 21 45  1  0
 21 46  1  0
 22 23  1  0
 22 24  1  0
 22 47  1  1
 23 48  1  0
 23 49  1  0
M  CHG  1  20   1
M  END
>  <i_m_ct_stereo_status>  (148) 
1

>  <s_m_source_file>  (148) 
/var/tmp/pbs.5076255.sched01/tmp7dp07en1/447ppmqug5.sdf

>  <i_m_source_file_index>  (148) 
22

>  <i_lp_mmshare_version>  (148) 
48012

>  <i_f3d_flags>  (148) 
0

>  <s_epik_input>  (148) 
W0NAXTEyM2M0YzVbY0hdW2NIXWMoT1tDSDNdKWM0T1tDQEhdMUMoPU8pW0NIMl1bQ0gyXVtDSDJdW0NASF0yW0NAQEhdKFtDSDNdKVtDSDJdTihbQ0gzXSlbQ0BIXTNbQ0gyXTU=

>  <s_epik_cmdline>  (148) 
J2VwaWtfcHl0aG9uJywgJy1waHQnLCAnMi4wJywgJy1waCcsICc3LjAnLCAnLXRuJywgJzgnLCAnLW1hJywgJzIwMCcsICctaW1hZScsICc8aW5maWxlLm1hZT4nLCAnLW9tYWUnLCAnPG91dGZpbGUubWFlPic=

>  <r_lp_tautomer_probability>  (148) 
1

>  <r_epik_Ionization_Penalty>  (148) 
0.0210999

>  <r_epik_Ionization_Penalty_Charging>  (148) 
0.0210999

>  <r_epik_Ionization_Penalty_Neutral>  (148) 
7.34763e-11

>  <r_epik_State_Penalty>  (148) 
0.0169501

>  <r_epik_Charging_Adjusted_Penalty>  (148) 
0.03805

>  <i_epik_Tot_Q>  (148) 
1

>  <i_epik_Tot_abs_Q>  (148) 
1

>  <s_lp_Force_Field>  (148) 
OPLS3e

>  <r_lp_Energy>  (148) 
81.6852

>  <b_lp_Chiralities_Consistent>  (148) 
1

>  <s_lp_Variant>  (148) 
47:0-1

>  <s_i_glide_gridfile>  (148) 
pfpi4k_grid

>  <i_i_glide_lignum>  (148) 
22

>  <i_i_glide_rotatable_bonds>  (148) 
1

>  <r_i_docking_score>  (148) 
-3.20799

>  <r_i_glide_ligand_efficiency>  (148) 
-0.133666

>  <r_i_glide_ligand_efficiency_sa>  (148) 
-0.385561

>  <r_i_glide_ligand_efficiency_ln>  (148) 
-0.76782

>  <r_i_glide_gscore>  (148) 
-3.20799

>  <r_i_glide_lipo>  (148) 
-0.336209

>  <r_i_glide_hbond>  (148) 
-0.0944899

>  <r_i_glide_metal>  (148) 
-0

>  <r_i_glide_rewards>  (148) 
-1.16983

>  <r_i_glide_evdw>  (148) 
-18.2838

>  <r_i_glide_ecoul>  (148) 
-3.82438

>  <r_i_glide_erotb>  (148) 
0

>  <r_i_glide_esite>  (148) 
-0.119619

>  <r_i_glide_emodel>  (148) 
-27.6057

>  <r_i_glide_energy>  (148) 
-22.1082

>  <r_i_glide_einternal>  (148) 
0.00235244

>  <r_i_glide_intrahb_reward>  (148) 
-0

>  <i_i_glide_confnum>  (148) 
1

>  <i_i_glide_posenum>  (148) 
3

>  <r_i_glide_eff_state_penalty>  (148) 
0

>  <ligand_id>  (148) 
47

>  <original_smiles>  (148) 
COc1ccc2c3c1OC1C(=O)CCCC4C(C)CN(C)C(C2)C314

>  <smiles>  (148) 
[H]c1c([H])c2c3c(c1OC([H])([H])[H])OC1([H])C(=O)C([H])([H])C([H])([H])C([H])([H])C4([H])C([H])(C([H])([H])[H])C([H])([H])[N+]([H])(C([H])([H])[H])C([H])(C2([H])[H])C314

$$$$
47:0:2
     RDKit          3D

 50 54  0  0  1  0  0  0  0  0999 V2000
    2.7420   -7.0594    4.8067 C   0  0  0  0  0  0  0  0  0  0  0  0
    2.7008   -5.7031    4.3865 O   0  0  0  0  0  0  0  0  0  0  0  0
    3.1527   -5.3896    3.1234 C   0  0  0  0  0  0  0  0  0  0  0  0
    3.6540   -6.3436    2.1792 C   0  0  0  0  0  0  0  0  0  0  0  0
    3.9503   -5.9744    0.8354 C   0  0  0  0  0  0  0  0  0  0  0  0
    3.8715   -4.6124    0.4962 C   0  0  0  0  0  0  0  0  0  0  0  0
    3.5952   -3.7226    1.5075 C   0  0  0  0  0  0  0  0  0  0  0  0
    3.0783   -4.0321    2.7337 C   0  0  0  0  0  0  0  0  0  0  0  0
    2.4148   -2.9691    3.2644 O   0  0  0  0  0  0  0  0  0  0  0  0
    2.2463   -2.0356    2.1585 C   0  0  1  0  0  0  0  0  0  0  0  0
    2.0991   -0.6236    2.7196 C   0  0  0  0  0  0  0  0  0  0  0  0
    1.4385    0.2360    2.1403 O   0  0  0  0  0  0  0  0  0  0  0  0
    2.8223   -0.3366    4.0342 C   0  0  0  0  0  0  0  0  0  0  0  0
    4.3434   -0.1603    3.8602 C   0  0  0  0  0  0  0  0  0  0  0  0
    5.0973   -1.2625    3.0751 C   0  0  0  0  0  0  0  0  0  0  0  0
    4.6995   -1.3545    1.5753 C   0  0  1  0  0  0  0  0  0  0  0  0
    5.9005   -1.4920    0.6087 C   0  0  1  0  0  0  0  0  0  0  0  0
    6.7558   -2.7608    0.7978 C   0  0  0  0  0  0  0  0  0  0  0  0
    5.4751   -1.2500   -0.8612 C   0  0  0  0  0  0  0  0  0  0  0  0
    4.0053   -1.2787   -1.0825 N   0  0  1  0  0  0  0  0  0  0  0  0
    3.6642   -1.1915   -2.5216 C   0  0  0  0  0  0  0  0  0  0  0  0
    3.3240   -2.3796   -0.3471 C   0  0  1  0  0  0  0  0  0  0  0  0
    3.8188   -3.8018   -0.7773 C   0  0  0  0  0  0  0  0  0  0  0  0
    3.4735   -2.2756    1.2046 C   0  0  1  0  0  0  0  0  0  0  0  0
    2.3363   -7.1317    5.8162 H   0  0  0  0  0  0  0  0  0  0  0  0
    3.7622   -7.4433    4.8398 H   0  0  0  0  0  0  0  0  0  0  0  0
    2.1338   -7.7000    4.1675 H   0  0  0  0  0  0  0  0  0  0  0  0
    3.7438   -7.3828    2.4400 H   0  0  0  0  0  0  0  0  0  0  0  0
    4.1937   -6.7151    0.0862 H   0  0  0  0  0  0  0  0  0  0  0  0
    1.3223   -2.2970    1.6466 H   0  0  0  0  0  0  0  0  0  0  0  0
    2.3952    0.5650    4.4678 H   0  0  0  0  0  0  0  0  0  0  0  0
    2.6223   -1.1371    4.7464 H   0  0  0  0  0  0  0  0  0  0  0  0
    4.5317    0.8104    3.4009 H   0  0  0  0  0  0  0  0  0  0  0  0
    4.7844   -0.0918    4.8539 H   0  0  0  0  0  0  0  0  0  0  0  0
    6.1495   -0.9827    3.1240 H   0  0  0  0  0  0  0  0  0  0  0  0
    5.0348   -2.2295    3.5720 H   0  0  0  0  0  0  0  0  0  0  0  0
    4.3740   -0.3388    1.3418 H   0  0  0  0  0  0  0  0  0  0  0  0
    6.5784   -0.6725    0.8520 H   0  0  0  0  0  0  0  0  0  0  0  0
    6.2615   -3.6775    0.4939 H   0  0  0  0  0  0  0  0  0  0  0  0
    6.9954   -2.8940    1.8497 H   0  0  0  0  0  0  0  0  0  0  0  0
    7.6903   -2.7015    0.2337 H   0  0  0  0  0  0  0  0  0  0  0  0
    5.8043   -0.2579   -1.1674 H   0  0  0  0  0  0  0  0  0  0  0  0
    5.9845   -1.9578   -1.5183 H   0  0  0  0  0  0  0  0  0  0  0  0
    4.0126   -2.0682   -3.0702 H   0  0  0  0  0  0  0  0  0  0  0  0
    4.1347   -0.3112   -2.9693 H   0  0  0  0  0  0  0  0  0  0  0  0
    2.5891   -1.0921   -2.6649 H   0  0  0  0  0  0  0  0  0  0  0  0
    2.2597   -2.3363   -0.5567 H   0  0  0  0  0  0  0  0  0  0  0  0
    4.7981   -3.8139   -1.2551 H   0  0  0  0  0  0  0  0  0  0  0  0
    3.1122   -4.2419   -1.4793 H   0  0  0  0  0  0  0  0  0  0  0  0
    3.6459   -0.4267   -0.6737 H   0  0  0  0  0  0  0  0  0  0  0  0
  1  2  1  0
  1 25  1  0
  1 26  1  0
  1 27  1  0
  2  3  1  0
  3  8  2  0
  3  4  1  0
  4  5  2  0
  4 28  1  0
  5  6  1  0
  5 29  1  0
  6 23  1  0
  6  7  2  0
 24  7  1  1
  7  8  1  0
  8  9  1  0
  9 10  1  0
 10 24  1  0
 10 11  1  0
 10 30  1  6
 11 12  2  0
 11 13  1  0
 13 14  1  0
 13 31  1  0
 13 32  1  0
 14 15  1  0
 14 33  1  0
 14 34  1  0
 15 16  1  0
 15 35  1  0
 15 36  1  0
 16 24  1  0
 16 17  1  0
 16 37  1  6
 17 18  1  0
 17 19  1  0
 17 38  1  1
 18 39  1  0
 18 40  1  0
 18 41  1  0
 19 20  1  0
 19 42  1  0
 19 43  1  0
 20 21  1  0
 20 22  1  0
 20 50  1  1
 21 44  1  0
 21 45  1  0
 21 46  1  0
 22 23  1  0
 22 24  1  0
 22 47  1  1
 23 48  1  0
 23 49  1  0
M  CHG  1  20   1
M  END
>  <i_m_ct_stereo_status>  (149) 
1

>  <s_m_source_file>  (149) 
/var/tmp/pbs.5076255.sched01/tmp7dp07en1/447ppmqug5.sdf

>  <i_m_source_file_index>  (149) 
22

>  <i_lp_mmshare_version>  (149) 
48012

>  <i_f3d_flags>  (149) 
0

>  <s_epik_input>  (149) 
W0NAXTEyM2M0YzVbY0hdW2NIXWMoT1tDSDNdKWM0T1tDQEhdMUMoPU8pW0NIMl1bQ0gyXVtDSDJdW0NASF0yW0NAQEhdKFtDSDNdKVtDSDJdTihbQ0gzXSlbQ0BIXTNbQ0gyXTU=

>  <s_epik_cmdline>  (149) 
J2VwaWtfcHl0aG9uJywgJy1waHQnLCAnMi4wJywgJy1waCcsICc3LjAnLCAnLXRuJywgJzgnLCAnLW1hJywgJzIwMCcsICctaW1hZScsICc8aW5maWxlLm1hZT4nLCAnLW9tYWUnLCAnPG91dGZpbGUubWFlPic=

>  <r_lp_tautomer_probability>  (149) 
1

>  <r_epik_Ionization_Penalty>  (149) 
0.0210999

>  <r_epik_Ionization_Penalty_Charging>  (149) 
0.0210999

>  <r_epik_Ionization_Penalty_Neutral>  (149) 
7.34763e-11

>  <r_epik_State_Penalty>  (149) 
0.0169501

>  <r_epik_Charging_Adjusted_Penalty>  (149) 
0.03805

>  <i_epik_Tot_Q>  (149) 
1

>  <i_epik_Tot_abs_Q>  (149) 
1

>  <s_lp_Force_Field>  (149) 
OPLS3e

>  <r_lp_Energy>  (149) 
81.6852

>  <b_lp_Chiralities_Consistent>  (149) 
1

>  <s_lp_Variant>  (149) 
47:0-1

>  <s_i_glide_gridfile>  (149) 
pfpi4k_grid

>  <i_i_glide_lignum>  (149) 
22

>  <i_i_glide_rotatable_bonds>  (149) 
1

>  <r_i_docking_score>  (149) 
-3.07483

>  <r_i_glide_ligand_efficiency>  (149) 
-0.128118

>  <r_i_glide_ligand_efficiency_sa>  (149) 
-0.369556

>  <r_i_glide_ligand_efficiency_ln>  (149) 
-0.735947

>  <r_i_glide_gscore>  (149) 
-3.07483

>  <r_i_glide_lipo>  (149) 
-0.464551

>  <r_i_glide_hbond>  (149) 
0

>  <r_i_glide_metal>  (149) 
-0

>  <r_i_glide_rewards>  (149) 
-1.16983

>  <r_i_glide_evdw>  (149) 
-18.2187

>  <r_i_glide_ecoul>  (149) 
-3.04669

>  <r_i_glide_erotb>  (149) 
0

>  <r_i_glide_esite>  (149) 
-0.0725098

>  <r_i_glide_emodel>  (149) 
-26.5234

>  <r_i_glide_energy>  (149) 
-21.2654

>  <r_i_glide_einternal>  (149) 
0.000409647

>  <r_i_glide_intrahb_reward>  (149) 
-0

>  <i_i_glide_confnum>  (149) 
1

>  <i_i_glide_posenum>  (149) 
13

>  <r_i_glide_eff_state_penalty>  (149) 
0

>  <ligand_id>  (149) 
47

>  <original_smiles>  (149) 
COc1ccc2c3c1OC1C(=O)CCCC4C(C)CN(C)C(C2)C314

>  <smiles>  (149) 
[H]c1c([H])c2c3c(c1OC([H])([H])[H])OC1([H])C(=O)C([H])([H])C([H])([H])C([H])([H])C4([H])C([H])(C([H])([H])[H])C([H])([H])[N+]([H])(C([H])([H])[H])C([H])(C2([H])[H])C314

$$$$
47:1:0
     RDKit          3D

 49 53  0  0  1  0  0  0  0  0999 V2000
    6.7385   -6.7832    3.1402 C   0  0  0  0  0  0  0  0  0  0  0  0
    7.7675   -5.9694    2.5460 O   0  0  0  0  0  0  0  0  0  0  0  0
    7.4110   -5.0870    1.5545 C   0  0  0  0  0  0  0  0  0  0  0  0
    8.4333   -4.3657    0.8877 C   0  0  0  0  0  0  0  0  0  0  0  0
    8.1694   -3.5558   -0.2493 C   0  0  0  0  0  0  0  0  0  0  0  0
    6.8253   -3.3430   -0.6273 C   0  0  0  0  0  0  0  0  0  0  0  0
    5.8663   -3.8970    0.1923 C   0  0  0  0  0  0  0  0  0  0  0  0
    6.0705   -4.8539    1.1576 C   0  0  0  0  0  0  0  0  0  0  0  0
    4.9322   -5.5770    1.3817 O   0  0  0  0  0  0  0  0  0  0  0  0
    4.0231   -5.2592    0.2987 C   0  0  1  0  0  0  0  0  0  0  0  0
    2.5881   -5.4793    0.8207 C   0  0  0  0  0  0  0  0  0  0  0  0
    1.6299   -5.8189    0.1111 O   0  0  0  0  0  0  0  0  0  0  0  0
    2.4039   -5.2250    2.3091 C   0  0  0  0  0  0  0  0  0  0  0  0
    2.3739   -3.7283    2.6884 C   0  0  0  0  0  0  0  0  0  0  0  0
    3.5419   -2.8497    2.1642 C   0  0  0  0  0  0  0  0  0  0  0  0
    3.5983   -2.7253    0.6072 C   0  0  1  0  0  0  0  0  0  0  0  0
    3.8059   -1.2915    0.0900 C   0  0  1  0  0  0  0  0  0  0  0  0
    5.0671   -0.5750    0.6304 C   0  0  0  0  0  0  0  0  0  0  0  0
    3.6450   -1.1894   -1.4582 C   0  0  0  0  0  0  0  0  0  0  0  0
    3.6891   -2.4505   -2.2182 N   0  0  0  0  0  0  0  0  0  0  0  0
    2.3681   -3.0102   -2.4958 C   0  0  0  0  0  0  0  0  0  0  0  0
    4.6207   -3.4401   -1.6698 C   0  0  1  0  0  0  0  0  0  0  0  0
    6.0805   -2.9040   -1.8616 C   0  0  0  0  0  0  0  0  0  0  0  0
    4.4249   -3.8077   -0.1643 C   0  0  1  0  0  0  0  0  0  0  0  0
    7.1180   -7.4315    3.9291 H   0  0  0  0  0  0  0  0  0  0  0  0
    6.2927   -7.4246    2.3628 H   0  0  0  0  0  0  0  0  0  0  0  0
    5.9593   -6.1459    3.5872 H   0  0  0  0  0  0  0  0  0  0  0  0
    9.4403   -4.5450    1.2228 H   0  0  0  0  0  0  0  0  0  0  0  0
    8.9841   -3.1727   -0.8572 H   0  0  0  0  0  0  0  0  0  0  0  0
    4.2420   -5.9620   -0.5090 H   0  0  0  0  0  0  0  0  0  0  0  0
    1.4812   -5.6985    2.6278 H   0  0  0  0  0  0  0  0  0  0  0  0
    3.1836   -5.7196    2.8804 H   0  0  0  0  0  0  0  0  0  0  0  0
    1.4332   -3.3054    2.3526 H   0  0  0  0  0  0  0  0  0  0  0  0
    2.3457   -3.6516    3.7786 H   0  0  0  0  0  0  0  0  0  0  0  0
    3.3467   -1.8521    2.5785 H   0  0  0  0  0  0  0  0  0  0  0  0
    4.4898   -3.1469    2.5937 H   0  0  0  0  0  0  0  0  0  0  0  0
    2.5583   -2.8719    0.3095 H   0  0  0  0  0  0  0  0  0  0  0  0
    2.9755   -0.6986    0.4933 H   0  0  0  0  0  0  0  0  0  0  0  0
    5.9903   -1.0133    0.2640 H   0  0  0  0  0  0  0  0  0  0  0  0
    5.1043   -0.5796    1.7207 H   0  0  0  0  0  0  0  0  0  0  0  0
    5.0459    0.4689    0.3326 H   0  0  0  0  0  0  0  0  0  0  0  0
    2.7058   -0.6886   -1.6920 H   0  0  0  0  0  0  0  0  0  0  0  0
    4.4100   -0.5247   -1.8526 H   0  0  0  0  0  0  0  0  0  0  0  0
    2.4463   -3.8701   -3.1592 H   0  0  0  0  0  0  0  0  0  0  0  0
    1.7736   -2.2572   -3.0141 H   0  0  0  0  0  0  0  0  0  0  0  0
    1.8150   -3.3264   -1.6080 H   0  0  0  0  0  0  0  0  0  0  0  0
    4.5472   -4.3626   -2.2516 H   0  0  0  0  0  0  0  0  0  0  0  0
    6.1550   -1.8189   -1.9647 H   0  0  0  0  0  0  0  0  0  0  0  0
    6.5531   -3.3634   -2.7351 H   0  0  0  0  0  0  0  0  0  0  0  0
  1  2  1  0
  1 25  1  0
  1 26  1  0
  1 27  1  0
  2  3  1  0
  3  8  2  0
  3  4  1  0
  4  5  2  0
  4 28  1  0
  5  6  1  0
  5 29  1  0
  6 23  1  0
  6  7  2  0
 24  7  1  1
  7  8  1  0
  8  9  1  0
  9 10  1  0
 10 24  1  0
 10 11  1  0
 10 30  1  6
 11 12  2  0
 11 13  1  0
 13 14  1  0
 13 31  1  0
 13 32  1  0
 14 15  1  0
 14 33  1  0
 14 34  1  0
 15 16  1  0
 15 35  1  0
 15 36  1  0
 16 24  1  0
 16 17  1  0
 16 37  1  6
 17 18  1  0
 17 19  1  0
 17 38  1  1
 18 39  1  0
 18 40  1  0
 18 41  1  0
 19 20  1  0
 19 42  1  0
 19 43  1  0
 20 21  1  0
 20 22  1  0
 21 44  1  0
 21 45  1  0
 21 46  1  0
 22 23  1  0
 22 24  1  0
 22 47  1  6
 23 48  1  0
 23 49  1  0
M  END
>  <i_m_ct_stereo_status>  (150) 
1

>  <s_m_source_file>  (150) 
/var/tmp/pbs.5076255.sched01/tmp7dp07en1/447ppmqug5.sdf

>  <i_m_source_file_index>  (150) 
23

>  <i_lp_mmshare_version>  (150) 
48012

>  <i_f3d_flags>  (150) 
0

>  <s_epik_input>  (150) 
W0NAXTEyM2M0YzVbY0hdW2NIXWMoT1tDSDNdKWM0T1tDQEhdMUMoPU8pW0NIMl1bQ0gyXVtDSDJdW0NASF0yW0NAQEhdKFtDSDNdKVtDSDJdTihbQ0gzXSlbQ0BIXTNbQ0gyXTU=

>  <s_epik_cmdline>  (150) 
J2VwaWtfcHl0aG9uJywgJy1waHQnLCAnMi4wJywgJy1waCcsICc3LjAnLCAnLXRuJywgJzgnLCAnLW1hJywgJzIwMCcsICctaW1hZScsICc8aW5maWxlLm1hZT4nLCAnLW9tYWUnLCAnPG91dGZpbGUubWFlPic=

>  <r_lp_tautomer_probability>  (150) 
1

>  <r_epik_Ionization_Penalty>  (150) 
1.98649

>  <r_epik_Ionization_Penalty_Charging>  (150) 
0

>  <r_epik_Ionization_Penalty_Neutral>  (150) 
1.98649

>  <r_epik_State_Penalty>  (150) 
2.11418

>  <r_epik_Charging_Adjusted_Penalty>  (150) 
2.11418

>  <i_epik_Tot_Q>  (150) 
0

>  <i_epik_Tot_abs_Q>  (150) 
0

>  <s_lp_Force_Field>  (150) 
OPLS3e

>  <r_lp_Energy>  (150) 
80.6317

>  <b_lp_Chiralities_Consistent>  (150) 
1

>  <s_lp_Variant>  (150) 
47:0-2

>  <s_i_glide_gridfile>  (150) 
pfpi4k_grid

>  <i_i_glide_lignum>  (150) 
23

>  <i_i_glide_rotatable_bonds>  (150) 
1

>  <r_i_docking_score>  (150) 
-4.16819

>  <r_i_glide_ligand_efficiency>  (150) 
-0.173675

>  <r_i_glide_ligand_efficiency_sa>  (150) 
-0.500965

>  <r_i_glide_ligand_efficiency_ln>  (150) 
-0.99764

>  <r_i_glide_gscore>  (150) 
-4.16819

>  <r_i_glide_lipo>  (150) 
-0.928327

>  <r_i_glide_hbond>  (150) 
-0.096807

>  <r_i_glide_metal>  (150) 
-0

>  <r_i_glide_rewards>  (150) 
-1.1767

>  <r_i_glide_evdw>  (150) 
-25.2248

>  <r_i_glide_ecoul>  (150) 
-4.47178

>  <r_i_glide_erotb>  (150) 
0

>  <r_i_glide_esite>  (150) 
-0.0343511

>  <r_i_glide_emodel>  (150) 
-33.5701

>  <r_i_glide_energy>  (150) 
-29.6966

>  <r_i_glide_einternal>  (150) 
5.98636

>  <r_i_glide_intrahb_reward>  (150) 
-0

>  <i_i_glide_confnum>  (150) 
1

>  <i_i_glide_posenum>  (150) 
9

>  <r_i_glide_eff_state_penalty>  (150) 
0

>  <ligand_id>  (150) 
47

>  <original_smiles>  (150) 
COc1ccc2c3c1OC1C(=O)CCCC4C(C)CN(C)C(C2)C314

>  <smiles>  (150) 
[H]c1c([H])c2c3c(c1OC([H])([H])[H])OC1([H])C(=O)C([H])([H])C([H])([H])C([H])([H])C4([H])C([H])(C([H])([H])[H])C([H])([H])N(C([H])([H])[H])C([H])(C2([H])[H])C314

$$$$
47:1:1
     RDKit          3D

 49 53  0  0  1  0  0  0  0  0999 V2000
    9.2006   -5.4053    1.9819 C   0  0  0  0  0  0  0  0  0  0  0  0
    7.8582   -4.9876    1.8144 O   0  0  0  0  0  0  0  0  0  0  0  0
    7.5141   -4.3381    0.6555 C   0  0  0  0  0  0  0  0  0  0  0  0
    8.4495   -3.7398   -0.2453 C   0  0  0  0  0  0  0  0  0  0  0  0
    8.0321   -3.2466   -1.5167 C   0  0  0  0  0  0  0  0  0  0  0  0
    6.6500   -3.2067   -1.8172 C   0  0  0  0  0  0  0  0  0  0  0  0
    5.8030   -3.6248   -0.8150 C   0  0  0  0  0  0  0  0  0  0  0  0
    6.1166   -4.2960    0.3450 C   0  0  0  0  0  0  0  0  0  0  0  0
    5.0788   -5.0112    0.8329 O   0  0  0  0  0  0  0  0  0  0  0  0
    4.0815   -5.0519   -0.2328 C   0  0  1  0  0  0  0  0  0  0  0  0
    2.6988   -5.1632    0.4392 C   0  0  0  0  0  0  0  0  0  0  0  0
    1.7143   -5.7116   -0.0725 O   0  0  0  0  0  0  0  0  0  0  0  0
    2.5551   -4.5263    1.7991 C   0  0  0  0  0  0  0  0  0  0  0  0
    2.4279   -2.9861    1.7414 C   0  0  0  0  0  0  0  0  0  0  0  0
    3.4956   -2.2293    0.9172 C   0  0  0  0  0  0  0  0  0  0  0  0
    3.4499   -2.5454   -0.6094 C   0  0  1  0  0  0  0  0  0  0  0  0
    3.5212   -1.3205   -1.5270 C   0  0  1  0  0  0  0  0  0  0  0  0
    4.7304   -0.4311   -1.3426 C   0  0  0  0  0  0  0  0  0  0  0  0
    3.2868   -1.5972   -3.0233 C   0  0  0  0  0  0  0  0  0  0  0  0
    3.4225   -2.9899   -3.4142 N   0  0  0  0  0  0  0  0  0  0  0  0
    2.1400   -3.6319   -3.4870 C   0  0  0  0  0  0  0  0  0  0  0  0
    4.4249   -3.7586   -2.6650 C   0  0  1  0  0  0  0  0  0  0  0  0
    5.7949   -3.1985   -3.0586 C   0  0  0  0  0  0  0  0  0  0  0  0
    4.3481   -3.7459   -1.0956 C   0  0  1  0  0  0  0  0  0  0  0  0
    9.3031   -5.8323    2.9749 H   0  0  0  0  0  0  0  0  0  0  0  0
    9.9296   -4.5995    1.9037 H   0  0  0  0  0  0  0  0  0  0  0  0
    9.4195   -6.1752    1.2511 H   0  0  0  0  0  0  0  0  0  0  0  0
    9.5052   -3.7262   -0.0533 H   0  0  0  0  0  0  0  0  0  0  0  0
    8.7658   -3.0215   -2.2652 H   0  0  0  0  0  0  0  0  0  0  0  0
    4.3238   -5.9344   -0.8167 H   0  0  0  0  0  0  0  0  0  0  0  0
    1.6665   -4.9584    2.2589 H   0  0  0  0  0  0  0  0  0  0  0  0
    3.3960   -4.8166    2.4307 H   0  0  0  0  0  0  0  0  0  0  0  0
    1.4530   -2.6737    1.3754 H   0  0  0  0  0  0  0  0  0  0  0  0
    2.4536   -2.6230    2.7693 H   0  0  0  0  0  0  0  0  0  0  0  0
    3.2354   -1.1747    1.0354 H   0  0  0  0  0  0  0  0  0  0  0  0
    4.4891   -2.3363    1.3458 H   0  0  0  0  0  0  0  0  0  0  0  0
    2.4225   -2.8459   -0.7930 H   0  0  0  0  0  0  0  0  0  0  0  0
    2.7156   -0.6584   -1.2413 H   0  0  0  0  0  0  0  0  0  0  0  0
    5.6852   -0.8661   -1.6220 H   0  0  0  0  0  0  0  0  0  0  0  0
    4.8101   -0.0489   -0.3224 H   0  0  0  0  0  0  0  0  0  0  0  0
    4.5194    0.3766   -2.0407 H   0  0  0  0  0  0  0  0  0  0  0  0
    2.3075   -1.2265   -3.2956 H   0  0  0  0  0  0  0  0  0  0  0  0
    3.9776   -1.0210   -3.6349 H   0  0  0  0  0  0  0  0  0  0  0  0
    2.2371   -4.5832   -4.0078 H   0  0  0  0  0  0  0  0  0  0  0  0
    1.4512   -3.0471   -4.1042 H   0  0  0  0  0  0  0  0  0  0  0  0
    1.6615   -3.8053   -2.5207 H   0  0  0  0  0  0  0  0  0  0  0  0
    4.5016   -4.7499   -3.0781 H   0  0  0  0  0  0  0  0  0  0  0  0
    5.7186   -2.2373   -3.4769 H   0  0  0  0  0  0  0  0  0  0  0  0
    6.1403   -3.8129   -3.8732 H   0  0  0  0  0  0  0  0  0  0  0  0
  1  2  1  0
  1 25  1  0
  1 26  1  0
  1 27  1  0
  2  3  1  0
  3  8  2  0
  3  4  1  0
  4  5  2  0
  4 28  1  0
  5  6  1  0
  5 29  1  0
  6 23  1  0
  6  7  2  0
 24  7  1  1
  7  8  1  0
  8  9  1  0
  9 10  1  0
 10 24  1  0
 10 11  1  0
 10 30  1  6
 11 12  2  0
 11 13  1  0
 13 14  1  0
 13 31  1  0
 13 32  1  0
 14 15  1  0
 14 33  1  0
 14 34  1  0
 15 16  1  0
 15 35  1  0
 15 36  1  0
 16 24  1  0
 16 17  1  0
 16 37  1  1
 17 18  1  0
 17 19  1  0
 17 38  1  1
 18 39  1  0
 18 40  1  0
 18 41  1  0
 19 20  1  0
 19 42  1  0
 19 43  1  0
 20 21  1  0
 20 22  1  0
 21 44  1  0
 21 45  1  0
 21 46  1  0
 22 23  1  0
 22 24  1  0
 22 47  1  6
 23 48  1  0
 23 49  1  0
M  END
>  <i_m_ct_stereo_status>  (151) 
1

>  <s_m_source_file>  (151) 
/var/tmp/pbs.5076255.sched01/tmp7dp07en1/447ppmqug5.sdf

>  <i_m_source_file_index>  (151) 
23

>  <i_lp_mmshare_version>  (151) 
48012

>  <i_f3d_flags>  (151) 
0

>  <s_epik_input>  (151) 
W0NAXTEyM2M0YzVbY0hdW2NIXWMoT1tDSDNdKWM0T1tDQEhdMUMoPU8pW0NIMl1bQ0gyXVtDSDJdW0NASF0yW0NAQEhdKFtDSDNdKVtDSDJdTihbQ0gzXSlbQ0BIXTNbQ0gyXTU=

>  <s_epik_cmdline>  (151) 
J2VwaWtfcHl0aG9uJywgJy1waHQnLCAnMi4wJywgJy1waCcsICc3LjAnLCAnLXRuJywgJzgnLCAnLW1hJywgJzIwMCcsICctaW1hZScsICc8aW5maWxlLm1hZT4nLCAnLW9tYWUnLCAnPG91dGZpbGUubWFlPic=

>  <r_lp_tautomer_probability>  (151) 
1

>  <r_epik_Ionization_Penalty>  (151) 
1.98649

>  <r_epik_Ionization_Penalty_Charging>  (151) 
0

>  <r_epik_Ionization_Penalty_Neutral>  (151) 
1.98649

>  <r_epik_State_Penalty>  (151) 
2.11418

>  <r_epik_Charging_Adjusted_Penalty>  (151) 
2.11418

>  <i_epik_Tot_Q>  (151) 
0

>  <i_epik_Tot_abs_Q>  (151) 
0

>  <s_lp_Force_Field>  (151) 
OPLS3e

>  <r_lp_Energy>  (151) 
80.6317

>  <b_lp_Chiralities_Consistent>  (151) 
1

>  <s_lp_Variant>  (151) 
47:0-2

>  <s_i_glide_gridfile>  (151) 
pfpi4k_grid

>  <i_i_glide_lignum>  (151) 
23

>  <i_i_glide_rotatable_bonds>  (151) 
1

>  <r_i_docking_score>  (151) 
-3.84782

>  <r_i_glide_ligand_efficiency>  (151) 
-0.160326

>  <r_i_glide_ligand_efficiency_sa>  (151) 
-0.46246

>  <r_i_glide_ligand_efficiency_ln>  (151) 
-0.920961

>  <r_i_glide_gscore>  (151) 
-3.84782

>  <r_i_glide_lipo>  (151) 
-0.771066

>  <r_i_glide_hbond>  (151) 
-0.0808008

>  <r_i_glide_metal>  (151) 
-0

>  <r_i_glide_rewards>  (151) 
-1.1767

>  <r_i_glide_evdw>  (151) 
-16.6197

>  <r_i_glide_ecoul>  (151) 
-6.31779

>  <r_i_glide_erotb>  (151) 
0

>  <r_i_glide_esite>  (151) 
-0.0406034

>  <r_i_glide_emodel>  (151) 
-26.6165

>  <r_i_glide_energy>  (151) 
-22.9375

>  <r_i_glide_einternal>  (151) 
1.08528

>  <r_i_glide_intrahb_reward>  (151) 
-0

>  <i_i_glide_confnum>  (151) 
2

>  <i_i_glide_posenum>  (151) 
3

>  <r_i_glide_eff_state_penalty>  (151) 
0

>  <ligand_id>  (151) 
47

>  <original_smiles>  (151) 
COc1ccc2c3c1OC1C(=O)CCCC4C(C)CN(C)C(C2)C314

>  <smiles>  (151) 
[H]c1c([H])c2c3c(c1OC([H])([H])[H])OC1([H])C(=O)C([H])([H])C([H])([H])C([H])([H])C4([H])C([H])(C([H])([H])[H])C([H])([H])N(C([H])([H])[H])C([H])(C2([H])[H])C314

$$$$
47:1:2
     RDKit          3D

 49 53  0  0  1  0  0  0  0  0999 V2000
    9.0029   -2.6492    0.1147 C   0  0  0  0  0  0  0  0  0  0  0  0
    8.1996   -3.7600    0.4770 O   0  0  0  0  0  0  0  0  0  0  0  0
    6.8417   -3.5684    0.6194 C   0  0  0  0  0  0  0  0  0  0  0  0
    6.1759   -2.3125    0.4423 C   0  0  0  0  0  0  0  0  0  0  0  0
    4.7535   -2.2236    0.4473 C   0  0  0  0  0  0  0  0  0  0  0  0
    4.0220   -3.3786    0.7810 C   0  0  0  0  0  0  0  0  0  0  0  0
    4.7257   -4.4986    1.1501 C   0  0  0  0  0  0  0  0  0  0  0  0
    6.0611   -4.7040    0.9401 C   0  0  0  0  0  0  0  0  0  0  0  0
    6.3435   -6.0331    0.8858 O   0  0  0  0  0  0  0  0  0  0  0  0
    5.0538   -6.6936    0.7369 C   0  0  1  0  0  0  0  0  0  0  0  0
    5.1713   -8.1113    1.2970 C   0  0  0  0  0  0  0  0  0  0  0  0
    4.4960   -9.0401    0.8585 O   0  0  0  0  0  0  0  0  0  0  0  0
    6.1682   -8.3045    2.4408 C   0  0  0  0  0  0  0  0  0  0  0  0
    5.6560   -7.7659    3.7930 C   0  0  0  0  0  0  0  0  0  0  0  0
    5.0896   -6.3212    3.8136 C   0  0  0  0  0  0  0  0  0  0  0  0
    3.8046   -6.1329    2.9587 C   0  0  1  0  0  0  0  0  0  0  0  0
    2.6695   -5.3589    3.6646 C   0  0  1  0  0  0  0  0  0  0  0  0
    3.0294   -3.9357    4.1378 C   0  0  0  0  0  0  0  0  0  0  0  0
    1.3332   -5.4082    2.8767 C   0  0  0  0  0  0  0  0  0  0  0  0
    1.4160   -5.8548    1.4765 N   0  0  0  0  0  0  0  0  0  0  0  0
    1.0903   -7.2662    1.2840 C   0  0  0  0  0  0  0  0  0  0  0  0
    2.6271   -5.4105    0.7672 C   0  0  1  0  0  0  0  0  0  0  0  0
    2.6008   -3.8471    0.6139 C   0  0  0  0  0  0  0  0  0  0  0  0
    3.9985   -5.7612    1.4396 C   0  0  1  0  0  0  0  0  0  0  0  0
   10.0394   -2.9730    0.0595 H   0  0  0  0  0  0  0  0  0  0  0  0
    8.9605   -1.8536    0.8577 H   0  0  0  0  0  0  0  0  0  0  0  0
    8.7216   -2.2538   -0.8610 H   0  0  0  0  0  0  0  0  0  0  0  0
    6.7328   -1.4180    0.2224 H   0  0  0  0  0  0  0  0  0  0  0  0
    4.2461   -1.3151    0.1551 H   0  0  0  0  0  0  0  0  0  0  0  0
    4.8318   -6.7510   -0.3295 H   0  0  0  0  0  0  0  0  0  0  0  0
    6.3913   -9.3656    2.5299 H   0  0  0  0  0  0  0  0  0  0  0  0
    7.1137   -7.8231    2.1921 H   0  0  0  0  0  0  0  0  0  0  0  0
    4.9036   -8.4533    4.1797 H   0  0  0  0  0  0  0  0  0  0  0  0
    6.4793   -7.8185    4.5067 H   0  0  0  0  0  0  0  0  0  0  0  0
    4.8330   -6.1298    4.8558 H   0  0  0  0  0  0  0  0  0  0  0  0
    5.8554   -5.5852    3.5709 H   0  0  0  0  0  0  0  0  0  0  0  0
    3.3664   -7.1305    2.9545 H   0  0  0  0  0  0  0  0  0  0  0  0
    2.4703   -5.9025    4.5900 H   0  0  0  0  0  0  0  0  0  0  0  0
    3.2425   -3.2570    3.3165 H   0  0  0  0  0  0  0  0  0  0  0  0
    3.8997   -3.9379    4.7939 H   0  0  0  0  0  0  0  0  0  0  0  0
    2.2061   -3.5021    4.7061 H   0  0  0  0  0  0  0  0  0  0  0  0
    0.6266   -6.0410    3.4122 H   0  0  0  0  0  0  0  0  0  0  0  0
    0.8778   -4.4168    2.8929 H   0  0  0  0  0  0  0  0  0  0  0  0
    1.0113   -7.4793    0.2207 H   0  0  0  0  0  0  0  0  0  0  0  0
    0.1174   -7.4892    1.7213 H   0  0  0  0  0  0  0  0  0  0  0  0
    1.8228   -7.9426    1.7194 H   0  0  0  0  0  0  0  0  0  0  0  0
    2.6265   -5.8381   -0.2389 H   0  0  0  0  0  0  0  0  0  0  0  0
    1.9842   -3.3369    1.3498 H   0  0  0  0  0  0  0  0  0  0  0  0
    2.2271   -3.5714   -0.3702 H   0  0  0  0  0  0  0  0  0  0  0  0
  1  2  1  0
  1 25  1  0
  1 26  1  0
  1 27  1  0
  2  3  1  0
  3  8  2  0
  3  4  1  0
  4  5  2  0
  4 28  1  0
  5  6  1  0
  5 29  1  0
  6 23  1  0
  6  7  2  0
 24  7  1  1
  7  8  1  0
  8  9  1  0
  9 10  1  0
 10 24  1  0
 10 11  1  0
 10 30  1  6
 11 12  2  0
 11 13  1  0
 13 14  1  0
 13 31  1  0
 13 32  1  0
 14 15  1  0
 14 33  1  0
 14 34  1  0
 15 16  1  0
 15 35  1  0
 15 36  1  0
 16 24  1  0
 16 17  1  0
 16 37  1  6
 17 18  1  0
 17 19  1  0
 17 38  1  1
 18 39  1  0
 18 40  1  0
 18 41  1  0
 19 20  1  0
 19 42  1  0
 19 43  1  0
 20 21  1  0
 20 22  1  0
 21 44  1  0
 21 45  1  0
 21 46  1  0
 22 23  1  0
 22 24  1  0
 22 47  1  6
 23 48  1  0
 23 49  1  0
M  END
>  <i_m_ct_stereo_status>  (152) 
1

>  <s_m_source_file>  (152) 
/var/tmp/pbs.5076255.sched01/tmp7dp07en1/447ppmqug5.sdf

>  <i_m_source_file_index>  (152) 
23

>  <i_lp_mmshare_version>  (152) 
48012

>  <i_f3d_flags>  (152) 
0

>  <s_epik_input>  (152) 
W0NAXTEyM2M0YzVbY0hdW2NIXWMoT1tDSDNdKWM0T1tDQEhdMUMoPU8pW0NIMl1bQ0gyXVtDSDJdW0NASF0yW0NAQEhdKFtDSDNdKVtDSDJdTihbQ0gzXSlbQ0BIXTNbQ0gyXTU=

>  <s_epik_cmdline>  (152) 
J2VwaWtfcHl0aG9uJywgJy1waHQnLCAnMi4wJywgJy1waCcsICc3LjAnLCAnLXRuJywgJzgnLCAnLW1hJywgJzIwMCcsICctaW1hZScsICc8aW5maWxlLm1hZT4nLCAnLW9tYWUnLCAnPG91dGZpbGUubWFlPic=

>  <r_lp_tautomer_probability>  (152) 
1

>  <r_epik_Ionization_Penalty>  (152) 
1.98649

>  <r_epik_Ionization_Penalty_Charging>  (152) 
0

>  <r_epik_Ionization_Penalty_Neutral>  (152) 
1.98649

>  <r_epik_State_Penalty>  (152) 
2.11418

>  <r_epik_Charging_Adjusted_Penalty>  (152) 
2.11418

>  <i_epik_Tot_Q>  (152) 
0

>  <i_epik_Tot_abs_Q>  (152) 
0

>  <s_lp_Force_Field>  (152) 
OPLS3e

>  <r_lp_Energy>  (152) 
80.6317

>  <b_lp_Chiralities_Consistent>  (152) 
1

>  <s_lp_Variant>  (152) 
47:0-2

>  <s_i_glide_gridfile>  (152) 
pfpi4k_grid

>  <i_i_glide_lignum>  (152) 
23

>  <i_i_glide_rotatable_bonds>  (152) 
1

>  <r_i_docking_score>  (152) 
-3.43593

>  <r_i_glide_ligand_efficiency>  (152) 
-0.143164

>  <r_i_glide_ligand_efficiency_sa>  (152) 
-0.412956

>  <r_i_glide_ligand_efficiency_ln>  (152) 
-0.822377

>  <r_i_glide_gscore>  (152) 
-3.43593

>  <r_i_glide_lipo>  (152) 
-0.492883

>  <r_i_glide_hbond>  (152) 
-0.126169

>  <r_i_glide_metal>  (152) 
-0

>  <r_i_glide_rewards>  (152) 
-1.2721

>  <r_i_glide_evdw>  (152) 
-21.5801

>  <r_i_glide_ecoul>  (152) 
-3.10515

>  <r_i_glide_erotb>  (152) 
0

>  <r_i_glide_esite>  (152) 
0

>  <r_i_glide_emodel>  (152) 
-30.6267

>  <r_i_glide_energy>  (152) 
-24.6853

>  <r_i_glide_einternal>  (152) 
0.00859095

>  <r_i_glide_intrahb_reward>  (152) 
-0

>  <i_i_glide_confnum>  (152) 
1

>  <i_i_glide_posenum>  (152) 
8

>  <r_i_glide_eff_state_penalty>  (152) 
0

>  <ligand_id>  (152) 
47

>  <original_smiles>  (152) 
COc1ccc2c3c1OC1C(=O)CCCC4C(C)CN(C)C(C2)C314

>  <smiles>  (152) 
[H]c1c([H])c2c3c(c1OC([H])([H])[H])OC1([H])C(=O)C([H])([H])C([H])([H])C([H])([H])C4([H])C([H])(C([H])([H])[H])C([H])([H])N(C([H])([H])[H])C([H])(C2([H])[H])C314

$$$$
48:0:0
     RDKit          3D

 39 42  0  0  1  0  0  0  0  0999 V2000
    3.2959   -1.0785   -4.0038 C   0  0  0  0  0  0  0  0  0  0  0  0
    2.5612   -2.4254   -3.9184 C   0  0  0  0  0  0  0  0  0  0  0  0
    2.9505   -3.0426   -2.6028 C   0  0  0  0  0  0  0  0  0  0  0  0
    3.3767   -1.8955   -1.7623 N   0  0  0  0  0  0  0  0  0  0  0  0
    4.1213   -2.2690   -0.5237 C   0  0  2  0  0  0  0  0  0  0  0  0
    5.1538   -1.1795   -0.0955 C   0  0  0  0  0  0  0  0  0  0  0  0
    5.9058   -1.6148    1.1713 C   0  0  1  0  0  0  0  0  0  0  0  0
    4.8941   -1.7815    2.3210 C   0  0  0  0  0  0  0  0  0  0  0  0
    3.8598   -2.8595    1.9339 C   0  0  2  0  0  0  0  0  0  0  0  0
    4.5821   -4.1986    1.6896 C   0  0  0  0  0  0  0  0  0  0  0  0
    5.6036   -4.0327    0.5518 C   0  0  2  0  0  0  0  0  0  0  0  0
    6.6314   -2.9486    0.8975 C   0  0  0  0  0  0  0  0  0  0  0  0
    4.8747   -3.6269   -0.7172 C   0  0  0  0  0  0  0  0  0  0  0  0
    3.1170   -2.4294    0.6448 C   0  0  0  0  0  0  0  0  0  0  0  0
    4.0752   -0.9938   -2.7029 C   0  0  0  0  0  0  0  0  0  0  0  0
    2.5861   -0.2494   -4.0849 H   0  0  0  0  0  0  0  0  0  0  0  0
    3.9743   -1.0022   -4.8544 H   0  0  0  0  0  0  0  0  0  0  0  0
    1.4785   -2.2831   -4.0251 H   0  0  0  0  0  0  0  0  0  0  0  0
    2.8560   -3.0908   -4.7203 H   0  0  0  0  0  0  0  0  0  0  0  0
    2.1481   -3.6427   -2.1775 H   0  0  0  0  0  0  0  0  0  0  0  0
    3.7985   -3.7088   -2.7829 H   0  0  0  0  0  0  0  0  0  0  0  0
    5.9044   -1.0028   -0.8705 H   0  0  0  0  0  0  0  0  0  0  0  0
    4.6606   -0.2203    0.0850 H   0  0  0  0  0  0  0  0  0  0  0  0
    6.6363   -0.8460    1.4376 H   0  0  0  0  0  0  0  0  0  0  0  0
    5.4037   -2.0526    3.2410 H   0  0  0  0  0  0  0  0  0  0  0  0
    4.3889   -0.8279    2.5045 H   0  0  0  0  0  0  0  0  0  0  0  0
    3.1398   -2.9750    2.7462 H   0  0  0  0  0  0  0  0  0  0  0  0
    5.0748   -4.5475    2.6048 H   0  0  0  0  0  0  0  0  0  0  0  0
    3.8556   -4.9674    1.4209 H   0  0  0  0  0  0  0  0  0  0  0  0
    6.1156   -4.9742    0.3701 H   0  0  0  0  0  0  0  0  0  0  0  0
    7.3300   -2.8261    0.0665 H   0  0  0  0  0  0  0  0  0  0  0  0
    7.2322   -3.2549    1.7557 H   0  0  0  0  0  0  0  0  0  0  0  0
    4.1633   -4.4206   -0.9981 H   0  0  0  0  0  0  0  0  0  0  0  0
    5.5743   -3.5518   -1.5620 H   0  0  0  0  0  0  0  0  0  0  0  0
    2.5881   -1.4888    0.8252 H   0  0  0  0  0  0  0  0  0  0  0  0
    2.3369   -3.1610    0.3995 H   0  0  0  0  0  0  0  0  0  0  0  0
    5.0880   -1.3784   -2.8663 H   0  0  0  0  0  0  0  0  0  0  0  0
    4.1644    0.0299   -2.3392 H   0  0  0  0  0  0  0  0  0  0  0  0
    2.5162   -1.4251   -1.4818 H   0  0  0  0  0  0  0  0  0  0  0  0
  1 15  1  0
  1  2  1  0
  1 16  1  0
  1 17  1  0
  2  3  1  0
  2 18  1  0
  2 19  1  0
  3  4  1  0
  3 20  1  0
  3 21  1  0
  5  4  1  6
  4 15  1  0
  4 39  1  0
  5 13  1  0
  5 14  1  0
  5  6  1  0
  6  7  1  0
  6 22  1  0
  6 23  1  0
  7 12  1  0
  7  8  1  0
  7 24  1  1
  8  9  1  0
  8 25  1  0
  8 26  1  0
  9 10  1  0
  9 14  1  0
  9 27  1  1
 10 11  1  0
 10 28  1  0
 10 29  1  0
 11 12  1  0
 11 13  1  0
 11 30  1  6
 12 31  1  0
 12 32  1  0
 13 33  1  0
 13 34  1  0
 14 35  1  0
 14 36  1  0
 15 37  1  0
 15 38  1  0
M  CHG  1   4   1
M  END
>  <i_m_ct_stereo_status>  (153) 
1

>  <s_m_source_file>  (153) 
/var/tmp/pbs.5076255.sched01/tmp7dp07en1/447ppmqug5.sdf

>  <i_m_source_file_index>  (153) 
24

>  <i_lp_mmshare_version>  (153) 
48012

>  <i_f3d_flags>  (153) 
0

>  <s_epik_input>  (153) 
W0NIMl0xW0NIMl1bQ0gyXVtDSDJdTjFDMjNbQ0gyXVtDQEBIXTRbQ0gyXVtDQEhdKFtDSDJdMylbQ0gyXVtDQEBIXShbQ0gyXTQpW0NIMl0y

>  <s_epik_cmdline>  (153) 
J2VwaWtfcHl0aG9uJywgJy1waHQnLCAnMi4wJywgJy1waCcsICc3LjAnLCAnLXRuJywgJzgnLCAnLW1hJywgJzIwMCcsICctaW1hZScsICc8aW5maWxlLm1hZT4nLCAnLW9tYWUnLCAnPG91dGZpbGUubWFlPic=

>  <r_lp_tautomer_probability>  (153) 
1

>  <r_epik_Ionization_Penalty>  (153) 
8.24125e-05

>  <r_epik_Ionization_Penalty_Charging>  (153) 
8.24125e-05

>  <r_epik_Ionization_Penalty_Neutral>  (153) 
0

>  <r_epik_State_Penalty>  (153) 
-0

>  <r_epik_Charging_Adjusted_Penalty>  (153) 
8.24125e-05

>  <i_epik_Tot_Q>  (153) 
1

>  <i_epik_Tot_abs_Q>  (153) 
1

>  <s_lp_Force_Field>  (153) 
OPLS3e

>  <r_lp_Energy>  (153) 
18.8172

>  <b_lp_Chiralities_Consistent>  (153) 
1

>  <s_lp_Variant>  (153) 
48:0-1

>  <s_i_glide_gridfile>  (153) 
pfpi4k_grid

>  <i_i_glide_lignum>  (153) 
24

>  <i_i_glide_rotatable_bonds>  (153) 
1

>  <r_i_docking_score>  (153) 
-4.3864

>  <r_i_glide_ligand_efficiency>  (153) 
-0.292427

>  <r_i_glide_ligand_efficiency_sa>  (153) 
-0.721186

>  <r_i_glide_ligand_efficiency_ln>  (153) 
-1.18294

>  <r_i_glide_gscore>  (153) 
-4.3864

>  <r_i_glide_lipo>  (153) 
-0.735972

>  <r_i_glide_hbond>  (153) 
-0.2

>  <r_i_glide_metal>  (153) 
-0

>  <r_i_glide_rewards>  (153) 
-2.00218

>  <r_i_glide_evdw>  (153) 
-21.7396

>  <r_i_glide_ecoul>  (153) 
-4.49151

>  <r_i_glide_erotb>  (153) 
0.387574

>  <r_i_glide_esite>  (153) 
-0.075114

>  <r_i_glide_emodel>  (153) 
-26.2291

>  <r_i_glide_energy>  (153) 
-26.2311

>  <r_i_glide_einternal>  (153) 
15.6932

>  <r_i_glide_intrahb_reward>  (153) 
-0

>  <i_i_glide_confnum>  (153) 
4

>  <i_i_glide_posenum>  (153) 
3

>  <r_i_glide_eff_state_penalty>  (153) 
0

>  <ligand_id>  (153) 
48

>  <original_smiles>  (153) 
C1CCN(C23CC4CC(CC(C4)C2)C3)C1

>  <smiles>  (153) 
[H]C1([H])C2([H])C([H])([H])C3([H])C([H])([H])C1([H])C([H])([H])C([N+]1([H])C([H])([H])C([H])([H])C([H])([H])C1([H])[H])(C2([H])[H])C3([H])[H]

$$$$
48:0:1
     RDKit          3D

 39 42  0  0  1  0  0  0  0  0999 V2000
    4.0374   -0.9038   -3.5385 C   0  0  0  0  0  0  0  0  0  0  0  0
    3.0808   -2.0236   -3.9526 C   0  0  0  0  0  0  0  0  0  0  0  0
    3.0721   -3.0238   -2.8034 C   0  0  0  0  0  0  0  0  0  0  0  0
    3.5202   -2.2435   -1.6434 N   0  0  0  0  0  0  0  0  0  0  0  0
    3.9118   -3.0371   -0.4321 C   0  0  2  0  0  0  0  0  0  0  0  0
    5.1099   -3.9860   -0.7111 C   0  0  0  0  0  0  0  0  0  0  0  0
    5.4581   -4.7860    0.5585 C   0  0  1  0  0  0  0  0  0  0  0  0
    5.8443   -3.8027    1.6845 C   0  0  0  0  0  0  0  0  0  0  0  0
    4.6473   -2.8807    2.0026 C   0  0  2  0  0  0  0  0  0  0  0  0
    3.4342   -3.7264    2.4404 C   0  0  0  0  0  0  0  0  0  0  0  0
    3.0552   -4.6948    1.3062 C   0  0  2  0  0  0  0  0  0  0  0  0
    4.2354   -5.6274    0.9783 C   0  0  0  0  0  0  0  0  0  0  0  0
    2.6870   -3.8826    0.0408 C   0  0  0  0  0  0  0  0  0  0  0  0
    4.2833   -2.0756    0.7340 C   0  0  0  0  0  0  0  0  0  0  0  0
    4.5542   -1.3165   -2.1600 C   0  0  0  0  0  0  0  0  0  0  0  0
    3.5238    0.0567   -3.4992 H   0  0  0  0  0  0  0  0  0  0  0  0
    4.8613   -0.8049   -4.2443 H   0  0  0  0  0  0  0  0  0  0  0  0
    2.0897   -1.6206   -4.1512 H   0  0  0  0  0  0  0  0  0  0  0  0
    3.4098   -2.5265   -4.8539 H   0  0  0  0  0  0  0  0  0  0  0  0
    2.0758   -3.4553   -2.6851 H   0  0  0  0  0  0  0  0  0  0  0  0
    3.7644   -3.8342   -3.0277 H   0  0  0  0  0  0  0  0  0  0  0  0
    4.8848   -4.6978   -1.5106 H   0  0  0  0  0  0  0  0  0  0  0  0
    5.9997   -3.4368   -1.0203 H   0  0  0  0  0  0  0  0  0  0  0  0
    6.2987   -5.4466    0.3546 H   0  0  0  0  0  0  0  0  0  0  0  0
    6.1556   -4.3377    2.5799 H   0  0  0  0  0  0  0  0  0  0  0  0
    6.6933   -3.2024    1.3679 H   0  0  0  0  0  0  0  0  0  0  0  0
    4.9184   -2.1929    2.7988 H   0  0  0  0  0  0  0  0  0  0  0  0
    3.6709   -4.2797    3.3471 H   0  0  0  0  0  0  0  0  0  0  0  0
    2.5898   -3.0721    2.6757 H   0  0  0  0  0  0  0  0  0  0  0  0
    2.1915   -5.2872    1.6029 H   0  0  0  0  0  0  0  0  0  0  0  0
    3.9614   -6.2987    0.1639 H   0  0  0  0  0  0  0  0  0  0  0  0
    4.4748   -6.2602    1.8322 H   0  0  0  0  0  0  0  0  0  0  0  0
    1.8311   -3.2343    0.2413 H   0  0  0  0  0  0  0  0  0  0  0  0
    2.3699   -4.5921   -0.7224 H   0  0  0  0  0  0  0  0  0  0  0  0
    5.1361   -1.4462    0.4810 H   0  0  0  0  0  0  0  0  0  0  0  0
    3.4575   -1.3946    0.9527 H   0  0  0  0  0  0  0  0  0  0  0  0
    5.5064   -1.8267   -2.2722 H   0  0  0  0  0  0  0  0  0  0  0  0
    4.7030   -0.4409   -1.5322 H   0  0  0  0  0  0  0  0  0  0  0  0
    2.7355   -1.6766   -1.3770 H   0  0  0  0  0  0  0  0  0  0  0  0
  1 15  1  0
  1  2  1  0
  1 16  1  0
  1 17  1  0
  2  3  1  0
  2 18  1  0
  2 19  1  0
  3  4  1  0
  3 20  1  0
  3 21  1  0
  5  4  1  6
  4 15  1  0
  4 39  1  0
  5 13  1  0
  5 14  1  0
  5  6  1  0
  6  7  1  0
  6 22  1  0
  6 23  1  0
  7 12  1  0
  7  8  1  0
  7 24  1  6
  8  9  1  0
  8 25  1  0
  8 26  1  0
  9 10  1  0
  9 14  1  0
  9 27  1  1
 10 11  1  0
 10 28  1  0
 10 29  1  0
 11 12  1  0
 11 13  1  0
 11 30  1  1
 12 31  1  0
 12 32  1  0
 13 33  1  0
 13 34  1  0
 14 35  1  0
 14 36  1  0
 15 37  1  0
 15 38  1  0
M  CHG  1   4   1
M  END
>  <i_m_ct_stereo_status>  (154) 
1

>  <s_m_source_file>  (154) 
/var/tmp/pbs.5076255.sched01/tmp7dp07en1/447ppmqug5.sdf

>  <i_m_source_file_index>  (154) 
24

>  <i_lp_mmshare_version>  (154) 
48012

>  <i_f3d_flags>  (154) 
0

>  <s_epik_input>  (154) 
W0NIMl0xW0NIMl1bQ0gyXVtDSDJdTjFDMjNbQ0gyXVtDQEBIXTRbQ0gyXVtDQEhdKFtDSDJdMylbQ0gyXVtDQEBIXShbQ0gyXTQpW0NIMl0y

>  <s_epik_cmdline>  (154) 
J2VwaWtfcHl0aG9uJywgJy1waHQnLCAnMi4wJywgJy1waCcsICc3LjAnLCAnLXRuJywgJzgnLCAnLW1hJywgJzIwMCcsICctaW1hZScsICc8aW5maWxlLm1hZT4nLCAnLW9tYWUnLCAnPG91dGZpbGUubWFlPic=

>  <r_lp_tautomer_probability>  (154) 
1

>  <r_epik_Ionization_Penalty>  (154) 
8.24125e-05

>  <r_epik_Ionization_Penalty_Charging>  (154) 
8.24125e-05

>  <r_epik_Ionization_Penalty_Neutral>  (154) 
0

>  <r_epik_State_Penalty>  (154) 
-0

>  <r_epik_Charging_Adjusted_Penalty>  (154) 
8.24125e-05

>  <i_epik_Tot_Q>  (154) 
1

>  <i_epik_Tot_abs_Q>  (154) 
1

>  <s_lp_Force_Field>  (154) 
OPLS3e

>  <r_lp_Energy>  (154) 
18.8172

>  <b_lp_Chiralities_Consistent>  (154) 
1

>  <s_lp_Variant>  (154) 
48:0-1

>  <s_i_glide_gridfile>  (154) 
pfpi4k_grid

>  <i_i_glide_lignum>  (154) 
24

>  <i_i_glide_rotatable_bonds>  (154) 
1

>  <r_i_docking_score>  (154) 
-3.94212

>  <r_i_glide_ligand_efficiency>  (154) 
-0.262808

>  <r_i_glide_ligand_efficiency_sa>  (154) 
-0.64814

>  <r_i_glide_ligand_efficiency_ln>  (154) 
-1.06312

>  <r_i_glide_gscore>  (154) 
-3.94212

>  <r_i_glide_lipo>  (154) 
-0.597743

>  <r_i_glide_hbond>  (154) 
-0.121763

>  <r_i_glide_metal>  (154) 
-0

>  <r_i_glide_rewards>  (154) 
-2.00218

>  <r_i_glide_evdw>  (154) 
-20.1897

>  <r_i_glide_ecoul>  (154) 
-3.62724

>  <r_i_glide_erotb>  (154) 
0.387574

>  <r_i_glide_esite>  (154) 
-0.0544358

>  <r_i_glide_emodel>  (154) 
-31.4225

>  <r_i_glide_energy>  (154) 
-23.817

>  <r_i_glide_einternal>  (154) 
6.09684e-05

>  <r_i_glide_intrahb_reward>  (154) 
-0

>  <i_i_glide_confnum>  (154) 
4

>  <i_i_glide_posenum>  (154) 
33

>  <r_i_glide_eff_state_penalty>  (154) 
0

>  <ligand_id>  (154) 
48

>  <original_smiles>  (154) 
C1CCN(C23CC4CC(CC(C4)C2)C3)C1

>  <smiles>  (154) 
[H]C1([H])C2([H])C([H])([H])C3([H])C([H])([H])C1([H])C([H])([H])C([N+]1([H])C([H])([H])C([H])([H])C([H])([H])C1([H])[H])(C2([H])[H])C3([H])[H]

$$$$
48:0:2
     RDKit          3D

 39 42  0  0  1  0  0  0  0  0999 V2000
    4.7688   -4.1546    2.5096 C   0  0  0  0  0  0  0  0  0  0  0  0
    3.3354   -3.6370    2.7582 C   0  0  0  0  0  0  0  0  0  0  0  0
    2.8986   -3.0437    1.4237 C   0  0  0  0  0  0  0  0  0  0  0  0
    3.7433   -3.7308    0.4130 N   0  0  0  0  0  0  0  0  0  0  0  0
    3.7180   -3.1807   -0.9708 C   0  0  2  0  0  0  0  0  0  0  0  0
    4.0730   -1.6472   -1.0196 C   0  0  0  0  0  0  0  0  0  0  0  0
    4.0351   -1.1747   -2.4762 C   0  0  1  0  0  0  0  0  0  0  0  0
    5.0144   -1.9930   -3.2735 C   0  0  0  0  0  0  0  0  0  0  0  0
    4.5990   -3.4535   -3.3450 C   0  0  2  0  0  0  0  0  0  0  0  0
    3.1684   -3.5375   -3.9501 C   0  0  0  0  0  0  0  0  0  0  0  0
    2.2050   -2.7872   -3.0340 C   0  0  2  0  0  0  0  0  0  0  0  0
    2.6132   -1.2823   -3.0401 C   0  0  0  0  0  0  0  0  0  0  0  0
    2.2986   -3.3897   -1.5996 C   0  0  0  0  0  0  0  0  0  0  0  0
    4.7142   -3.9718   -1.8877 C   0  0  0  0  0  0  0  0  0  0  0  0
    5.0731   -3.8818    1.0403 C   0  0  0  0  0  0  0  0  0  0  0  0
    4.8170   -5.2295    2.7113 H   0  0  0  0  0  0  0  0  0  0  0  0
    5.5086   -3.6406    3.1257 H   0  0  0  0  0  0  0  0  0  0  0  0
    2.6696   -4.4531    3.0817 H   0  0  0  0  0  0  0  0  0  0  0  0
    3.3010   -2.8381    3.5012 H   0  0  0  0  0  0  0  0  0  0  0  0
    1.8340   -3.2283    1.2574 H   0  0  0  0  0  0  0  0  0  0  0  0
    3.0593   -1.9585    1.4437 H   0  0  0  0  0  0  0  0  0  0  0  0
    3.3893   -1.0207   -0.4296 H   0  0  0  0  0  0  0  0  0  0  0  0
    5.0920   -1.4810   -0.6549 H   0  0  0  0  0  0  0  0  0  0  0  0
    4.3409   -0.1321   -2.4671 H   0  0  0  0  0  0  0  0  0  0  0  0
    5.0123   -1.5507   -4.2816 H   0  0  0  0  0  0  0  0  0  0  0  0
    5.9776   -1.9268   -2.7137 H   0  0  0  0  0  0  0  0  0  0  0  0
    5.2960   -3.9897   -3.9888 H   0  0  0  0  0  0  0  0  0  0  0  0
    3.1488   -3.1070   -4.9619 H   0  0  0  0  0  0  0  0  0  0  0  0
    2.8373   -4.5748   -4.0353 H   0  0  0  0  0  0  0  0  0  0  0  0
    1.1836   -2.8705   -3.4390 H   0  0  0  0  0  0  0  0  0  0  0  0
    2.0767   -0.6168   -2.3721 H   0  0  0  0  0  0  0  0  0  0  0  0
    2.6132   -0.8577   -4.0647 H   0  0  0  0  0  0  0  0  0  0  0  0
    1.9539   -4.4286   -1.6009 H   0  0  0  0  0  0  0  0  0  0  0  0
    1.5659   -2.8853   -0.9953 H   0  0  0  0  0  0  0  0  0  0  0  0
    5.7496   -3.7943   -1.5896 H   0  0  0  0  0  0  0  0  0  0  0  0
    4.6334   -5.0536   -1.8069 H   0  0  0  0  0  0  0  0  0  0  0  0
    5.6308   -2.9396    0.9701 H   0  0  0  0  0  0  0  0  0  0  0  0
    5.6708   -4.6939    0.6066 H   0  0  0  0  0  0  0  0  0  0  0  0
    3.3827   -4.6758    0.3248 H   0  0  0  0  0  0  0  0  0  0  0  0
  1 15  1  0
  1  2  1  0
  1 16  1  0
  1 17  1  0
  2  3  1  0
  2 18  1  0
  2 19  1  0
  3  4  1  0
  3 20  1  0
  3 21  1  0
  5  4  1  1
  4 15  1  0
  4 39  1  0
  5 13  1  0
  5 14  1  0
  5  6  1  0
  6  7  1  0
  6 22  1  0
  6 23  1  0
  7 12  1  0
  7  8  1  0
  7 24  1  1
  8  9  1  0
  8 25  1  0
  8 26  1  0
  9 10  1  0
  9 14  1  0
  9 27  1  6
 10 11  1  0
 10 28  1  0
 10 29  1  0
 11 12  1  0
 11 13  1  0
 11 30  1  6
 12 31  1  0
 12 32  1  0
 13 33  1  0
 13 34  1  0
 14 35  1  0
 14 36  1  0
 15 37  1  0
 15 38  1  0
M  CHG  1   4   1
M  END
>  <i_m_ct_stereo_status>  (155) 
1

>  <s_m_source_file>  (155) 
/var/tmp/pbs.5076255.sched01/tmp7dp07en1/447ppmqug5.sdf

>  <i_m_source_file_index>  (155) 
24

>  <i_lp_mmshare_version>  (155) 
48012

>  <i_f3d_flags>  (155) 
0

>  <s_epik_input>  (155) 
W0NIMl0xW0NIMl1bQ0gyXVtDSDJdTjFDMjNbQ0gyXVtDQEBIXTRbQ0gyXVtDQEhdKFtDSDJdMylbQ0gyXVtDQEBIXShbQ0gyXTQpW0NIMl0y

>  <s_epik_cmdline>  (155) 
J2VwaWtfcHl0aG9uJywgJy1waHQnLCAnMi4wJywgJy1waCcsICc3LjAnLCAnLXRuJywgJzgnLCAnLW1hJywgJzIwMCcsICctaW1hZScsICc8aW5maWxlLm1hZT4nLCAnLW9tYWUnLCAnPG91dGZpbGUubWFlPic=

>  <r_lp_tautomer_probability>  (155) 
1

>  <r_epik_Ionization_Penalty>  (155) 
8.24125e-05

>  <r_epik_Ionization_Penalty_Charging>  (155) 
8.24125e-05

>  <r_epik_Ionization_Penalty_Neutral>  (155) 
0

>  <r_epik_State_Penalty>  (155) 
-0

>  <r_epik_Charging_Adjusted_Penalty>  (155) 
8.24125e-05

>  <i_epik_Tot_Q>  (155) 
1

>  <i_epik_Tot_abs_Q>  (155) 
1

>  <s_lp_Force_Field>  (155) 
OPLS3e

>  <r_lp_Energy>  (155) 
18.8172

>  <b_lp_Chiralities_Consistent>  (155) 
1

>  <s_lp_Variant>  (155) 
48:0-1

>  <s_i_glide_gridfile>  (155) 
pfpi4k_grid

>  <i_i_glide_lignum>  (155) 
24

>  <i_i_glide_rotatable_bonds>  (155) 
1

>  <r_i_docking_score>  (155) 
-2.80023

>  <r_i_glide_ligand_efficiency>  (155) 
-0.186682

>  <r_i_glide_ligand_efficiency_sa>  (155) 
-0.460397

>  <r_i_glide_ligand_efficiency_ln>  (155) 
-0.755176

>  <r_i_glide_gscore>  (155) 
-2.80023

>  <r_i_glide_lipo>  (155) 
-0.542569

>  <r_i_glide_hbond>  (155) 
0

>  <r_i_glide_metal>  (155) 
-0

>  <r_i_glide_rewards>  (155) 
-2.00218

>  <r_i_glide_evdw>  (155) 
-4.19667

>  <r_i_glide_ecoul>  (155) 
-2.88814

>  <r_i_glide_erotb>  (155) 
0.387574

>  <r_i_glide_esite>  (155) 
0

>  <r_i_glide_emodel>  (155) 
-11.738

>  <r_i_glide_energy>  (155) 
-7.08481

>  <r_i_glide_einternal>  (155) 
0.193465

>  <r_i_glide_intrahb_reward>  (155) 
-0

>  <i_i_glide_confnum>  (155) 
4

>  <i_i_glide_posenum>  (155) 
1

>  <r_i_glide_eff_state_penalty>  (155) 
0

>  <ligand_id>  (155) 
48

>  <original_smiles>  (155) 
C1CCN(C23CC4CC(CC(C4)C2)C3)C1

>  <smiles>  (155) 
[H]C1([H])C2([H])C([H])([H])C3([H])C([H])([H])C1([H])C([H])([H])C([N+]1([H])C([H])([H])C([H])([H])C([H])([H])C1([H])[H])(C2([H])[H])C3([H])[H]

$$$$
49:0:0
     RDKit          3D

 36 39  0  0  1  0  0  0  0  0999 V2000
    3.1494   -1.7824   -4.0954 C   0  0  0  0  0  0  0  0  0  0  0  0
    4.0579   -2.2123   -2.9262 C   0  0  2  0  0  0  0  0  0  0  0  0
    3.3032   -3.1945   -2.0376 C   0  0  0  0  0  0  0  0  0  0  0  0
    3.2623   -3.1416   -0.6999 C   0  0  0  0  0  0  0  0  0  0  0  0
    2.6209   -4.2531    0.1185 C   0  0  0  0  0  0  0  0  0  0  0  0
    1.8384   -5.0531   -0.3225 O   0  0  0  0  0  0  0  0  0  0  0  0
    2.9850   -4.2809    1.4779 O   0  0  0  0  0  0  0  0  0  0  0  0
    3.8570   -3.3738    2.1894 C   0  0  1  0  0  0  0  0  0  0  0  0
    4.5922   -4.1855    3.2646 C   0  0  0  0  0  0  0  0  0  0  0  0
    4.8175   -2.7345    1.1920 C   0  0  2  0  0  0  0  0  0  0  0  0
    5.9753   -1.7905    1.6161 C   0  0  1  0  0  0  0  0  0  0  0  0
    5.5983   -0.7917    2.7156 C   0  0  0  0  0  0  0  0  0  0  0  0
    7.2592   -1.6574    0.8328 C   0  0  0  0  0  0  0  0  0  0  0  0
    5.9554   -1.2295    0.2201 C   0  0  0  0  0  0  0  0  0  0  0  0
    4.8320   -1.1521   -0.6542 C   0  0  0  0  0  0  0  0  0  0  0  0
    4.6508   -0.9845   -2.1754 C   0  0  0  0  0  0  0  0  0  0  0  0
    3.9348   -2.0533    0.0949 C   0  0  1  0  0  0  0  0  0  0  0  0
    2.9736   -1.2009    0.6175 O   0  0  0  0  0  0  0  0  0  0  0  0
    2.8431   -2.6475   -4.7007 H   0  0  0  0  0  0  0  0  0  0  0  0
    3.6439   -1.0702   -4.7621 H   0  0  0  0  0  0  0  0  0  0  0  0
    2.2300   -1.3157   -3.7320 H   0  0  0  0  0  0  0  0  0  0  0  0
    4.8846   -2.7766   -3.3698 H   0  0  0  0  0  0  0  0  0  0  0  0
    2.7963   -4.0006   -2.5781 H   0  0  0  0  0  0  0  0  0  0  0  0
    3.2655   -2.5842    2.6669 H   0  0  0  0  0  0  0  0  0  0  0  0
    5.2960   -3.5877    3.8373 H   0  0  0  0  0  0  0  0  0  0  0  0
    5.1285   -5.0286    2.8304 H   0  0  0  0  0  0  0  0  0  0  0  0
    3.8502   -4.5898    3.9597 H   0  0  0  0  0  0  0  0  0  0  0  0
    5.3617   -3.5669    0.7393 H   0  0  0  0  0  0  0  0  0  0  0  0
    5.7256   -1.2581    3.6850 H   0  0  0  0  0  0  0  0  0  0  0  0
    4.5595   -0.4595    2.6460 H   0  0  0  0  0  0  0  0  0  0  0  0
    6.2245    0.0949    2.7253 H   0  0  0  0  0  0  0  0  0  0  0  0
    7.9004   -0.8390    1.1171 H   0  0  0  0  0  0  0  0  0  0  0  0
    7.7064   -2.5598    0.4250 H   0  0  0  0  0  0  0  0  0  0  0  0
    5.4572   -0.5090   -2.6569 H   0  0  0  0  0  0  0  0  0  0  0  0
    3.8466   -0.2518   -2.2204 H   0  0  0  0  0  0  0  0  0  0  0  0
    2.3041   -1.0456   -0.0754 H   0  0  0  0  0  0  0  0  0  0  0  0
  1  2  1  0
  1 19  1  0
  1 20  1  0
  1 21  1  0
  2 16  1  0
  2  3  1  0
  2 22  1  6
  3  4  2  0
  3 23  1  0
  4 17  1  0
  4  5  1  0
  5  6  2  0
  5  7  1  0
  7  8  1  0
  8  9  1  0
  8 10  1  0
  8 24  1  1
  9 25  1  0
  9 26  1  0
  9 27  1  0
 10 17  1  0
 10 11  1  0
 10 28  1  6
 11 14  1  0
 11 12  1  1
 11 13  1  0
 12 29  1  0
 12 30  1  0
 12 31  1  0
 13 14  1  0
 13 32  1  0
 13 33  1  0
 14 15  2  0
 15 16  1  0
 15 17  1  0
 16 34  1  0
 16 35  1  0
 17 18  1  1
 18 36  1  0
M  END
>  <i_m_ct_stereo_status>  (156) 
1

>  <s_m_source_file>  (156) 
/var/tmp/pbs.5076255.sched01/tmp7dp07en1/447ppmqug5.sdf

>  <i_m_source_file_index>  (156) 
25

>  <i_lp_mmshare_version>  (156) 
48012

>  <i_f3d_flags>  (156) 
0

>  <s_epik_input>  (156) 
W0NIMl0xQzI9QzNbQ0gyXVtDQEhdKFtDSDNdKVtDSF09QyhDKD1PKU9bQ0BIXTRbQ0gzXSlbQ0BAXTMoW09IXSlbQ0BIXTRDMTJbQ0gzXQ==

>  <s_epik_cmdline>  (156) 
J2VwaWtfcHl0aG9uJywgJy1waHQnLCAnMi4wJywgJy1waCcsICc3LjAnLCAnLXRuJywgJzgnLCAnLW1hJywgJzIwMCcsICctaW1hZScsICc8aW5maWxlLm1hZT4nLCAnLW9tYWUnLCAnPG91dGZpbGUubWFlPic=

>  <r_lp_tautomer_probability>  (156) 
1

>  <r_epik_Ionization_Penalty>  (156) 
5.61991e-06

>  <r_epik_Ionization_Penalty_Charging>  (156) 
0

>  <r_epik_Ionization_Penalty_Neutral>  (156) 
5.61991e-06

>  <r_epik_State_Penalty>  (156) 
-0

>  <r_epik_Charging_Adjusted_Penalty>  (156) 
0

>  <i_epik_Tot_Q>  (156) 
0

>  <i_epik_Tot_abs_Q>  (156) 
0

>  <s_epik_Chemistry_Notes>  (156) 
This compound has an ester and may undergo hydrolysis at high or low pH.

>  <s_lp_Force_Field>  (156) 
OPLS3e

>  <r_lp_Energy>  (156) 
42.0078

>  <b_lp_Chiralities_Consistent>  (156) 
1

>  <s_lp_Variant>  (156) 
49:0-1

>  <s_i_glide_gridfile>  (156) 
pfpi4k_grid

>  <i_i_glide_lignum>  (156) 
25

>  <i_i_glide_rotatable_bonds>  (156) 
1

>  <r_i_docking_score>  (156) 
-3.90646

>  <r_i_glide_ligand_efficiency>  (156) 
-0.217026

>  <r_i_glide_ligand_efficiency_sa>  (156) 
-0.568768

>  <r_i_glide_ligand_efficiency_ln>  (156) 
-1.00414

>  <r_i_glide_gscore>  (156) 
-3.90646

>  <r_i_glide_lipo>  (156) 
-0.479317

>  <r_i_glide_hbond>  (156) 
-0.038077

>  <r_i_glide_metal>  (156) 
-0

>  <r_i_glide_rewards>  (156) 
-1.72976

>  <r_i_glide_evdw>  (156) 
-17.1767

>  <r_i_glide_ecoul>  (156) 
-5.06422

>  <r_i_glide_erotb>  (156) 
0

>  <r_i_glide_esite>  (156) 
-0.0408378

>  <r_i_glide_emodel>  (156) 
-26.5951

>  <r_i_glide_energy>  (156) 
-22.2409

>  <r_i_glide_einternal>  (156) 
0.156541

>  <r_i_glide_intrahb_reward>  (156) 
-0

>  <i_i_glide_confnum>  (156) 
1

>  <i_i_glide_posenum>  (156) 
9

>  <r_i_glide_eff_state_penalty>  (156) 
0

>  <ligand_id>  (156) 
49

>  <original_smiles>  (156) 
CC1C=C2C(=O)OC(C)C3C4(C)CC4=C(C1)C23O

>  <smiles>  (156) 
[H]OC12C3=C([H])C([H])(C([H])([H])[H])C([H])([H])C1=C1C([H])([H])C1(C([H])([H])[H])C2([H])C([H])(C([H])([H])[H])OC3=O

$$$$
49:0:1
     RDKit          3D

 36 39  0  0  1  0  0  0  0  0999 V2000
    3.2396   -0.4620   -4.2978 C   0  0  0  0  0  0  0  0  0  0  0  0
    3.9902   -1.4380   -3.3583 C   0  0  2  0  0  0  0  0  0  0  0  0
    3.0255   -2.4707   -2.7758 C   0  0  0  0  0  0  0  0  0  0  0  0
    2.9899   -2.7992   -1.4419 C   0  0  0  0  0  0  0  0  0  0  0  0
    2.1202   -3.8430   -0.9124 C   0  0  0  0  0  0  0  0  0  0  0  0
    1.0732   -4.2207   -1.4515 O   0  0  0  0  0  0  0  0  0  0  0  0
    2.4345   -4.4223    0.3135 O   0  0  0  0  0  0  0  0  0  0  0  0
    3.4477   -3.9716    1.2339 C   0  0  1  0  0  0  0  0  0  0  0  0
    3.8996   -5.2314    1.9682 C   0  0  0  0  0  0  0  0  0  0  0  0
    4.5363   -3.3159    0.4201 C   0  0  2  0  0  0  0  0  0  0  0  0
    5.8484   -2.8284    1.0440 C   0  0  1  0  0  0  0  0  0  0  0  0
    5.6725   -2.1341    2.3995 C   0  0  0  0  0  0  0  0  0  0  0  0
    7.1566   -2.7950    0.3324 C   0  0  0  0  0  0  0  0  0  0  0  0
    6.0100   -1.9095   -0.1154 C   0  0  0  0  0  0  0  0  0  0  0  0
    4.9656   -1.3136   -0.9000 C   0  0  0  0  0  0  0  0  0  0  0  0
    4.8194   -0.6900   -2.2820 C   0  0  0  0  0  0  0  0  0  0  0  0
    3.8486   -2.1582   -0.3831 C   0  0  1  0  0  0  0  0  0  0  0  0
    3.0543   -1.2931    0.4214 O   0  0  0  0  0  0  0  0  0  0  0  0
    2.7590   -0.9952   -5.1170 H   0  0  0  0  0  0  0  0  0  0  0  0
    3.9181    0.2751   -4.7322 H   0  0  0  0  0  0  0  0  0  0  0  0
    2.4637    0.0868   -3.7565 H   0  0  0  0  0  0  0  0  0  0  0  0
    4.6839   -2.0143   -3.9746 H   0  0  0  0  0  0  0  0  0  0  0  0
    2.3622   -2.9763   -3.4781 H   0  0  0  0  0  0  0  0  0  0  0  0
    2.9982   -3.2610    1.9234 H   0  0  0  0  0  0  0  0  0  0  0  0
    4.7066   -5.0101    2.6617 H   0  0  0  0  0  0  0  0  0  0  0  0
    4.2354   -6.0071    1.2775 H   0  0  0  0  0  0  0  0  0  0  0  0
    3.0638   -5.6357    2.5367 H   0  0  0  0  0  0  0  0  0  0  0  0
    4.8833   -4.0775   -0.2940 H   0  0  0  0  0  0  0  0  0  0  0  0
    5.6699   -2.8893    3.1823 H   0  0  0  0  0  0  0  0  0  0  0  0
    4.7329   -1.5897    2.4894 H   0  0  0  0  0  0  0  0  0  0  0  0
    6.4762   -1.4377    2.6381 H   0  0  0  0  0  0  0  0  0  0  0  0
    7.9696   -2.2515    0.8118 H   0  0  0  0  0  0  0  0  0  0  0  0
    7.3850   -3.6001   -0.3897 H   0  0  0  0  0  0  0  0  0  0  0  0
    5.7424   -0.2685   -2.6586 H   0  0  0  0  0  0  0  0  0  0  0  0
    4.2195    0.1930   -2.0464 H   0  0  0  0  0  0  0  0  0  0  0  0
    2.3099   -1.0195   -0.1240 H   0  0  0  0  0  0  0  0  0  0  0  0
  1  2  1  0
  1 19  1  0
  1 20  1  0
  1 21  1  0
  2 16  1  0
  2  3  1  0
  2 22  1  6
  3  4  2  0
  3 23  1  0
  4 17  1  0
  4  5  1  0
  5  6  2  0
  5  7  1  0
  7  8  1  0
  8  9  1  0
  8 10  1  0
  8 24  1  1
  9 25  1  0
  9 26  1  0
  9 27  1  0
 10 17  1  0
 10 11  1  0
 10 28  1  6
 11 14  1  0
 11 12  1  1
 11 13  1  0
 12 29  1  0
 12 30  1  0
 12 31  1  0
 13 14  1  0
 13 32  1  0
 13 33  1  0
 14 15  2  0
 15 16  1  0
 15 17  1  0
 16 34  1  0
 16 35  1  0
 17 18  1  1
 18 36  1  0
M  END
>  <i_m_ct_stereo_status>  (157) 
1

>  <s_m_source_file>  (157) 
/var/tmp/pbs.5076255.sched01/tmp7dp07en1/447ppmqug5.sdf

>  <i_m_source_file_index>  (157) 
25

>  <i_lp_mmshare_version>  (157) 
48012

>  <i_f3d_flags>  (157) 
0

>  <s_epik_input>  (157) 
W0NIMl0xQzI9QzNbQ0gyXVtDQEhdKFtDSDNdKVtDSF09QyhDKD1PKU9bQ0BIXTRbQ0gzXSlbQ0BAXTMoW09IXSlbQ0BIXTRDMTJbQ0gzXQ==

>  <s_epik_cmdline>  (157) 
J2VwaWtfcHl0aG9uJywgJy1waHQnLCAnMi4wJywgJy1waCcsICc3LjAnLCAnLXRuJywgJzgnLCAnLW1hJywgJzIwMCcsICctaW1hZScsICc8aW5maWxlLm1hZT4nLCAnLW9tYWUnLCAnPG91dGZpbGUubWFlPic=

>  <r_lp_tautomer_probability>  (157) 
1

>  <r_epik_Ionization_Penalty>  (157) 
5.61991e-06

>  <r_epik_Ionization_Penalty_Charging>  (157) 
0

>  <r_epik_Ionization_Penalty_Neutral>  (157) 
5.61991e-06

>  <r_epik_State_Penalty>  (157) 
-0

>  <r_epik_Charging_Adjusted_Penalty>  (157) 
0

>  <i_epik_Tot_Q>  (157) 
0

>  <i_epik_Tot_abs_Q>  (157) 
0

>  <s_epik_Chemistry_Notes>  (157) 
This compound has an ester and may undergo hydrolysis at high or low pH.

>  <s_lp_Force_Field>  (157) 
OPLS3e

>  <r_lp_Energy>  (157) 
42.0078

>  <b_lp_Chiralities_Consistent>  (157) 
1

>  <s_lp_Variant>  (157) 
49:0-1

>  <s_i_glide_gridfile>  (157) 
pfpi4k_grid

>  <i_i_glide_lignum>  (157) 
25

>  <i_i_glide_rotatable_bonds>  (157) 
1

>  <r_i_docking_score>  (157) 
-3.83045

>  <r_i_glide_ligand_efficiency>  (157) 
-0.212803

>  <r_i_glide_ligand_efficiency_sa>  (157) 
-0.557701

>  <r_i_glide_ligand_efficiency_ln>  (157) 
-0.984597

>  <r_i_glide_gscore>  (157) 
-3.83045

>  <r_i_glide_lipo>  (157) 
-0.730955

>  <r_i_glide_hbond>  (157) 
-0.00615358

>  <r_i_glide_metal>  (157) 
-0

>  <r_i_glide_rewards>  (157) 
-1.72976

>  <r_i_glide_evdw>  (157) 
-14.1538

>  <r_i_glide_ecoul>  (157) 
-4.02727

>  <r_i_glide_erotb>  (157) 
0

>  <r_i_glide_esite>  (157) 
-0.0517953

>  <r_i_glide_emodel>  (157) 
-21.7384

>  <r_i_glide_energy>  (157) 
-18.1811

>  <r_i_glide_einternal>  (157) 
0.41895

>  <r_i_glide_intrahb_reward>  (157) 
-0

>  <i_i_glide_confnum>  (157) 
1

>  <i_i_glide_posenum>  (157) 
26

>  <r_i_glide_eff_state_penalty>  (157) 
0

>  <ligand_id>  (157) 
49

>  <original_smiles>  (157) 
CC1C=C2C(=O)OC(C)C3C4(C)CC4=C(C1)C23O

>  <smiles>  (157) 
[H]OC12C3=C([H])C([H])(C([H])([H])[H])C([H])([H])C1=C1C([H])([H])C1(C([H])([H])[H])C2([H])C([H])(C([H])([H])[H])OC3=O

$$$$
49:0:2
     RDKit          3D

 36 39  0  0  1  0  0  0  0  0999 V2000
    2.6761   -0.1886   -4.3768 C   0  0  0  0  0  0  0  0  0  0  0  0
    3.4887   -1.2837   -3.7086 C   0  0  2  0  0  0  0  0  0  0  0  0
    2.6121   -2.3439   -3.0136 C   0  0  0  0  0  0  0  0  0  0  0  0
    2.8525   -2.7886   -1.7552 C   0  0  0  0  0  0  0  0  0  0  0  0
    2.0248   -3.8500   -1.1315 C   0  0  0  0  0  0  0  0  0  0  0  0
    0.9433   -4.1567   -1.5112 O   0  0  0  0  0  0  0  0  0  0  0  0
    2.5613   -4.5178   -0.0237 O   0  0  0  0  0  0  0  0  0  0  0  0
    3.8335   -4.2612    0.6121 C   0  0  1  0  0  0  0  0  0  0  0  0
    4.3446   -5.6153    1.1047 C   0  0  0  0  0  0  0  0  0  0  0  0
    4.7657   -3.5760   -0.3743 C   0  0  2  0  0  0  0  0  0  0  0  0
    6.2061   -3.1931   -0.0282 C   0  0  1  0  0  0  0  0  0  0  0  0
    6.4006   -2.6745    1.3902 C   0  0  0  0  0  0  0  0  0  0  0  0
    7.3044   -3.1451   -1.0137 C   0  0  0  0  0  0  0  0  0  0  0  0
    6.1627   -2.1791   -1.1192 C   0  0  0  0  0  0  0  0  0  0  0  0
    4.9940   -1.5298   -1.6070 C   0  0  0  0  0  0  0  0  0  0  0  0
    4.5365   -0.6657   -2.7525 C   0  0  0  0  0  0  0  0  0  0  0  0
    3.9864   -2.3302   -0.8924 C   0  0  1  0  0  0  0  0  0  0  0  0
    3.5019   -1.4704    0.1198 O   0  0  0  0  0  0  0  0  0  0  0  0
    1.9119   -0.6055   -5.1002 H   0  0  0  0  0  0  0  0  0  0  0  0
    3.2472    0.5428   -4.8945 H   0  0  0  0  0  0  0  0  0  0  0  0
    2.0911    0.3866   -3.6147 H   0  0  0  0  0  0  0  0  0  0  0  0
    3.9956   -1.8176   -4.5069 H   0  0  0  0  0  0  0  0  0  0  0  0
    1.7729   -2.7224   -3.5823 H   0  0  0  0  0  0  0  0  0  0  0  0
    3.6298   -3.6021    1.4535 H   0  0  0  0  0  0  0  0  0  0  0  0
    5.3038   -5.5110    1.6025 H   0  0  0  0  0  0  0  0  0  0  0  0
    4.4532   -6.3380    0.2920 H   0  0  0  0  0  0  0  0  0  0  0  0
    3.6398   -6.0323    1.8227 H   0  0  0  0  0  0  0  0  0  0  0  0
    4.8895   -4.2666   -1.2178 H   0  0  0  0  0  0  0  0  0  0  0  0
    6.5277   -3.5379    2.0380 H   0  0  0  0  0  0  0  0  0  0  0  0
    5.5661   -2.0989    1.7989 H   0  0  0  0  0  0  0  0  0  0  0  0
    7.2977   -2.0642    1.4910 H   0  0  0  0  0  0  0  0  0  0  0  0
    8.2809   -2.8197   -0.6555 H   0  0  0  0  0  0  0  0  0  0  0  0
    7.2528   -3.8670   -1.8421 H   0  0  0  0  0  0  0  0  0  0  0  0
    5.4147   -0.4033   -3.2480 H   0  0  0  0  0  0  0  0  0  0  0  0
    4.1827    0.2405   -2.2802 H   0  0  0  0  0  0  0  0  0  0  0  0
    2.7213   -1.0518   -0.2288 H   0  0  0  0  0  0  0  0  0  0  0  0
  1  2  1  0
  1 19  1  0
  1 20  1  0
  1 21  1  0
  2 16  1  0
  2  3  1  0
  2 22  1  6
  3  4  2  0
  3 23  1  0
  4 17  1  0
  4  5  1  0
  5  6  2  0
  5  7  1  0
  7  8  1  0
  8  9  1  0
  8 10  1  0
  8 24  1  1
  9 25  1  0
  9 26  1  0
  9 27  1  0
 10 17  1  0
 10 11  1  0
 10 28  1  6
 11 14  1  0
 11 12  1  1
 11 13  1  0
 12 29  1  0
 12 30  1  0
 12 31  1  0
 13 14  1  0
 13 32  1  0
 13 33  1  0
 14 15  2  0
 15 16  1  0
 15 17  1  0
 16 34  1  0
 16 35  1  0
 17 18  1  1
 18 36  1  0
M  END
>  <i_m_ct_stereo_status>  (158) 
1

>  <s_m_source_file>  (158) 
/var/tmp/pbs.5076255.sched01/tmp7dp07en1/447ppmqug5.sdf

>  <i_m_source_file_index>  (158) 
25

>  <i_lp_mmshare_version>  (158) 
48012

>  <i_f3d_flags>  (158) 
0

>  <s_epik_input>  (158) 
W0NIMl0xQzI9QzNbQ0gyXVtDQEhdKFtDSDNdKVtDSF09QyhDKD1PKU9bQ0BIXTRbQ0gzXSlbQ0BAXTMoW09IXSlbQ0BIXTRDMTJbQ0gzXQ==

>  <s_epik_cmdline>  (158) 
J2VwaWtfcHl0aG9uJywgJy1waHQnLCAnMi4wJywgJy1waCcsICc3LjAnLCAnLXRuJywgJzgnLCAnLW1hJywgJzIwMCcsICctaW1hZScsICc8aW5maWxlLm1hZT4nLCAnLW9tYWUnLCAnPG91dGZpbGUubWFlPic=

>  <r_lp_tautomer_probability>  (158) 
1

>  <r_epik_Ionization_Penalty>  (158) 
5.61991e-06

>  <r_epik_Ionization_Penalty_Charging>  (158) 
0

>  <r_epik_Ionization_Penalty_Neutral>  (158) 
5.61991e-06

>  <r_epik_State_Penalty>  (158) 
-0

>  <r_epik_Charging_Adjusted_Penalty>  (158) 
0

>  <i_epik_Tot_Q>  (158) 
0

>  <i_epik_Tot_abs_Q>  (158) 
0

>  <s_epik_Chemistry_Notes>  (158) 
This compound has an ester and may undergo hydrolysis at high or low pH.

>  <s_lp_Force_Field>  (158) 
OPLS3e

>  <r_lp_Energy>  (158) 
42.0078

>  <b_lp_Chiralities_Consistent>  (158) 
1

>  <s_lp_Variant>  (158) 
49:0-1

>  <s_i_glide_gridfile>  (158) 
pfpi4k_grid

>  <i_i_glide_lignum>  (158) 
25

>  <i_i_glide_rotatable_bonds>  (158) 
1

>  <r_i_docking_score>  (158) 
-3.27755

>  <r_i_glide_ligand_efficiency>  (158) 
-0.182086

>  <r_i_glide_ligand_efficiency_sa>  (158) 
-0.477201

>  <r_i_glide_ligand_efficiency_ln>  (158) 
-0.842478

>  <r_i_glide_gscore>  (158) 
-3.27755

>  <r_i_glide_lipo>  (158) 
-0.669481

>  <r_i_glide_hbond>  (158) 
-0.00999046

>  <r_i_glide_metal>  (158) 
-0

>  <r_i_glide_rewards>  (158) 
-1.72976

>  <r_i_glide_evdw>  (158) 
-8.38345

>  <r_i_glide_ecoul>  (158) 
-2.73396

>  <r_i_glide_erotb>  (158) 
0

>  <r_i_glide_esite>  (158) 
-0.039052

>  <r_i_glide_emodel>  (158) 
-12.755

>  <r_i_glide_energy>  (158) 
-11.1174

>  <r_i_glide_einternal>  (158) 
0.299759

>  <r_i_glide_intrahb_reward>  (158) 
-0

>  <i_i_glide_confnum>  (158) 
2

>  <i_i_glide_posenum>  (158) 
11

>  <r_i_glide_eff_state_penalty>  (158) 
0

>  <ligand_id>  (158) 
49

>  <original_smiles>  (158) 
CC1C=C2C(=O)OC(C)C3C4(C)CC4=C(C1)C23O

>  <smiles>  (158) 
[H]OC12C3=C([H])C([H])(C([H])([H])[H])C([H])([H])C1=C1C([H])([H])C1(C([H])([H])[H])C2([H])C([H])(C([H])([H])[H])OC3=O

$$$$
49:1:0
     RDKit          3D

 36 39  0  0  1  0  0  0  0  0999 V2000
    2.8326   -1.2364   -3.8844 C   0  0  0  0  0  0  0  0  0  0  0  0
    3.5691   -2.5670   -3.6987 C   0  0  2  0  0  0  0  0  0  0  0  0
    2.7421   -3.4309   -2.7568 C   0  0  0  0  0  0  0  0  0  0  0  0
    2.9388   -3.4480   -1.4154 C   0  0  0  0  0  0  0  0  0  0  0  0
    2.2379   -4.3850   -0.4815 C   0  0  0  0  0  0  0  0  0  0  0  0
    1.2748   -5.0785   -0.7969 O   0  0  0  0  0  0  0  0  0  0  0  0
    2.7045   -4.5009    0.8096 O   0  0  0  0  0  0  0  0  0  0  0  0
    3.8285   -3.8207    1.3808 C   0  0  1  0  0  0  0  0  0  0  0  0
    4.4447   -4.7582    2.4266 C   0  0  0  0  0  0  0  0  0  0  0  0
    4.7839   -3.4369    0.2569 C   0  0  2  0  0  0  0  0  0  0  0  0
    6.1308   -2.7172    0.5440 C   0  0  2  0  0  0  0  0  0  0  0  0
    7.3265   -3.5988    0.8630 C   0  0  0  0  0  0  0  0  0  0  0  0
    6.3539   -1.2649    0.6805 C   0  0  0  0  0  0  0  0  0  0  0  0
    6.0296   -1.8699   -0.6699 C   0  0  0  0  0  0  0  0  0  0  0  0
    5.0179   -1.9638   -1.6682 C   0  0  0  0  0  0  0  0  0  0  0  0
    5.0089   -2.3111   -3.1553 C   0  0  0  0  0  0  0  0  0  0  0  0
    3.9704   -2.5839   -0.7563 C   0  0  1  0  0  0  0  0  0  0  0  0
    3.3294   -1.4803   -0.1319 O   0  0  0  0  0  0  0  0  0  0  0  0
    1.8792   -1.4842   -4.3402 H   0  0  0  0  0  0  0  0  0  0  0  0
    3.3306   -0.5794   -4.6204 H   0  0  0  0  0  0  0  0  0  0  0  0
    2.6072   -0.6923   -2.9776 H   0  0  0  0  0  0  0  0  0  0  0  0
    3.6076   -3.0900   -4.6638 H   0  0  0  0  0  0  0  0  0  0  0  0
    1.9962   -4.0815   -3.1958 H   0  0  0  0  0  0  0  0  0  0  0  0
    3.4854   -2.9082    1.8693 H   0  0  0  0  0  0  0  0  0  0  0  0
    5.2449   -4.2744    2.9860 H   0  0  0  0  0  0  0  0  0  0  0  0
    4.8388   -5.6732    1.9804 H   0  0  0  0  0  0  0  0  0  0  0  0
    3.6769   -5.0471    3.1409 H   0  0  0  0  0  0  0  0  0  0  0  0
    5.1307   -4.3461   -0.2472 H   0  0  0  0  0  0  0  0  0  0  0  0
    7.2775   -3.8935    1.9135 H   0  0  0  0  0  0  0  0  0  0  0  0
    8.2829   -3.0677    0.7519 H   0  0  0  0  0  0  0  0  0  0  0  0
    7.3432   -4.5160    0.2769 H   0  0  0  0  0  0  0  0  0  0  0  0
    5.5191   -0.5849    0.9209 H   0  0  0  0  0  0  0  0  0  0  0  0
    7.3483   -0.8778    0.7069 H   0  0  0  0  0  0  0  0  0  0  0  0
    5.6521   -3.1533   -3.4488 H   0  0  0  0  0  0  0  0  0  0  0  0
    5.3760   -1.4577   -3.7128 H   0  0  0  0  0  0  0  0  0  0  0  0
    2.4925   -1.3921   -0.5690 H   0  0  0  0  0  0  0  0  0  0  0  0
  1  2  1  0
  1 19  1  0
  1 20  1  0
  1 21  1  0
  2 16  1  0
  2  3  1  0
  2 22  1  6
  3  4  2  0
  3 23  1  0
  4 17  1  0
  4  5  1  0
  5  6  2  0
  5  7  1  0
  7  8  1  0
  8  9  1  0
  8 10  1  0
  8 24  1  1
  9 25  1  0
  9 26  1  0
  9 27  1  0
 10 17  1  0
 10 11  1  0
 10 28  1  6
 11 14  1  0
 11 12  1  6
 11 13  1  0
 12 29  1  0
 12 30  1  0
 12 31  1  0
 13 14  1  0
 13 32  1  0
 13 33  1  0
 14 15  2  0
 15 16  1  0
 15 17  1  0
 16 34  1  0
 16 35  1  0
 17 18  1  1
 18 36  1  0
M  END
>  <i_m_ct_stereo_status>  (159) 
1

>  <s_m_source_file>  (159) 
/var/tmp/pbs.5076255.sched01/tmp7dp07en1/447ppmqug5.sdf

>  <i_m_source_file_index>  (159) 
26

>  <i_lp_mmshare_version>  (159) 
48012

>  <i_f3d_flags>  (159) 
0

>  <s_epik_input>  (159) 
W0NIMl0xQzI9QzNbQ0gyXVtDQEhdKFtDSDNdKVtDSF09QyhDKD1PKU9bQ0BIXTRbQ0gzXSlbQ0BAXTMoW09IXSlbQ0BIXTRDMTJbQ0gzXQ==

>  <s_epik_cmdline>  (159) 
J2VwaWtfcHl0aG9uJywgJy1waHQnLCAnMi4wJywgJy1waCcsICc3LjAnLCAnLXRuJywgJzgnLCAnLW1hJywgJzIwMCcsICctaW1hZScsICc8aW5maWxlLm1hZT4nLCAnLW9tYWUnLCAnPG91dGZpbGUubWFlPic=

>  <r_lp_tautomer_probability>  (159) 
1

>  <r_epik_Ionization_Penalty>  (159) 
5.61991e-06

>  <r_epik_Ionization_Penalty_Charging>  (159) 
0

>  <r_epik_Ionization_Penalty_Neutral>  (159) 
5.61991e-06

>  <r_epik_State_Penalty>  (159) 
-0

>  <r_epik_Charging_Adjusted_Penalty>  (159) 
0

>  <i_epik_Tot_Q>  (159) 
0

>  <i_epik_Tot_abs_Q>  (159) 
0

>  <s_epik_Chemistry_Notes>  (159) 
This compound has an ester and may undergo hydrolysis at high or low pH.

>  <s_lp_Force_Field>  (159) 
OPLS3e

>  <r_lp_Energy>  (159) 
42.1435

>  <b_lp_Chiralities_Consistent>  (159) 
1

>  <s_lp_Variant>  (159) 
49:0-2

>  <s_i_glide_gridfile>  (159) 
pfpi4k_grid

>  <i_i_glide_lignum>  (159) 
26

>  <i_i_glide_rotatable_bonds>  (159) 
1

>  <r_i_docking_score>  (159) 
-3.68836

>  <r_i_glide_ligand_efficiency>  (159) 
-0.204909

>  <r_i_glide_ligand_efficiency_sa>  (159) 
-0.537013

>  <r_i_glide_ligand_efficiency_ln>  (159) 
-0.948073

>  <r_i_glide_gscore>  (159) 
-3.68836

>  <r_i_glide_lipo>  (159) 
-0.773469

>  <r_i_glide_hbond>  (159) 
-0.2418

>  <r_i_glide_metal>  (159) 
-0

>  <r_i_glide_rewards>  (159) 
-1.72976

>  <r_i_glide_evdw>  (159) 
-9.04741

>  <r_i_glide_ecoul>  (159) 
-6.348

>  <r_i_glide_erotb>  (159) 
0

>  <r_i_glide_esite>  (159) 
-0.0702047

>  <r_i_glide_emodel>  (159) 
-14.0408

>  <r_i_glide_energy>  (159) 
-15.3954

>  <r_i_glide_einternal>  (159) 
0.404221

>  <r_i_glide_intrahb_reward>  (159) 
-0

>  <i_i_glide_confnum>  (159) 
1

>  <i_i_glide_posenum>  (159) 
6

>  <r_i_glide_eff_state_penalty>  (159) 
0

>  <ligand_id>  (159) 
49

>  <original_smiles>  (159) 
CC1C=C2C(=O)OC(C)C3C4(C)CC4=C(C1)C23O

>  <smiles>  (159) 
[H]OC12C3=C([H])C([H])(C([H])([H])[H])C([H])([H])C1=C1C([H])([H])C1(C([H])([H])[H])C2([H])C([H])(C([H])([H])[H])OC3=O

$$$$
49:1:1
     RDKit          3D

 36 39  0  0  1  0  0  0  0  0999 V2000
    3.3397   -1.3447   -3.3218 C   0  0  0  0  0  0  0  0  0  0  0  0
    3.8159   -2.7989   -3.1983 C   0  0  2  0  0  0  0  0  0  0  0  0
    3.1826   -3.3398   -1.9554 C   0  0  0  0  0  0  0  0  0  0  0  0
    3.8471   -3.4696   -0.7805 C   0  0  0  0  0  0  0  0  0  0  0  0
    3.3161   -4.2388    0.3779 C   0  0  0  0  0  0  0  0  0  0  0  0
    2.2095   -4.7175    0.3919 O   0  0  0  0  0  0  0  0  0  0  0  0
    4.1425   -4.4042    1.4846 O   0  0  0  0  0  0  0  0  0  0  0  0
    5.4938   -3.9744    1.6303 C   0  0  1  0  0  0  0  0  0  0  0  0
    6.1853   -5.0305    2.4930 C   0  0  0  0  0  0  0  0  0  0  0  0
    6.1020   -3.8497    0.2483 C   0  0  2  0  0  0  0  0  0  0  0  0
    7.5686   -3.4441    0.0953 C   0  0  2  0  0  0  0  0  0  0  0  0
    8.5999   -4.5641    0.0941 C   0  0  0  0  0  0  0  0  0  0  0  0
    8.1360   -2.0992   -0.0333 C   0  0  0  0  0  0  0  0  0  0  0  0
    7.2128   -2.6359   -1.1034 C   0  0  0  0  0  0  0  0  0  0  0  0
    5.9497   -2.4790   -1.7876 C   0  0  0  0  0  0  0  0  0  0  0  0
    5.3770   -2.9740   -3.1325 C   0  0  0  0  0  0  0  0  0  0  0  0
    5.1881   -2.8531   -0.5533 C   0  0  1  0  0  0  0  0  0  0  0  0
    4.9777   -1.6308    0.1349 O   0  0  0  0  0  0  0  0  0  0  0  0
    2.2509   -1.3519   -3.3631 H   0  0  0  0  0  0  0  0  0  0  0  0
    3.7095   -0.8457   -4.2054 H   0  0  0  0  0  0  0  0  0  0  0  0
    3.6126   -0.7542   -2.4476 H   0  0  0  0  0  0  0  0  0  0  0  0
    3.4459   -3.3609   -4.0746 H   0  0  0  0  0  0  0  0  0  0  0  0
    2.2490   -3.8603   -2.0897 H   0  0  0  0  0  0  0  0  0  0  0  0
    5.5293   -2.9946    2.1137 H   0  0  0  0  0  0  0  0  0  0  0  0
    7.2139   -4.7543    2.6824 H   0  0  0  0  0  0  0  0  0  0  0  0
    6.2071   -6.0231    2.0381 H   0  0  0  0  0  0  0  0  0  0  0  0
    5.6714   -5.0969    3.4500 H   0  0  0  0  0  0  0  0  0  0  0  0
    6.0730   -4.8207   -0.2599 H   0  0  0  0  0  0  0  0  0  0  0  0
    8.8900   -4.7660    1.1287 H   0  0  0  0  0  0  0  0  0  0  0  0
    9.5010   -4.2582   -0.4520 H   0  0  0  0  0  0  0  0  0  0  0  0
    8.2136   -5.5165   -0.2628 H   0  0  0  0  0  0  0  0  0  0  0  0
    7.6041   -1.2352    0.3606 H   0  0  0  0  0  0  0  0  0  0  0  0
    9.1449   -1.9696   -0.4197 H   0  0  0  0  0  0  0  0  0  0  0  0
    5.7039   -3.9615   -3.5108 H   0  0  0  0  0  0  0  0  0  0  0  0
    5.7174   -2.3233   -3.9054 H   0  0  0  0  0  0  0  0  0  0  0  0
    4.2401   -1.2422   -0.3092 H   0  0  0  0  0  0  0  0  0  0  0  0
  1  2  1  0
  1 19  1  0
  1 20  1  0
  1 21  1  0
  2 16  1  0
  2  3  1  0
  2 22  1  6
  3  4  2  0
  3 23  1  0
  4 17  1  0
  4  5  1  0
  5  6  2  0
  5  7  1  0
  7  8  1  0
  8  9  1  0
  8 10  1  0
  8 24  1  1
  9 25  1  0
  9 26  1  0
  9 27  1  0
 10 17  1  0
 10 11  1  0
 10 28  1  6
 11 14  1  0
 11 12  1  6
 11 13  1  0
 12 29  1  0
 12 30  1  0
 12 31  1  0
 13 14  1  0
 13 32  1  0
 13 33  1  0
 14 15  2  0
 15 16  1  0
 15 17  1  0
 16 34  1  0
 16 35  1  0
 17 18  1  1
 18 36  1  0
M  END
>  <i_m_ct_stereo_status>  (160) 
1

>  <s_m_source_file>  (160) 
/var/tmp/pbs.5076255.sched01/tmp7dp07en1/447ppmqug5.sdf

>  <i_m_source_file_index>  (160) 
26

>  <i_lp_mmshare_version>  (160) 
48012

>  <i_f3d_flags>  (160) 
0

>  <s_epik_input>  (160) 
W0NIMl0xQzI9QzNbQ0gyXVtDQEhdKFtDSDNdKVtDSF09QyhDKD1PKU9bQ0BIXTRbQ0gzXSlbQ0BAXTMoW09IXSlbQ0BIXTRDMTJbQ0gzXQ==

>  <s_epik_cmdline>  (160) 
J2VwaWtfcHl0aG9uJywgJy1waHQnLCAnMi4wJywgJy1waCcsICc3LjAnLCAnLXRuJywgJzgnLCAnLW1hJywgJzIwMCcsICctaW1hZScsICc8aW5maWxlLm1hZT4nLCAnLW9tYWUnLCAnPG91dGZpbGUubWFlPic=

>  <r_lp_tautomer_probability>  (160) 
1

>  <r_epik_Ionization_Penalty>  (160) 
5.61991e-06

>  <r_epik_Ionization_Penalty_Charging>  (160) 
0

>  <r_epik_Ionization_Penalty_Neutral>  (160) 
5.61991e-06

>  <r_epik_State_Penalty>  (160) 
-0

>  <r_epik_Charging_Adjusted_Penalty>  (160) 
0

>  <i_epik_Tot_Q>  (160) 
0

>  <i_epik_Tot_abs_Q>  (160) 
0

>  <s_epik_Chemistry_Notes>  (160) 
This compound has an ester and may undergo hydrolysis at high or low pH.

>  <s_lp_Force_Field>  (160) 
OPLS3e

>  <r_lp_Energy>  (160) 
42.1435

>  <b_lp_Chiralities_Consistent>  (160) 
1

>  <s_lp_Variant>  (160) 
49:0-2

>  <s_i_glide_gridfile>  (160) 
pfpi4k_grid

>  <i_i_glide_lignum>  (160) 
26

>  <i_i_glide_rotatable_bonds>  (160) 
1

>  <r_i_docking_score>  (160) 
-2.98227

>  <r_i_glide_ligand_efficiency>  (160) 
-0.165682

>  <r_i_glide_ligand_efficiency_sa>  (160) 
-0.434209

>  <r_i_glide_ligand_efficiency_ln>  (160) 
-0.766578

>  <r_i_glide_gscore>  (160) 
-2.98227

>  <r_i_glide_lipo>  (160) 
-0.764794

>  <r_i_glide_hbond>  (160) 
-0.0151639

>  <r_i_glide_metal>  (160) 
-0

>  <r_i_glide_rewards>  (160) 
-1.72976

>  <r_i_glide_evdw>  (160) 
-19.511

>  <r_i_glide_ecoul>  (160) 
-1.39432

>  <r_i_glide_erotb>  (160) 
0

>  <r_i_glide_esite>  (160) 
-0.00844133

>  <r_i_glide_emodel>  (160) 
-18.3107

>  <r_i_glide_energy>  (160) 
-20.9053

>  <r_i_glide_einternal>  (160) 
0.152559

>  <r_i_glide_intrahb_reward>  (160) 
-0

>  <i_i_glide_confnum>  (160) 
2

>  <i_i_glide_posenum>  (160) 
40

>  <r_i_glide_eff_state_penalty>  (160) 
0

>  <ligand_id>  (160) 
49

>  <original_smiles>  (160) 
CC1C=C2C(=O)OC(C)C3C4(C)CC4=C(C1)C23O

>  <smiles>  (160) 
[H]OC12C3=C([H])C([H])(C([H])([H])[H])C([H])([H])C1=C1C([H])([H])C1(C([H])([H])[H])C2([H])C([H])(C([H])([H])[H])OC3=O

$$$$
49:1:2
     RDKit          3D

 36 39  0  0  1  0  0  0  0  0999 V2000
    5.3921   -1.4914    5.8539 C   0  0  0  0  0  0  0  0  0  0  0  0
    4.4808   -0.7654    4.8509 C   0  0  2  0  0  0  0  0  0  0  0  0
    3.3187   -1.6763    4.4722 C   0  0  0  0  0  0  0  0  0  0  0  0
    3.3414   -2.4770    3.3886 C   0  0  0  0  0  0  0  0  0  0  0  0
    2.2108   -3.3720    3.0057 C   0  0  0  0  0  0  0  0  0  0  0  0
    1.2603   -3.6175    3.7729 O   0  0  0  0  0  0  0  0  0  0  0  0
    2.2564   -3.9676    1.7462 O   0  0  0  0  0  0  0  0  0  0  0  0
    3.2838   -3.7949    0.7489 C   0  0  1  0  0  0  0  0  0  0  0  0
    2.6310   -3.8710   -0.6424 C   0  0  0  0  0  0  0  0  0  0  0  0
    4.0529   -2.4924    0.9944 C   0  0  2  0  0  0  0  0  0  0  0  0
    5.2054   -2.0361    0.0663 C   0  0  2  0  0  0  0  0  0  0  0  0
    4.8061   -1.2159   -1.1470 C   0  0  0  0  0  0  0  0  0  0  0  0
    6.6346   -2.3670    0.2105 C   0  0  0  0  0  0  0  0  0  0  0  0
    5.9372   -1.4739    1.2166 C   0  0  0  0  0  0  0  0  0  0  0  0
    5.5318   -1.3888    2.5948 C   0  0  0  0  0  0  0  0  0  0  0  0
    5.2781   -0.2583    3.6001 C   0  0  0  0  0  0  0  0  0  0  0  0
    4.5635   -2.5127    2.4852 C   0  0  1  0  0  0  0  0  0  0  0  0
    5.2618   -3.7108    2.8282 O   0  0  0  0  0  0  0  0  0  0  0  0
    4.8456   -1.8047    6.7486 H   0  0  0  0  0  0  0  0  0  0  0  0
    6.2224   -0.8549    6.1848 H   0  0  0  0  0  0  0  0  0  0  0  0
    5.8278   -2.3948    5.4175 H   0  0  0  0  0  0  0  0  0  0  0  0
    4.0439    0.0916    5.3734 H   0  0  0  0  0  0  0  0  0  0  0  0
    2.4616   -1.6974    5.1395 H   0  0  0  0  0  0  0  0  0  0  0  0
    3.9927   -4.6300    0.8213 H   0  0  0  0  0  0  0  0  0  0  0  0
    3.3603   -3.8518   -1.4466 H   0  0  0  0  0  0  0  0  0  0  0  0
    1.9229   -3.0426   -0.8110 H   0  0  0  0  0  0  0  0  0  0  0  0
    2.0650   -4.7966   -0.7314 H   0  0  0  0  0  0  0  0  0  0  0  0
    3.3134   -1.6852    0.9022 H   0  0  0  0  0  0  0  0  0  0  0  0
    4.4972   -1.8880   -1.9640 H   0  0  0  0  0  0  0  0  0  0  0  0
    5.6412   -0.6511   -1.5268 H   0  0  0  0  0  0  0  0  0  0  0  0
    3.9788   -0.5456   -0.9383 H   0  0  0  0  0  0  0  0  0  0  0  0
    6.9775   -3.2700    0.7133 H   0  0  0  0  0  0  0  0  0  0  0  0
    7.3557   -1.7875   -0.3436 H   0  0  0  0  0  0  0  0  0  0  0  0
    4.6969    0.5154    3.1445 H   0  0  0  0  0  0  0  0  0  0  0  0
    6.1977    0.2021    3.8935 H   0  0  0  0  0  0  0  0  0  0  0  0
    4.9428   -4.4322    2.2783 H   0  0  0  0  0  0  0  0  0  0  0  0
  1  2  1  0
  1 19  1  0
  1 20  1  0
  1 21  1  0
  2 16  1  0
  2  3  1  0
  2 22  1  1
  3  4  2  0
  3 23  1  0
  4 17  1  0
  4  5  1  0
  5  6  2  0
  5  7  1  0
  7  8  1  0
  8  9  1  0
  8 10  1  0
  8 24  1  6
  9 25  1  0
  9 26  1  0
  9 27  1  0
 10 17  1  0
 10 11  1  0
 10 28  1  1
 11 14  1  0
 11 12  1  6
 11 13  1  0
 12 29  1  0
 12 30  1  0
 12 31  1  0
 13 14  1  0
 13 32  1  0
 13 33  1  0
 14 15  2  0
 15 16  1  0
 15 17  1  0
 16 34  1  0
 16 35  1  0
 17 18  1  6
 18 36  1  0
M  END
>  <i_m_ct_stereo_status>  (161) 
1

>  <s_m_source_file>  (161) 
/var/tmp/pbs.5076255.sched01/tmp7dp07en1/447ppmqug5.sdf

>  <i_m_source_file_index>  (161) 
26

>  <i_lp_mmshare_version>  (161) 
48012

>  <i_f3d_flags>  (161) 
0

>  <s_epik_input>  (161) 
W0NIMl0xQzI9QzNbQ0gyXVtDQEhdKFtDSDNdKVtDSF09QyhDKD1PKU9bQ0BIXTRbQ0gzXSlbQ0BAXTMoW09IXSlbQ0BIXTRDMTJbQ0gzXQ==

>  <s_epik_cmdline>  (161) 
J2VwaWtfcHl0aG9uJywgJy1waHQnLCAnMi4wJywgJy1waCcsICc3LjAnLCAnLXRuJywgJzgnLCAnLW1hJywgJzIwMCcsICctaW1hZScsICc8aW5maWxlLm1hZT4nLCAnLW9tYWUnLCAnPG91dGZpbGUubWFlPic=

>  <r_lp_tautomer_probability>  (161) 
1

>  <r_epik_Ionization_Penalty>  (161) 
5.61991e-06

>  <r_epik_Ionization_Penalty_Charging>  (161) 
0

>  <r_epik_Ionization_Penalty_Neutral>  (161) 
5.61991e-06

>  <r_epik_State_Penalty>  (161) 
-0

>  <r_epik_Charging_Adjusted_Penalty>  (161) 
0

>  <i_epik_Tot_Q>  (161) 
0

>  <i_epik_Tot_abs_Q>  (161) 
0

>  <s_epik_Chemistry_Notes>  (161) 
This compound has an ester and may undergo hydrolysis at high or low pH.

>  <s_lp_Force_Field>  (161) 
OPLS3e

>  <r_lp_Energy>  (161) 
42.1435

>  <b_lp_Chiralities_Consistent>  (161) 
1

>  <s_lp_Variant>  (161) 
49:0-2

>  <s_i_glide_gridfile>  (161) 
pfpi4k_grid

>  <i_i_glide_lignum>  (161) 
26

>  <i_i_glide_rotatable_bonds>  (161) 
1

>  <r_i_docking_score>  (161) 
-2.44604

>  <r_i_glide_ligand_efficiency>  (161) 
-0.135891

>  <r_i_glide_ligand_efficiency_sa>  (161) 
-0.356136

>  <r_i_glide_ligand_efficiency_ln>  (161) 
-0.628742

>  <r_i_glide_gscore>  (161) 
-2.44604

>  <r_i_glide_lipo>  (161) 
-0.536459

>  <r_i_glide_hbond>  (161) 
0

>  <r_i_glide_metal>  (161) 
-0

>  <r_i_glide_rewards>  (161) 
-1.72976

>  <r_i_glide_evdw>  (161) 
-16.8341

>  <r_i_glide_ecoul>  (161) 
0.48223

>  <r_i_glide_erotb>  (161) 
0

>  <r_i_glide_esite>  (161) 
-0.000901295

>  <r_i_glide_emodel>  (161) 
-13.5309

>  <r_i_glide_energy>  (161) 
-16.3519

>  <r_i_glide_einternal>  (161) 
0.0757187

>  <r_i_glide_intrahb_reward>  (161) 
-0

>  <i_i_glide_confnum>  (161) 
1

>  <i_i_glide_posenum>  (161) 
3

>  <r_i_glide_eff_state_penalty>  (161) 
0

>  <ligand_id>  (161) 
49

>  <original_smiles>  (161) 
CC1C=C2C(=O)OC(C)C3C4(C)CC4=C(C1)C23O

>  <smiles>  (161) 
[H]OC12C3=C([H])C([H])(C([H])([H])[H])C([H])([H])C1=C1C([H])([H])C1(C([H])([H])[H])C2([H])C([H])(C([H])([H])[H])OC3=O

$$$$
50:1:0
     RDKit          3D

 74 81  0  0  1  0  0  0  0  0999 V2000
    4.7384    0.4056    3.3778 C   0  0  0  0  0  0  0  0  0  0  0  0
    4.1776    0.2902    4.6678 O   0  0  0  0  0  0  0  0  0  0  0  0
    3.8596    1.5028    5.3569 C   0  0  2  0  0  0  0  0  0  0  0  0
    3.7963    1.3383    6.9527 C   0  0  1  0  0  0  0  0  0  0  0  0
    3.5467    2.7681    7.3612 C   0  0  1  0  0  0  0  0  0  0  0  0
    4.5377    3.6549    6.8296 O   0  0  0  0  0  0  0  0  0  0  0  0
    4.7032    4.9249    7.4771 C   0  0  0  0  0  0  0  0  0  0  0  0
    2.0620    2.8530    6.8501 C   0  0  1  0  0  0  0  0  0  0  0  0
    1.2339    3.9598    7.1078 C   0  0  1  0  0  0  0  0  0  0  0  0
    1.6605    4.7879    8.1901 O   0  0  0  0  0  0  0  0  0  0  0  0
    1.6387    4.7044    5.7354 C   0  0  0  0  0  0  0  0  0  0  0  0
    2.4791    3.8400    4.5759 C   0  0  1  0  0  0  0  0  0  0  0  0
    3.7785    4.4001    4.3491 O   0  0  0  0  0  0  0  0  0  0  0  0
    2.5898    2.2340    4.7292 C   0  0  2  0  0  0  0  0  0  0  0  0
    1.4091    1.9060    5.5982 C   0  0  2  0  0  0  0  0  0  0  0  0
    0.1188    2.2480    4.5705 C   0  0  2  0  0  0  0  0  0  0  0  0
   -0.5436    3.5887    4.1262 C   0  0  2  0  0  0  0  0  0  0  0  0
   -1.6357    3.7530    5.0785 O   0  0  0  0  0  0  0  0  0  0  0  0
   -2.1825    2.6511    4.2887 C   0  0  1  0  0  0  0  0  0  0  0  0
   -1.6372    3.3793    3.0981 C   0  0  1  0  0  0  0  0  0  0  0  0
   -2.2888    4.5174    2.6031 O   0  0  0  0  0  0  0  0  0  0  0  0
   -1.2383    1.5028    4.7054 C   0  0  1  0  0  0  0  0  0  0  0  0
   -1.3826    0.5409    3.6637 O   0  0  0  0  0  0  0  0  0  0  0  0
   -1.4799    0.8746    6.1033 C   0  0  1  0  0  0  0  0  0  0  0  0
   -2.2990   -0.2794    5.9875 O   0  0  0  0  0  0  0  0  0  0  0  0
   -0.1871    0.4616    6.8388 C   0  0  2  0  0  0  0  0  0  0  0  0
    0.1213    1.3985    8.0295 C   0  0  1  0  0  0  0  0  0  0  0  0
   -0.9381    1.1750    8.9385 O   0  0  0  0  0  0  0  0  0  0  0  0
    1.4952    0.7666    8.7106 C   0  0  1  0  0  0  0  0  0  0  0  0
    1.1369   -0.3620    9.4929 O   0  0  0  0  0  0  0  0  0  0  0  0
    2.7462    0.3375    7.7123 C   0  0  1  0  0  0  0  0  0  0  0  0
    2.1374   -0.5212    6.6270 C   0  0  1  0  0  0  0  0  0  0  0  0
    1.5769   -1.7320    7.1493 O   0  0  0  0  0  0  0  0  0  0  0  0
    2.4893   -2.7849    7.4094 C   0  0  0  0  0  0  0  0  0  0  0  0
    1.0937    0.3695    5.9563 C   0  0  2  0  0  0  0  0  0  0  0  0
    0.9538   -0.4006    4.7904 O   0  0  0  0  0  0  0  0  0  0  0  0
   -0.0373    3.0457    7.6482 C   0  0  1  0  0  0  0  0  0  0  0  0
   -0.5951    3.6836    8.7804 O   0  0  0  0  0  0  0  0  0  0  0  0
    4.8848   -0.5732    2.9084 H   0  0  0  0  0  0  0  0  0  0  0  0
    5.7046    0.8967    3.4336 H   0  0  0  0  0  0  0  0  0  0  0  0
    4.0892    0.9342    2.6808 H   0  0  0  0  0  0  0  0  0  0  0  0
    4.7367    2.1077    5.1559 H   0  0  0  0  0  0  0  0  0  0  0  0
    4.7904    1.0190    7.2603 H   0  0  0  0  0  0  0  0  0  0  0  0
    3.7033    2.8200    8.4486 H   0  0  0  0  0  0  0  0  0  0  0  0
    5.5651    5.4289    6.9944 H   0  0  0  0  0  0  0  0  0  0  0  0
    4.9835    4.8025    8.5459 H   0  0  0  0  0  0  0  0  0  0  0  0
    3.8587    5.5834    7.3355 H   0  0  0  0  0  0  0  0  0  0  0  0
    1.9980    2.6586    7.8562 H   0  0  0  0  0  0  0  0  0  0  0  0
    2.5297    5.1037    8.0009 H   0  0  0  0  0  0  0  0  0  0  0  0
    0.7945    5.2874    5.3730 H   0  0  0  0  0  0  0  0  0  0  0  0
    2.3208    5.4894    5.9981 H   0  0  0  0  0  0  0  0  0  0  0  0
    1.9743    3.9889    3.6260 H   0  0  0  0  0  0  0  0  0  0  0  0
    4.0964    3.9773    3.5511 H   0  0  0  0  0  0  0  0  0  0  0  0
    2.4754    1.8382    3.7262 H   0  0  0  0  0  0  0  0  0  0  0  0
    0.4772    1.8468    3.6187 H   0  0  0  0  0  0  0  0  0  0  0  0
   -0.0237    4.4674    3.7979 H   0  0  0  0  0  0  0  0  0  0  0  0
   -3.2633    2.5544    4.3092 H   0  0  0  0  0  0  0  0  0  0  0  0
   -1.3311    2.7438    2.2807 H   0  0  0  0  0  0  0  0  0  0  0  0
   -1.8267    4.7406    1.7993 H   0  0  0  0  0  0  0  0  0  0  0  0
   -2.2823    0.5323    3.3696 H   0  0  0  0  0  0  0  0  0  0  0  0
   -2.0827    1.5692    6.6982 H   0  0  0  0  0  0  0  0  0  0  0  0
   -2.9744   -0.0504    5.3687 H   0  0  0  0  0  0  0  0  0  0  0  0
   -0.3935   -0.5455    7.2539 H   0  0  0  0  0  0  0  0  0  0  0  0
   -0.6717    1.5544    9.7619 H   0  0  0  0  0  0  0  0  0  0  0  0
    1.8791    1.4469    9.4811 H   0  0  0  0  0  0  0  0  0  0  0  0
    1.8797   -0.6195   10.0132 H   0  0  0  0  0  0  0  0  0  0  0  0
    3.4031   -0.2726    8.3403 H   0  0  0  0  0  0  0  0  0  0  0  0
    2.8865   -0.8924    5.9448 H   0  0  0  0  0  0  0  0  0  0  0  0
    2.0017   -3.5720    7.9914 H   0  0  0  0  0  0  0  0  0  0  0  0
    3.3584   -2.4652    7.9898 H   0  0  0  0  0  0  0  0  0  0  0  0
    2.8497   -3.2170    6.4837 H   0  0  0  0  0  0  0  0  0  0  0  0
    1.7181   -0.2498    4.2609 H   0  0  0  0  0  0  0  0  0  0  0  0
   -0.8238    3.1791    6.9653 H   0  0  0  0  0  0  0  0  0  0  0  0
   -1.4471    3.2997    8.9103 H   0  0  0  0  0  0  0  0  0  0  0  0
  1  2  1  0
  1 39  1  0
  1 40  1  0
  1 41  1  0
  2  3  1  0
  3 14  1  0
  3  4  1  0
  3 42  1  1
  4 31  1  0
  4  5  1  0
  4 43  1  1
  5  6  1  0
  5  8  1  0
  5 44  1  1
  6  7  1  0
  7 45  1  0
  7 46  1  0
  7 47  1  0
  8 15  1  0
  8  9  1  0
  8 48  1  1
  9 37  1  0
  9 10  1  1
  9 11  1  0
 10 49  1  0
 11 12  1  0
 11 50  1  0
 11 51  1  0
 12 13  1  0
 12 14  1  0
 12 52  1  6
 13 53  1  0
 14 15  1  0
 14 54  1  6
 15 35  1  1
 15 16  1  0
 16 22  1  0
 16 17  1  0
 16 55  1  6
 17 20  1  0
 17 18  1  0
 17 56  1  6
 18 19  1  0
 19 20  1  0
 19 22  1  0
 19 57  1  6
 20 21  1  0
 20 58  1  6
 21 59  1  0
 22 23  1  6
 22 24  1  0
 23 60  1  0
 24 25  1  0
 24 26  1  0
 24 61  1  1
 25 62  1  0
 26 35  1  0
 26 27  1  0
 26 63  1  1
 27 28  1  1
 27 29  1  0
 27 37  1  0
 28 64  1  0
 29 30  1  0
 29 31  1  0
 29 65  1  1
 30 66  1  0
 31 32  1  0
 31 67  1  1
 32 33  1  0
 32 35  1  0
 32 68  1  6
 33 34  1  0
 34 69  1  0
 34 70  1  0
 34 71  1  0
 35 36  1  6
 36 72  1  0
 37 38  1  0
 37 73  1  6
 38 74  1  0
M  END
>  <i_m_ct_stereo_status>  (162) 
1

>  <s_m_source_file>  (162) 
/var/tmp/pbs.5076255.sched01/tmp7dp07en1/447ppmqug5.sdf

>  <i_m_source_file_index>  (162) 
28

>  <i_lp_mmshare_version>  (162) 
48012

>  <i_f3d_flags>  (162) 
0

>  <s_epik_input>  (162) 
W0NAQF0xMjNbQ0hdNEM1KFtPSF0pW0NIMl1bQ0BASF0oW09IXSlbQ0BIXTFbQ0BIXShPW0NIM10pW0NAQEhdKFtDQEhdNE9bQ0gzXSlbQ0BIXTZbQ0BIXShbT0hdKVtDQEBdKFtPSF0pKFtDQEhdNVtPSF0pW0NASF0oW0NAXTMoW09IXSlbQ0BASF02T1tDSDNdKVtDQEhdKFtPSF0pW0NAXTcoW09IXSlbQ0BIXTJbQ0BASF04T1tDQEhdN1tDQEhdOFtPSF0=

>  <s_epik_cmdline>  (162) 
J2VwaWtfcHl0aG9uJywgJy1waHQnLCAnMi4wJywgJy1waCcsICc3LjAnLCAnLXRuJywgJzgnLCAnLW1hJywgJzIwMCcsICctaW1hZScsICc8aW5maWxlLm1hZT4nLCAnLW9tYWUnLCAnPG91dGZpbGUubWFlPic=

>  <r_lp_tautomer_probability>  (162) 
1

>  <r_epik_Ionization_Penalty>  (162) 
9.31044e-07

>  <r_epik_Ionization_Penalty_Charging>  (162) 
0

>  <r_epik_Ionization_Penalty_Neutral>  (162) 
9.31044e-07

>  <r_epik_State_Penalty>  (162) 
-0

>  <r_epik_Charging_Adjusted_Penalty>  (162) 
0

>  <i_epik_Tot_Q>  (162) 
0

>  <i_epik_Tot_abs_Q>  (162) 
0

>  <s_lp_Force_Field>  (162) 
OPLS3e

>  <r_lp_Energy>  (162) 
354.747

>  <b_lp_Chiralities_Consistent>  (162) 
1

>  <s_lp_Variant>  (162) 
50:0-2

>  <s_i_glide_gridfile>  (162) 
pfpi4k_grid

>  <i_i_glide_lignum>  (162) 
28

>  <i_i_glide_rotatable_bonds>  (162) 
12

>  <r_i_docking_score>  (162) 
-2.7362

>  <r_i_glide_ligand_efficiency>  (162) 
-0.0720053

>  <r_i_glide_ligand_efficiency_sa>  (162) 
-0.24208

>  <r_i_glide_ligand_efficiency_ln>  (162) 
-0.590006

>  <r_i_glide_gscore>  (162) 
-2.7362

>  <r_i_glide_lipo>  (162) 
-0.0137023

>  <r_i_glide_hbond>  (162) 
0

>  <r_i_glide_metal>  (162) 
-0

>  <r_i_glide_rewards>  (162) 
0

>  <r_i_glide_evdw>  (162) 
-13.6151

>  <r_i_glide_ecoul>  (162) 
-13.6116

>  <r_i_glide_erotb>  (162) 
0

>  <r_i_glide_esite>  (162) 
0

>  <r_i_glide_emodel>  (162) 
-29.87

>  <r_i_glide_energy>  (162) 
-27.2267

>  <r_i_glide_einternal>  (162) 
5.71171

>  <r_i_glide_intrahb_reward>  (162) 
-0

>  <i_i_glide_confnum>  (162) 
2

>  <i_i_glide_posenum>  (162) 
20

>  <r_i_glide_eff_state_penalty>  (162) 
0

>  <ligand_id>  (162) 
50

>  <original_smiles>  (162) 
COC1C2C(OC)C3C4(O)CC(O)C1C31C3C5OC(C5O)C3(O)C(O)C3C(O)(C(O)C2C(OC)C31O)C4O

>  <smiles>  (162) 
[H]OC1([H])C2([H])OC1([H])C1(O[H])C([H])(O[H])C3([H])C4(O[H])C([H])(O[H])C5([H])C([H])(OC([H])([H])[H])C3(O[H])C3(C6([H])C([H])(O[H])C([H])([H])C(O[H])(C4([H])O[H])C3([H])C([H])(OC([H])([H])[H])C5([H])C6([H])OC([H])([H])[H])C21[H]

$$$$
50:1:1
     RDKit          3D

 74 81  0  0  1  0  0  0  0  0999 V2000
    5.6800    0.2505    5.0372 C   0  0  0  0  0  0  0  0  0  0  0  0
    4.4260    0.8623    4.7619 O   0  0  0  0  0  0  0  0  0  0  0  0
    4.0497    1.9341    5.6299 C   0  0  2  0  0  0  0  0  0  0  0  0
    3.8974    1.5721    7.1914 C   0  0  1  0  0  0  0  0  0  0  0  0
    3.5581    2.9326    7.7424 C   0  0  1  0  0  0  0  0  0  0  0  0
    4.5263    3.9208    7.3826 O   0  0  0  0  0  0  0  0  0  0  0  0
    4.5868    5.1036    8.1753 C   0  0  0  0  0  0  0  0  0  0  0  0
    2.1027    3.0219    7.1511 C   0  0  1  0  0  0  0  0  0  0  0  0
    1.2112    4.0620    7.5016 C   0  0  1  0  0  0  0  0  0  0  0  0
    1.5449    4.8050    8.6783 O   0  0  0  0  0  0  0  0  0  0  0  0
    1.6775    4.9564    6.2478 C   0  0  0  0  0  0  0  0  0  0  0  0
    2.6066    4.2962    5.0442 C   0  0  1  0  0  0  0  0  0  0  0  0
    3.8360    4.9709    4.8973 O   0  0  0  0  0  0  0  0  0  0  0  0
    2.7998    2.6898    5.0034 C   0  0  2  0  0  0  0  0  0  0  0  0
    1.5670    2.2165    5.7449 C   0  0  2  0  0  0  0  0  0  0  0  0
    0.3107    2.6243    4.6959 C   0  0  2  0  0  0  0  0  0  0  0  0
   -0.4007    3.9919    4.3972 C   0  0  2  0  0  0  0  0  0  0  0  0
   -1.5515    3.9783    5.2769 O   0  0  0  0  0  0  0  0  0  0  0  0
   -1.9995    2.9510    4.3575 C   0  0  1  0  0  0  0  0  0  0  0  0
   -1.4200    3.8281    3.2702 C   0  0  1  0  0  0  0  0  0  0  0  0
   -2.1336    4.9400    2.8167 O   0  0  0  0  0  0  0  0  0  0  0  0
   -1.0225    1.8015    4.6693 C   0  0  1  0  0  0  0  0  0  0  0  0
   -1.1141    0.9457    3.5254 O   0  0  0  0  0  0  0  0  0  0  0  0
   -1.3306    1.0036    5.9533 C   0  0  1  0  0  0  0  0  0  0  0  0
   -2.1812   -0.1031    5.6918 O   0  0  0  0  0  0  0  0  0  0  0  0
   -0.0503    0.5625    6.7115 C   0  0  2  0  0  0  0  0  0  0  0  0
    0.1626    1.3568    8.0386 C   0  0  1  0  0  0  0  0  0  0  0  0
   -0.9331    0.9479    8.8426 O   0  0  0  0  0  0  0  0  0  0  0  0
    1.5224    0.6919    8.7125 C   0  0  1  0  0  0  0  0  0  0  0  0
    1.1880   -0.5371    9.3366 O   0  0  0  0  0  0  0  0  0  0  0  0
    2.8441    0.4376    7.7477 C   0  0  1  0  0  0  0  0  0  0  0  0
    2.3380   -0.2940    6.5304 C   0  0  1  0  0  0  0  0  0  0  0  0
    1.8078   -1.5795    6.8670 O   0  0  0  0  0  0  0  0  0  0  0  0
    2.7578   -2.6203    7.0508 C   0  0  0  0  0  0  0  0  0  0  0  0
    1.2844    0.6414    5.8943 C   0  0  2  0  0  0  0  0  0  0  0  0
    1.2509    0.0325    4.6167 O   0  0  0  0  0  0  0  0  0  0  0  0
   -0.0469    3.0408    7.8663 C   0  0  1  0  0  0  0  0  0  0  0  0
   -0.7639    3.5470    8.9897 O   0  0  0  0  0  0  0  0  0  0  0  0
    5.8823   -0.4925    4.2653 H   0  0  0  0  0  0  0  0  0  0  0  0
    5.6784   -0.2670    5.9973 H   0  0  0  0  0  0  0  0  0  0  0  0
    6.4959    0.9735    5.0250 H   0  0  0  0  0  0  0  0  0  0  0  0
    4.9033    2.5993    5.5162 H   0  0  0  0  0  0  0  0  0  0  0  0
    4.8819    1.2749    7.5637 H   0  0  0  0  0  0  0  0  0  0  0  0
    3.6524    2.8578    8.8391 H   0  0  0  0  0  0  0  0  0  0  0  0
    5.4225    5.7017    7.8164 H   0  0  0  0  0  0  0  0  0  0  0  0
    4.7967    4.8717    9.2212 H   0  0  0  0  0  0  0  0  0  0  0  0
    3.7026    5.7233    8.0610 H   0  0  0  0  0  0  0  0  0  0  0  0
    1.9865    2.6900    8.1189 H   0  0  0  0  0  0  0  0  0  0  0  0
    1.4804    4.2311    9.4225 H   0  0  0  0  0  0  0  0  0  0  0  0
    0.8473    5.5731    5.9160 H   0  0  0  0  0  0  0  0  0  0  0  0
    2.3120    5.7321    6.6607 H   0  0  0  0  0  0  0  0  0  0  0  0
    2.1373    4.5445    4.0920 H   0  0  0  0  0  0  0  0  0  0  0  0
    4.1710    4.7829    4.0380 H   0  0  0  0  0  0  0  0  0  0  0  0
    2.8243    2.3983    3.9503 H   0  0  0  0  0  0  0  0  0  0  0  0
    0.7594    2.3876    3.7280 H   0  0  0  0  0  0  0  0  0  0  0  0
    0.0982    4.9382    4.2215 H   0  0  0  0  0  0  0  0  0  0  0  0
   -3.0737    2.7719    4.3041 H   0  0  0  0  0  0  0  0  0  0  0  0
   -1.0142    3.2830    2.4206 H   0  0  0  0  0  0  0  0  0  0  0  0
   -1.6648    5.2331    2.0352 H   0  0  0  0  0  0  0  0  0  0  0  0
   -0.9436    1.4641    2.7553 H   0  0  0  0  0  0  0  0  0  0  0  0
   -1.9677    1.6142    6.5904 H   0  0  0  0  0  0  0  0  0  0  0  0
   -2.6613    0.1103    4.9014 H   0  0  0  0  0  0  0  0  0  0  0  0
   -0.2226   -0.4815    6.9757 H   0  0  0  0  0  0  0  0  0  0  0  0
   -0.8466    1.3697    9.6859 H   0  0  0  0  0  0  0  0  0  0  0  0
    1.8336    1.2871    9.5775 H   0  0  0  0  0  0  0  0  0  0  0  0
    1.9179   -0.8287    9.8613 H   0  0  0  0  0  0  0  0  0  0  0  0
    3.4896   -0.2302    8.3231 H   0  0  0  0  0  0  0  0  0  0  0  0
    3.1384   -0.5448    5.8492 H   0  0  0  0  0  0  0  0  0  0  0  0
    2.2707   -3.4880    7.4977 H   0  0  0  0  0  0  0  0  0  0  0  0
    3.5740   -2.3341    7.7131 H   0  0  0  0  0  0  0  0  0  0  0  0
    3.1838   -2.9252    6.0948 H   0  0  0  0  0  0  0  0  0  0  0  0
    2.0664    0.2377    4.1849 H   0  0  0  0  0  0  0  0  0  0  0  0
   -0.7896    3.2043    7.1298 H   0  0  0  0  0  0  0  0  0  0  0  0
   -0.2419    3.4717    9.7691 H   0  0  0  0  0  0  0  0  0  0  0  0
  1  2  1  0
  1 39  1  0
  1 40  1  0
  1 41  1  0
  2  3  1  0
  3 14  1  0
  3  4  1  0
  3 42  1  1
  4 31  1  0
  4  5  1  0
  4 43  1  1
  5  6  1  0
  5  8  1  0
  5 44  1  1
  6  7  1  0
  7 45  1  0
  7 46  1  0
  7 47  1  0
  8 15  1  0
  8  9  1  0
  8 48  1  1
  9 37  1  0
  9 10  1  1
  9 11  1  0
 10 49  1  0
 11 12  1  0
 11 50  1  0
 11 51  1  0
 12 13  1  0
 12 14  1  0
 12 52  1  6
 13 53  1  0
 14 15  1  0
 14 54  1  6
 15 35  1  1
 15 16  1  0
 16 22  1  0
 16 17  1  0
 16 55  1  6
 17 20  1  0
 17 18  1  0
 17 56  1  6
 18 19  1  0
 19 20  1  0
 19 22  1  0
 19 57  1  6
 20 21  1  0
 20 58  1  6
 21 59  1  0
 22 23  1  6
 22 24  1  0
 23 60  1  0
 24 25  1  0
 24 26  1  0
 24 61  1  1
 25 62  1  0
 26 35  1  0
 26 27  1  0
 26 63  1  1
 27 28  1  1
 27 29  1  0
 27 37  1  0
 28 64  1  0
 29 30  1  0
 29 31  1  0
 29 65  1  1
 30 66  1  0
 31 32  1  0
 31 67  1  1
 32 33  1  0
 32 35  1  0
 32 68  1  6
 33 34  1  0
 34 69  1  0
 34 70  1  0
 34 71  1  0
 35 36  1  6
 36 72  1  0
 37 38  1  0
 37 73  1  6
 38 74  1  0
M  END
>  <i_m_ct_stereo_status>  (163) 
1

>  <s_m_source_file>  (163) 
/var/tmp/pbs.5076255.sched01/tmp7dp07en1/447ppmqug5.sdf

>  <i_m_source_file_index>  (163) 
28

>  <i_lp_mmshare_version>  (163) 
48012

>  <i_f3d_flags>  (163) 
0

>  <s_epik_input>  (163) 
W0NAQF0xMjNbQ0hdNEM1KFtPSF0pW0NIMl1bQ0BASF0oW09IXSlbQ0BIXTFbQ0BIXShPW0NIM10pW0NAQEhdKFtDQEhdNE9bQ0gzXSlbQ0BIXTZbQ0BIXShbT0hdKVtDQEBdKFtPSF0pKFtDQEhdNVtPSF0pW0NASF0oW0NAXTMoW09IXSlbQ0BASF02T1tDSDNdKVtDQEhdKFtPSF0pW0NAXTcoW09IXSlbQ0BIXTJbQ0BASF04T1tDQEhdN1tDQEhdOFtPSF0=

>  <s_epik_cmdline>  (163) 
J2VwaWtfcHl0aG9uJywgJy1waHQnLCAnMi4wJywgJy1waCcsICc3LjAnLCAnLXRuJywgJzgnLCAnLW1hJywgJzIwMCcsICctaW1hZScsICc8aW5maWxlLm1hZT4nLCAnLW9tYWUnLCAnPG91dGZpbGUubWFlPic=

>  <r_lp_tautomer_probability>  (163) 
1

>  <r_epik_Ionization_Penalty>  (163) 
9.31044e-07

>  <r_epik_Ionization_Penalty_Charging>  (163) 
0

>  <r_epik_Ionization_Penalty_Neutral>  (163) 
9.31044e-07

>  <r_epik_State_Penalty>  (163) 
-0

>  <r_epik_Charging_Adjusted_Penalty>  (163) 
0

>  <i_epik_Tot_Q>  (163) 
0

>  <i_epik_Tot_abs_Q>  (163) 
0

>  <s_lp_Force_Field>  (163) 
OPLS3e

>  <r_lp_Energy>  (163) 
354.747

>  <b_lp_Chiralities_Consistent>  (163) 
1

>  <s_lp_Variant>  (163) 
50:0-2

>  <s_i_glide_gridfile>  (163) 
pfpi4k_grid

>  <i_i_glide_lignum>  (163) 
28

>  <i_i_glide_rotatable_bonds>  (163) 
12

>  <r_i_docking_score>  (163) 
-2.66914

>  <r_i_glide_ligand_efficiency>  (163) 
-0.0702406

>  <r_i_glide_ligand_efficiency_sa>  (163) 
-0.236147

>  <r_i_glide_ligand_efficiency_ln>  (163) 
-0.575546

>  <r_i_glide_gscore>  (163) 
-2.66914

>  <r_i_glide_lipo>  (163) 
-0.0926789

>  <r_i_glide_hbond>  (163) 
0

>  <r_i_glide_metal>  (163) 
-0

>  <r_i_glide_rewards>  (163) 
0

>  <r_i_glide_evdw>  (163) 
-16.8918

>  <r_i_glide_ecoul>  (163) 
-11.5459

>  <r_i_glide_erotb>  (163) 
0

>  <r_i_glide_esite>  (163) 
0

>  <r_i_glide_emodel>  (163) 
-32.1158

>  <r_i_glide_energy>  (163) 
-28.4376

>  <r_i_glide_einternal>  (163) 
3.48772

>  <r_i_glide_intrahb_reward>  (163) 
-0

>  <i_i_glide_confnum>  (163) 
1

>  <i_i_glide_posenum>  (163) 
15

>  <r_i_glide_eff_state_penalty>  (163) 
0

>  <ligand_id>  (163) 
50

>  <original_smiles>  (163) 
COC1C2C(OC)C3C4(O)CC(O)C1C31C3C5OC(C5O)C3(O)C(O)C3C(O)(C(O)C2C(OC)C31O)C4O

>  <smiles>  (163) 
[H]OC1([H])C2([H])OC1([H])C1(O[H])C([H])(O[H])C3([H])C4(O[H])C([H])(O[H])C5([H])C([H])(OC([H])([H])[H])C3(O[H])C3(C6([H])C([H])(O[H])C([H])([H])C(O[H])(C4([H])O[H])C3([H])C([H])(OC([H])([H])[H])C5([H])C6([H])OC([H])([H])[H])C21[H]

$$$$
50:1:2
     RDKit          3D

 74 81  0  0  1  0  0  0  0  0999 V2000
    5.6241    0.3036    4.8473 C   0  0  0  0  0  0  0  0  0  0  0  0
    4.3989    0.9527    4.5258 O   0  0  0  0  0  0  0  0  0  0  0  0
    4.0038    2.0199    5.3921 C   0  0  2  0  0  0  0  0  0  0  0  0
    3.8581    1.6616    6.9536 C   0  0  1  0  0  0  0  0  0  0  0  0
    3.4889    3.0200    7.5016 C   0  0  1  0  0  0  0  0  0  0  0  0
    4.4355    4.0196    7.1270 O   0  0  0  0  0  0  0  0  0  0  0  0
    4.4972    5.2040    7.9329 C   0  0  0  0  0  0  0  0  0  0  0  0
    2.0356    3.0805    6.9065 C   0  0  1  0  0  0  0  0  0  0  0  0
    1.1143    4.0903    7.2392 C   0  0  1  0  0  0  0  0  0  0  0  0
    1.4035    4.8390    8.4284 O   0  0  0  0  0  0  0  0  0  0  0  0
    1.5703    5.0026    5.9933 C   0  0  0  0  0  0  0  0  0  0  0  0
    2.5131    4.3483    4.7906 C   0  0  1  0  0  0  0  0  0  0  0  0
    3.7346    5.0471    4.6564 O   0  0  0  0  0  0  0  0  0  0  0  0
    2.7431    2.7535    4.7593 C   0  0  2  0  0  0  0  0  0  0  0  0
    1.5190    2.2596    5.5005 C   0  0  2  0  0  0  0  0  0  0  0  0
    0.2557    2.6379    4.4497 C   0  0  2  0  0  0  0  0  0  0  0  0
   -0.4790    3.9866    4.1464 C   0  0  2  0  0  0  0  0  0  0  0  0
   -1.6377    3.9682    5.0333 O   0  0  0  0  0  0  0  0  0  0  0  0
   -2.0685    2.9338    4.1073 C   0  0  1  0  0  0  0  0  0  0  0  0
   -1.5036    3.8301    3.0310 C   0  0  1  0  0  0  0  0  0  0  0  0
   -2.2035    4.9731    2.5976 O   0  0  0  0  0  0  0  0  0  0  0  0
   -1.0640    1.8004    4.4282 C   0  0  1  0  0  0  0  0  0  0  0  0
   -1.1321    0.9442    3.2834 O   0  0  0  0  0  0  0  0  0  0  0  0
   -1.3431    0.9842    5.7124 C   0  0  1  0  0  0  0  0  0  0  0  0
   -2.0905   -0.1702    5.4322 O   0  0  0  0  0  0  0  0  0  0  0  0
   -0.0553    0.5775    6.4674 C   0  0  2  0  0  0  0  0  0  0  0  0
    0.1364    1.3645    7.7854 C   0  0  1  0  0  0  0  0  0  0  0  0
   -0.9387    0.9462    8.6134 O   0  0  0  0  0  0  0  0  0  0  0  0
    1.5068    0.7368    8.4712 C   0  0  1  0  0  0  0  0  0  0  0  0
    1.1994   -0.4998    9.0952 O   0  0  0  0  0  0  0  0  0  0  0  0
    2.8290    0.5080    7.5102 C   0  0  1  0  0  0  0  0  0  0  0  0
    2.3326   -0.2365    6.2937 C   0  0  1  0  0  0  0  0  0  0  0  0
    1.8298   -1.5338    6.6341 O   0  0  0  0  0  0  0  0  0  0  0  0
    2.8068   -2.5523    6.8115 C   0  0  0  0  0  0  0  0  0  0  0  0
    1.2712    0.6788    5.6550 C   0  0  2  0  0  0  0  0  0  0  0  0
    1.2444    0.0630    4.3816 O   0  0  0  0  0  0  0  0  0  0  0  0
   -0.1067    3.0376    7.5953 C   0  0  1  0  0  0  0  0  0  0  0  0
   -0.7774    3.5059    8.7510 O   0  0  0  0  0  0  0  0  0  0  0  0
    5.8534   -0.4272    4.0696 H   0  0  0  0  0  0  0  0  0  0  0  0
    5.5612   -0.2384    5.7927 H   0  0  0  0  0  0  0  0  0  0  0  0
    6.4560    1.0081    4.8996 H   0  0  0  0  0  0  0  0  0  0  0  0
    4.8504    2.6916    5.2843 H   0  0  0  0  0  0  0  0  0  0  0  0
    4.8469    1.3908    7.3261 H   0  0  0  0  0  0  0  0  0  0  0  0
    3.5872    2.9492    8.5939 H   0  0  0  0  0  0  0  0  0  0  0  0
    5.3312    5.8116    7.5707 H   0  0  0  0  0  0  0  0  0  0  0  0
    4.7249    4.9702    8.9775 H   0  0  0  0  0  0  0  0  0  0  0  0
    3.6239    5.8170    7.8534 H   0  0  0  0  0  0  0  0  0  0  0  0
    1.9269    2.7480    7.8733 H   0  0  0  0  0  0  0  0  0  0  0  0
    2.2558    5.2226    8.3432 H   0  0  0  0  0  0  0  0  0  0  0  0
    0.7313    5.5956    5.6624 H   0  0  0  0  0  0  0  0  0  0  0  0
    2.1709    5.8017    6.3846 H   0  0  0  0  0  0  0  0  0  0  0  0
    2.0456    4.5880    3.8404 H   0  0  0  0  0  0  0  0  0  0  0  0
    4.0990    4.8249    3.8132 H   0  0  0  0  0  0  0  0  0  0  0  0
    2.7704    2.4572    3.7097 H   0  0  0  0  0  0  0  0  0  0  0  0
    0.7029    2.4057    3.4785 H   0  0  0  0  0  0  0  0  0  0  0  0
   -0.0008    4.9362    3.9664 H   0  0  0  0  0  0  0  0  0  0  0  0
   -3.1365    2.7282    4.0709 H   0  0  0  0  0  0  0  0  0  0  0  0
   -1.1515    3.2751    2.1691 H   0  0  0  0  0  0  0  0  0  0  0  0
   -1.7933    5.2160    1.7724 H   0  0  0  0  0  0  0  0  0  0  0  0
   -0.9912    1.4557    2.5072 H   0  0  0  0  0  0  0  0  0  0  0  0
   -2.0088    1.5667    6.3504 H   0  0  0  0  0  0  0  0  0  0  0  0
   -2.6590    0.0597    4.6934 H   0  0  0  0  0  0  0  0  0  0  0  0
   -0.2111   -0.4709    6.7492 H   0  0  0  0  0  0  0  0  0  0  0  0
   -0.8656    1.4431    9.4081 H   0  0  0  0  0  0  0  0  0  0  0  0
    1.8001    1.3441    9.3374 H   0  0  0  0  0  0  0  0  0  0  0  0
    1.9364   -0.7723    9.6187 H   0  0  0  0  0  0  0  0  0  0  0  0
    3.4900   -0.1434    8.0863 H   0  0  0  0  0  0  0  0  0  0  0  0
    3.1383   -0.4772    5.6110 H   0  0  0  0  0  0  0  0  0  0  0  0
    2.3371   -3.4300    7.2593 H   0  0  0  0  0  0  0  0  0  0  0  0
    3.6194   -2.2456    7.4747 H   0  0  0  0  0  0  0  0  0  0  0  0
    3.2390   -2.8486    5.8528 H   0  0  0  0  0  0  0  0  0  0  0  0
    2.0532    0.2822    3.9471 H   0  0  0  0  0  0  0  0  0  0  0  0
   -0.8799    3.2036    6.8859 H   0  0  0  0  0  0  0  0  0  0  0  0
   -0.8887    4.4397    8.6362 H   0  0  0  0  0  0  0  0  0  0  0  0
  1  2  1  0
  1 39  1  0
  1 40  1  0
  1 41  1  0
  2  3  1  0
  3 14  1  0
  3  4  1  0
  3 42  1  1
  4 31  1  0
  4  5  1  0
  4 43  1  1
  5  6  1  0
  5  8  1  0
  5 44  1  1
  6  7  1  0
  7 45  1  0
  7 46  1  0
  7 47  1  0
  8 15  1  0
  8  9  1  0
  8 48  1  1
  9 37  1  0
  9 10  1  1
  9 11  1  0
 10 49  1  0
 11 12  1  0
 11 50  1  0
 11 51  1  0
 12 13  1  0
 12 14  1  0
 12 52  1  6
 13 53  1  0
 14 15  1  0
 14 54  1  6
 15 35  1  1
 15 16  1  0
 16 22  1  0
 16 17  1  0
 16 55  1  6
 17 20  1  0
 17 18  1  0
 17 56  1  6
 18 19  1  0
 19 20  1  0
 19 22  1  0
 19 57  1  6
 20 21  1  0
 20 58  1  6
 21 59  1  0
 22 23  1  6
 22 24  1  0
 23 60  1  0
 24 25  1  0
 24 26  1  0
 24 61  1  1
 25 62  1  0
 26 35  1  0
 26 27  1  0
 26 63  1  1
 27 28  1  1
 27 29  1  0
 27 37  1  0
 28 64  1  0
 29 30  1  0
 29 31  1  0
 29 65  1  1
 30 66  1  0
 31 32  1  0
 31 67  1  1
 32 33  1  0
 32 35  1  0
 32 68  1  6
 33 34  1  0
 34 69  1  0
 34 70  1  0
 34 71  1  0
 35 36  1  6
 36 72  1  0
 37 38  1  0
 37 73  1  6
 38 74  1  0
M  END
>  <i_m_ct_stereo_status>  (164) 
1

>  <s_m_source_file>  (164) 
/var/tmp/pbs.5076255.sched01/tmp7dp07en1/447ppmqug5.sdf

>  <i_m_source_file_index>  (164) 
28

>  <i_lp_mmshare_version>  (164) 
48012

>  <i_f3d_flags>  (164) 
0

>  <s_epik_input>  (164) 
W0NAQF0xMjNbQ0hdNEM1KFtPSF0pW0NIMl1bQ0BASF0oW09IXSlbQ0BIXTFbQ0BIXShPW0NIM10pW0NAQEhdKFtDQEhdNE9bQ0gzXSlbQ0BIXTZbQ0BIXShbT0hdKVtDQEBdKFtPSF0pKFtDQEhdNVtPSF0pW0NASF0oW0NAXTMoW09IXSlbQ0BASF02T1tDSDNdKVtDQEhdKFtPSF0pW0NAXTcoW09IXSlbQ0BIXTJbQ0BASF04T1tDQEhdN1tDQEhdOFtPSF0=

>  <s_epik_cmdline>  (164) 
J2VwaWtfcHl0aG9uJywgJy1waHQnLCAnMi4wJywgJy1waCcsICc3LjAnLCAnLXRuJywgJzgnLCAnLW1hJywgJzIwMCcsICctaW1hZScsICc8aW5maWxlLm1hZT4nLCAnLW9tYWUnLCAnPG91dGZpbGUubWFlPic=

>  <r_lp_tautomer_probability>  (164) 
1

>  <r_epik_Ionization_Penalty>  (164) 
9.31044e-07

>  <r_epik_Ionization_Penalty_Charging>  (164) 
0

>  <r_epik_Ionization_Penalty_Neutral>  (164) 
9.31044e-07

>  <r_epik_State_Penalty>  (164) 
-0

>  <r_epik_Charging_Adjusted_Penalty>  (164) 
0

>  <i_epik_Tot_Q>  (164) 
0

>  <i_epik_Tot_abs_Q>  (164) 
0

>  <s_lp_Force_Field>  (164) 
OPLS3e

>  <r_lp_Energy>  (164) 
354.747

>  <b_lp_Chiralities_Consistent>  (164) 
1

>  <s_lp_Variant>  (164) 
50:0-2

>  <s_i_glide_gridfile>  (164) 
pfpi4k_grid

>  <i_i_glide_lignum>  (164) 
28

>  <i_i_glide_rotatable_bonds>  (164) 
12

>  <r_i_docking_score>  (164) 
-2.48913

>  <r_i_glide_ligand_efficiency>  (164) 
-0.0655033

>  <r_i_glide_ligand_efficiency_sa>  (164) 
-0.22022

>  <r_i_glide_ligand_efficiency_ln>  (164) 
-0.536729

>  <r_i_glide_gscore>  (164) 
-2.48913

>  <r_i_glide_lipo>  (164) 
-0.101179

>  <r_i_glide_hbond>  (164) 
0

>  <r_i_glide_metal>  (164) 
-0

>  <r_i_glide_rewards>  (164) 
0

>  <r_i_glide_evdw>  (164) 
-17.1724

>  <r_i_glide_ecoul>  (164) 
-10.1955

>  <r_i_glide_erotb>  (164) 
0

>  <r_i_glide_esite>  (164) 
0

>  <r_i_glide_emodel>  (164) 
-30.5926

>  <r_i_glide_energy>  (164) 
-27.3679

>  <r_i_glide_einternal>  (164) 
3.80243

>  <r_i_glide_intrahb_reward>  (164) 
-0

>  <i_i_glide_confnum>  (164) 
1

>  <i_i_glide_posenum>  (164) 
1

>  <r_i_glide_eff_state_penalty>  (164) 
0

>  <ligand_id>  (164) 
50

>  <original_smiles>  (164) 
COC1C2C(OC)C3C4(O)CC(O)C1C31C3C5OC(C5O)C3(O)C(O)C3C(O)(C(O)C2C(OC)C31O)C4O

>  <smiles>  (164) 
[H]OC1([H])C2([H])OC1([H])C1(O[H])C([H])(O[H])C3([H])C4(O[H])C([H])(O[H])C5([H])C([H])(OC([H])([H])[H])C3(O[H])C3(C6([H])C([H])(O[H])C([H])([H])C(O[H])(C4([H])O[H])C3([H])C([H])(OC([H])([H])[H])C5([H])C6([H])OC([H])([H])[H])C21[H]

$$$$
51:0:0
     RDKit          3D

 26 28  0  0  1  0  0  0  0  0999 V2000
   -4.4757   -9.4523   -5.0973 C   0  0  0  0  0  0  0  0  0  0  0  0
   -5.7023   -9.0098   -5.7965 N   0  0  2  0  0  0  0  0  0  0  0  0
   -5.9580   -9.7296   -7.0435 C   0  0  0  0  0  0  0  0  0  0  0  0
   -6.4376   -8.4220   -7.6339 C   0  0  1  0  0  0  0  0  0  0  0  0
   -7.9483   -8.1458   -7.7241 C   0  0  0  0  0  0  0  0  0  0  0  0
   -8.2527   -6.6497   -7.5563 C   0  0  0  0  0  0  0  0  0  0  0  0
   -7.5468   -6.0967   -6.3661 C   0  0  0  0  0  0  0  0  0  0  0  0
   -8.1563   -4.7363   -5.4747 S   0  0  0  0  0  0  0  0  0  0  0  0
   -6.7988   -4.8069   -4.3863 C   0  0  0  0  0  0  0  0  0  0  0  0
   -5.9392   -5.8336   -4.7119 C   0  0  0  0  0  0  0  0  0  0  0  0
   -6.3744   -6.5927   -5.8339 C   0  0  0  0  0  0  0  0  0  0  0  0
   -5.6577   -7.7310   -6.5110 C   0  0  1  0  0  0  0  0  0  0  0  0
   -3.5961   -9.4370   -5.7343 H   0  0  0  0  0  0  0  0  0  0  0  0
   -4.6061  -10.4760   -4.7595 H   0  0  0  0  0  0  0  0  0  0  0  0
   -4.2778   -8.8409   -4.2257 H   0  0  0  0  0  0  0  0  0  0  0  0
   -5.0642  -10.0940   -7.5535 H   0  0  0  0  0  0  0  0  0  0  0  0
   -6.7319  -10.4916   -6.9766 H   0  0  0  0  0  0  0  0  0  0  0  0
   -5.9218   -8.2025   -8.5654 H   0  0  0  0  0  0  0  0  0  0  0  0
   -8.3817   -8.5432   -8.6440 H   0  0  0  0  0  0  0  0  0  0  0  0
   -8.4548   -8.6655   -6.9090 H   0  0  0  0  0  0  0  0  0  0  0  0
   -7.9465   -6.1064   -8.4507 H   0  0  0  0  0  0  0  0  0  0  0  0
   -9.3312   -6.5058   -7.4553 H   0  0  0  0  0  0  0  0  0  0  0  0
   -6.7166   -4.0821   -3.5911 H   0  0  0  0  0  0  0  0  0  0  0  0
   -5.0256   -6.0532   -4.1846 H   0  0  0  0  0  0  0  0  0  0  0  0
   -4.6427   -7.4684   -6.8198 H   0  0  0  0  0  0  0  0  0  0  0  0
   -6.5306   -9.0427   -5.2199 H   0  0  0  0  0  0  0  0  0  0  0  0
  1  2  1  0
  1 13  1  0
  1 14  1  0
  1 15  1  0
  2 12  1  0
  2  3  1  0
  2 26  1  1
  3  4  1  0
  3 16  1  0
  3 17  1  0
  4 12  1  0
  4  5  1  0
  4 18  1  6
  5  6  1  0
  5 19  1  0
  5 20  1  0
  6  7  1  0
  6 21  1  0
  6 22  1  0
  7 11  2  0
  7  8  1  0
  8  9  1  0
  9 10  2  0
  9 23  1  0
 10 11  1  0
 10 24  1  0
 11 12  1  0
 12 25  1  6
M  CHG  1   2   1
M  END
>  <i_m_ct_stereo_status>  (165) 
1

>  <s_m_source_file>  (165) 
/var/tmp/pbs.5076255.sched01/tmp7dp07en1/447ppmqug5.sdf

>  <i_m_source_file_index>  (165) 
29

>  <i_lp_mmshare_version>  (165) 
48012

>  <i_f3d_flags>  (165) 
0

>  <s_epik_input>  (165) 
W0NIM11OKFtDSDJdMSlbQ0BASF0oW0NAQEhdMTIpYzNjKFtDSDJdW0NIMl0yKXNbY0hdW2NIXTM=

>  <s_epik_cmdline>  (165) 
J2VwaWtfcHl0aG9uJywgJy1waHQnLCAnMi4wJywgJy1waCcsICc3LjAnLCAnLXRuJywgJzgnLCAnLW1hJywgJzIwMCcsICctaW1hZScsICc8aW5maWxlLm1hZT4nLCAnLW9tYWUnLCAnPG91dGZpbGUubWFlPic=

>  <r_epik_Ionization_Penalty>  (165) 
0.000758292

>  <r_epik_Ionization_Penalty_Charging>  (165) 
0.000758292

>  <r_epik_Ionization_Penalty_Neutral>  (165) 
0

>  <r_epik_State_Penalty>  (165) 
0.000485179

>  <r_epik_Charging_Adjusted_Penalty>  (165) 
0.00124347

>  <i_epik_Tot_Q>  (165) 
1

>  <i_epik_Tot_abs_Q>  (165) 
1

>  <s_lp_Force_Field>  (165) 
OPLS3e

>  <r_lp_Energy>  (165) 
20.3362

>  <b_lp_Chiralities_Consistent>  (165) 
1

>  <s_lp_Variant>  (165) 
51:0-1

>  <s_i_glide_gridfile>  (165) 
pfpi4k_grid

>  <i_i_glide_lignum>  (165) 
29

>  <i_i_glide_rotatable_bonds>  (165) 
0

>  <r_i_docking_score>  (165) 
-6.41764

>  <r_i_glide_ligand_efficiency>  (165) 
-0.534803

>  <r_i_glide_ligand_efficiency_sa>  (165) 
-1.22439

>  <r_i_glide_ligand_efficiency_ln>  (165) 
-1.84155

>  <r_i_glide_gscore>  (165) 
-6.41764

>  <r_i_glide_lipo>  (165) 
-2.40245

>  <r_i_glide_hbond>  (165) 
0

>  <r_i_glide_metal>  (165) 
-0

>  <r_i_glide_rewards>  (165) 
-2.63817

>  <r_i_glide_evdw>  (165) 
-21.3239

>  <r_i_glide_ecoul>  (165) 
-2.07216

>  <r_i_glide_erotb>  (165) 
0

>  <r_i_glide_esite>  (165) 
0

>  <r_i_glide_emodel>  (165) 
-31.5879

>  <r_i_glide_energy>  (165) 
-23.3961

>  <r_i_glide_einternal>  (165) 
0

>  <r_i_glide_intrahb_reward>  (165) 
-0

>  <i_i_glide_confnum>  (165) 
2

>  <i_i_glide_posenum>  (165) 
16

>  <r_i_glide_eff_state_penalty>  (165) 
0

>  <ligand_id>  (165) 
51

>  <original_smiles>  (165) 
CN1CC2CCc3sccc3C21

>  <smiles>  (165) 
[H]c1sc2c(c1[H])C1([H])C([H])(C([H])([H])C2([H])[H])C([H])([H])[N+]1([H])C([H])([H])[H]

$$$$
51:0:1
     RDKit          3D

 26 28  0  0  1  0  0  0  0  0999 V2000
   -9.8314   -8.7620   -8.7356 C   0  0  0  0  0  0  0  0  0  0  0  0
   -9.8962   -7.5364   -7.9220 N   0  0  2  0  0  0  0  0  0  0  0  0
  -10.8563   -6.5439   -8.3836 C   0  0  0  0  0  0  0  0  0  0  0  0
   -9.8679   -5.4821   -7.9621 C   0  0  1  0  0  0  0  0  0  0  0  0
  -10.0820   -4.7238   -6.6453 C   0  0  0  0  0  0  0  0  0  0  0  0
   -8.7417   -4.3225   -6.0161 C   0  0  0  0  0  0  0  0  0  0  0  0
   -7.8005   -5.4825   -5.9915 C   0  0  0  0  0  0  0  0  0  0  0  0
   -6.5640   -5.6456   -4.7729 S   0  0  0  0  0  0  0  0  0  0  0  0
   -6.0365   -7.1500   -5.4783 C   0  0  0  0  0  0  0  0  0  0  0  0
   -6.7864   -7.4928   -6.5737 C   0  0  0  0  0  0  0  0  0  0  0  0
   -7.8075   -6.5363   -6.8692 C   0  0  0  0  0  0  0  0  0  0  0  0
   -8.7941   -6.5763   -8.0141 C   0  0  1  0  0  0  0  0  0  0  0  0
   -9.6660   -8.5605   -9.8018 H   0  0  0  0  0  0  0  0  0  0  0  0
  -10.7764   -9.2969   -8.6582 H   0  0  0  0  0  0  0  0  0  0  0  0
   -9.0518   -9.4350   -8.3830 H   0  0  0  0  0  0  0  0  0  0  0  0
  -11.0416   -6.5561   -9.4633 H   0  0  0  0  0  0  0  0  0  0  0  0
  -11.7913   -6.5262   -7.8223 H   0  0  0  0  0  0  0  0  0  0  0  0
   -9.6614   -4.8077   -8.7850 H   0  0  0  0  0  0  0  0  0  0  0  0
  -10.7473   -3.8633   -6.7580 H   0  0  0  0  0  0  0  0  0  0  0  0
  -10.5775   -5.3925   -5.9368 H   0  0  0  0  0  0  0  0  0  0  0  0
   -8.2918   -3.5020   -6.5769 H   0  0  0  0  0  0  0  0  0  0  0  0
   -8.9070   -3.9547   -5.0060 H   0  0  0  0  0  0  0  0  0  0  0  0
   -5.2017   -7.6814   -5.0413 H   0  0  0  0  0  0  0  0  0  0  0  0
   -6.6331   -8.3767   -7.1744 H   0  0  0  0  0  0  0  0  0  0  0  0
   -8.3014   -6.6268   -8.9884 H   0  0  0  0  0  0  0  0  0  0  0  0
  -10.0792   -7.7320   -6.9439 H   0  0  0  0  0  0  0  0  0  0  0  0
  1  2  1  0
  1 13  1  0
  1 14  1  0
  1 15  1  0
  2 12  1  0
  2  3  1  0
  2 26  1  1
  3  4  1  0
  3 16  1  0
  3 17  1  0
  4 12  1  0
  4  5  1  0
  4 18  1  6
  5  6  1  0
  5 19  1  0
  5 20  1  0
  6  7  1  0
  6 21  1  0
  6 22  1  0
  7 11  2  0
  7  8  1  0
  8  9  1  0
  9 10  2  0
  9 23  1  0
 10 11  1  0
 10 24  1  0
 11 12  1  0
 12 25  1  6
M  CHG  1   2   1
M  END
>  <i_m_ct_stereo_status>  (166) 
1

>  <s_m_source_file>  (166) 
/var/tmp/pbs.5076255.sched01/tmp7dp07en1/447ppmqug5.sdf

>  <i_m_source_file_index>  (166) 
29

>  <i_lp_mmshare_version>  (166) 
48012

>  <i_f3d_flags>  (166) 
0

>  <s_epik_input>  (166) 
W0NIM11OKFtDSDJdMSlbQ0BASF0oW0NAQEhdMTIpYzNjKFtDSDJdW0NIMl0yKXNbY0hdW2NIXTM=

>  <s_epik_cmdline>  (166) 
J2VwaWtfcHl0aG9uJywgJy1waHQnLCAnMi4wJywgJy1waCcsICc3LjAnLCAnLXRuJywgJzgnLCAnLW1hJywgJzIwMCcsICctaW1hZScsICc8aW5maWxlLm1hZT4nLCAnLW9tYWUnLCAnPG91dGZpbGUubWFlPic=

>  <r_epik_Ionization_Penalty>  (166) 
0.000758292

>  <r_epik_Ionization_Penalty_Charging>  (166) 
0.000758292

>  <r_epik_Ionization_Penalty_Neutral>  (166) 
0

>  <r_epik_State_Penalty>  (166) 
0.000485179

>  <r_epik_Charging_Adjusted_Penalty>  (166) 
0.00124347

>  <i_epik_Tot_Q>  (166) 
1

>  <i_epik_Tot_abs_Q>  (166) 
1

>  <s_lp_Force_Field>  (166) 
OPLS3e

>  <r_lp_Energy>  (166) 
20.3362

>  <b_lp_Chiralities_Consistent>  (166) 
1

>  <s_lp_Variant>  (166) 
51:0-1

>  <s_i_glide_gridfile>  (166) 
pfpi4k_grid

>  <i_i_glide_lignum>  (166) 
29

>  <i_i_glide_rotatable_bonds>  (166) 
0

>  <r_i_docking_score>  (166) 
-6.07813

>  <r_i_glide_ligand_efficiency>  (166) 
-0.506511

>  <r_i_glide_ligand_efficiency_sa>  (166) 
-1.15962

>  <r_i_glide_ligand_efficiency_ln>  (166) 
-1.74413

>  <r_i_glide_gscore>  (166) 
-6.07813

>  <r_i_glide_lipo>  (166) 
-2.15289

>  <r_i_glide_hbond>  (166) 
0

>  <r_i_glide_metal>  (166) 
-0

>  <r_i_glide_rewards>  (166) 
-2.8215

>  <r_i_glide_evdw>  (166) 
-19.2599

>  <r_i_glide_ecoul>  (166) 
-0.938296

>  <r_i_glide_erotb>  (166) 
0

>  <r_i_glide_esite>  (166) 
0

>  <r_i_glide_emodel>  (166) 
-27.8831

>  <r_i_glide_energy>  (166) 
-20.1982

>  <r_i_glide_einternal>  (166) 
0

>  <r_i_glide_intrahb_reward>  (166) 
-0

>  <i_i_glide_confnum>  (166) 
1

>  <i_i_glide_posenum>  (166) 
10

>  <r_i_glide_eff_state_penalty>  (166) 
0

>  <ligand_id>  (166) 
51

>  <original_smiles>  (166) 
CN1CC2CCc3sccc3C21

>  <smiles>  (166) 
[H]c1sc2c(c1[H])C1([H])C([H])(C([H])([H])C2([H])[H])C([H])([H])[N+]1([H])C([H])([H])[H]

$$$$
51:0:2
     RDKit          3D

 26 28  0  0  1  0  0  0  0  0999 V2000
   -9.2574   -3.7058   -7.3464 C   0  0  0  0  0  0  0  0  0  0  0  0
   -8.6330   -4.9794   -7.7696 N   0  0  2  0  0  0  0  0  0  0  0  0
   -9.4975   -5.7745   -8.6392 C   0  0  0  0  0  0  0  0  0  0  0  0
   -9.0077   -7.0010   -7.9052 C   0  0  1  0  0  0  0  0  0  0  0  0
   -7.9165   -7.8702   -8.5368 C   0  0  0  0  0  0  0  0  0  0  0  0
   -7.0266   -8.5024   -7.4595 C   0  0  0  0  0  0  0  0  0  0  0  0
   -6.5844   -7.4867   -6.4678 C   0  0  0  0  0  0  0  0  0  0  0  0
   -5.0936   -7.6277   -5.5915 S   0  0  0  0  0  0  0  0  0  0  0  0
   -5.4206   -6.1316   -4.7615 C   0  0  0  0  0  0  0  0  0  0  0  0
   -6.5983   -5.5645   -5.1574 C   0  0  0  0  0  0  0  0  0  0  0  0
   -7.2681   -6.3321   -6.1496 C   0  0  0  0  0  0  0  0  0  0  0  0
   -8.6034   -6.0477   -6.7756 C   0  0  1  0  0  0  0  0  0  0  0  0
  -10.2448   -3.8195   -6.9020 H   0  0  0  0  0  0  0  0  0  0  0  0
   -9.3830   -3.1081   -8.2410 H   0  0  0  0  0  0  0  0  0  0  0  0
   -8.6244   -3.1556   -6.6570 H   0  0  0  0  0  0  0  0  0  0  0  0
  -10.5723   -5.6185   -8.5020 H   0  0  0  0  0  0  0  0  0  0  0  0
   -9.2169   -5.7538   -9.6921 H   0  0  0  0  0  0  0  0  0  0  0  0
   -9.8482   -7.5869   -7.5466 H   0  0  0  0  0  0  0  0  0  0  0  0
   -8.3257   -8.6240   -9.2120 H   0  0  0  0  0  0  0  0  0  0  0  0
   -7.2709   -7.2377   -9.1480 H   0  0  0  0  0  0  0  0  0  0  0  0
   -7.5658   -9.3037   -6.9469 H   0  0  0  0  0  0  0  0  0  0  0  0
   -6.1542   -8.9654   -7.9300 H   0  0  0  0  0  0  0  0  0  0  0  0
   -4.7378   -5.7847   -4.0165 H   0  0  0  0  0  0  0  0  0  0  0  0
   -7.0029   -4.6434   -4.7565 H   0  0  0  0  0  0  0  0  0  0  0  0
   -9.3810   -5.8490   -6.0372 H   0  0  0  0  0  0  0  0  0  0  0  0
   -7.7202   -4.8841   -8.1842 H   0  0  0  0  0  0  0  0  0  0  0  0
  1  2  1  0
  1 13  1  0
  1 14  1  0
  1 15  1  0
  2 12  1  0
  2  3  1  0
  2 26  1  6
  3  4  1  0
  3 16  1  0
  3 17  1  0
  4 12  1  0
  4  5  1  0
  4 18  1  1
  5  6  1  0
  5 19  1  0
  5 20  1  0
  6  7  1  0
  6 21  1  0
  6 22  1  0
  7 11  2  0
  7  8  1  0
  8  9  1  0
  9 10  2  0
  9 23  1  0
 10 11  1  0
 10 24  1  0
 11 12  1  0
 12 25  1  1
M  CHG  1   2   1
M  END
>  <i_m_ct_stereo_status>  (167) 
1

>  <s_m_source_file>  (167) 
/var/tmp/pbs.5076255.sched01/tmp7dp07en1/447ppmqug5.sdf

>  <i_m_source_file_index>  (167) 
29

>  <i_lp_mmshare_version>  (167) 
48012

>  <i_f3d_flags>  (167) 
0

>  <s_epik_input>  (167) 
W0NIM11OKFtDSDJdMSlbQ0BASF0oW0NAQEhdMTIpYzNjKFtDSDJdW0NIMl0yKXNbY0hdW2NIXTM=

>  <s_epik_cmdline>  (167) 
J2VwaWtfcHl0aG9uJywgJy1waHQnLCAnMi4wJywgJy1waCcsICc3LjAnLCAnLXRuJywgJzgnLCAnLW1hJywgJzIwMCcsICctaW1hZScsICc8aW5maWxlLm1hZT4nLCAnLW9tYWUnLCAnPG91dGZpbGUubWFlPic=

>  <r_epik_Ionization_Penalty>  (167) 
0.000758292

>  <r_epik_Ionization_Penalty_Charging>  (167) 
0.000758292

>  <r_epik_Ionization_Penalty_Neutral>  (167) 
0

>  <r_epik_State_Penalty>  (167) 
0.000485179

>  <r_epik_Charging_Adjusted_Penalty>  (167) 
0.00124347

>  <i_epik_Tot_Q>  (167) 
1

>  <i_epik_Tot_abs_Q>  (167) 
1

>  <s_lp_Force_Field>  (167) 
OPLS3e

>  <r_lp_Energy>  (167) 
20.3362

>  <b_lp_Chiralities_Consistent>  (167) 
1

>  <s_lp_Variant>  (167) 
51:0-1

>  <s_i_glide_gridfile>  (167) 
pfpi4k_grid

>  <i_i_glide_lignum>  (167) 
29

>  <i_i_glide_rotatable_bonds>  (167) 
0

>  <r_i_docking_score>  (167) 
-4.98336

>  <r_i_glide_ligand_efficiency>  (167) 
-0.41528

>  <r_i_glide_ligand_efficiency_sa>  (167) 
-0.950754

>  <r_i_glide_ligand_efficiency_ln>  (167) 
-1.42998

>  <r_i_glide_gscore>  (167) 
-4.98336

>  <r_i_glide_lipo>  (167) 
-1.86194

>  <r_i_glide_hbond>  (167) 
0

>  <r_i_glide_metal>  (167) 
-0

>  <r_i_glide_rewards>  (167) 
-2.6465

>  <r_i_glide_evdw>  (167) 
-17.7618

>  <r_i_glide_ecoul>  (167) 
2.75451

>  <r_i_glide_erotb>  (167) 
0

>  <r_i_glide_esite>  (167) 
0

>  <r_i_glide_emodel>  (167) 
-21.1508

>  <r_i_glide_energy>  (167) 
-15.0073

>  <r_i_glide_einternal>  (167) 
0

>  <r_i_glide_intrahb_reward>  (167) 
-0

>  <i_i_glide_confnum>  (167) 
1

>  <i_i_glide_posenum>  (167) 
7

>  <r_i_glide_eff_state_penalty>  (167) 
0

>  <ligand_id>  (167) 
51

>  <original_smiles>  (167) 
CN1CC2CCc3sccc3C21

>  <smiles>  (167) 
[H]c1sc2c(c1[H])C1([H])C([H])(C([H])([H])C2([H])[H])C([H])([H])[N+]1([H])C([H])([H])[H]

$$$$
53:0:0
     RDKit          3D

 21 22  0  0  1  0  0  0  0  0999 V2000
    2.9338   -1.8326   -3.5997 C   0  0  0  0  0  0  0  0  0  0  0  0
    3.1048   -2.9938   -2.8337 C   0  0  0  0  0  0  0  0  0  0  0  0
    4.1070   -2.9526   -1.8529 C   0  0  0  0  0  0  0  0  0  0  0  0
    4.3200   -4.0969   -1.0790 N   0  0  0  0  0  0  0  0  0  0  0  0
    5.4522   -4.2057   -0.1656 C   0  0  0  0  0  0  0  0  0  0  0  0
    5.5468   -5.5454    0.4920 C   0  0  0  0  0  0  0  0  0  0  0  0
    4.5816   -6.5218    0.5916 C   0  0  0  0  0  0  0  0  0  0  0  0
    4.9890   -7.6727    1.2747 N   0  0  0  0  0  0  0  0  0  0  0  0
    6.2499   -7.5720    1.6936 C   0  0  0  0  0  0  0  0  0  0  0  0
    7.0266   -6.0508    1.2773 S   0  0  0  0  0  0  0  0  0  0  0  0
    4.8575   -1.8478   -1.6501 N   0  0  0  0  0  0  0  0  0  0  0  0
    4.5944   -0.8030   -2.4363 C   0  0  0  0  0  0  0  0  0  0  0  0
    3.7036   -0.7454   -3.4217 N   0  0  0  0  0  0  0  0  0  0  0  0
    3.8568   -4.9423   -1.3963 H   0  0  0  0  0  0  0  0  0  0  0  0
    2.1668   -1.7727   -4.3557 H   0  0  0  0  0  0  0  0  0  0  0  0
    2.4750   -3.8575   -2.9872 H   0  0  0  0  0  0  0  0  0  0  0  0
    5.3776   -3.4321    0.6008 H   0  0  0  0  0  0  0  0  0  0  0  0
    6.3659   -4.0128   -0.7288 H   0  0  0  0  0  0  0  0  0  0  0  0
    3.5703   -6.4814    0.2183 H   0  0  0  0  0  0  0  0  0  0  0  0
    6.7113   -8.3793    2.2456 H   0  0  0  0  0  0  0  0  0  0  0  0
    5.2054    0.0747   -2.3076 H   0  0  0  0  0  0  0  0  0  0  0  0
  1  2  2  0
  1 15  1  0
  1 13  1  0
  2  3  1  0
  2 16  1  0
  3  4  1  0
  3 11  2  0
  4  5  1  0
  4 14  1  0
  5  6  1  0
  5 17  1  0
  5 18  1  0
  6 10  1  0
  6  7  2  0
  7  8  1  0
  7 19  1  0
  8  9  2  0
  9 10  1  0
  9 20  1  0
 11 12  1  0
 12 13  2  0
 12 21  1  0
M  END
>  <i_m_ct_stereo_status>  (168) 
1

>  <s_m_source_file>  (168) 
/var/tmp/pbs.5076255.sched01/tmp7dp07en1/447ppmqug5.sdf

>  <i_m_source_file_index>  (168) 
31

>  <i_lp_mmshare_version>  (168) 
48012

>  <i_f3d_flags>  (168) 
0

>  <s_epik_input>  (168) 
bjFbY0hdW25IXVtjSF1bY0hdL2MxPU4vW0NIMl1jMltjSF1uW2NIXXMy

>  <s_epik_cmdline>  (168) 
J2VwaWtfcHl0aG9uJywgJy1waHQnLCAnMi4wJywgJy1waCcsICc3LjAnLCAnLXRuJywgJzgnLCAnLW1hJywgJzIwMCcsICctaW1hZScsICc8aW5maWxlLm1hZT4nLCAnLW9tYWUnLCAnPG91dGZpbGUubWFlPic=

>  <r_lp_tautomer_probability>  (168) 
1

>  <r_epik_Ionization_Penalty>  (168) 
0.0301067

>  <r_epik_Ionization_Penalty_Charging>  (168) 
0

>  <r_epik_Ionization_Penalty_Neutral>  (168) 
0.0301067

>  <r_epik_State_Penalty>  (168) 
0.0245848

>  <r_epik_Charging_Adjusted_Penalty>  (168) 
0.0245848

>  <i_epik_Tot_Q>  (168) 
0

>  <i_epik_Tot_abs_Q>  (168) 
0

>  <s_lp_Force_Field>  (168) 
OPLS3e

>  <r_lp_Energy>  (168) 
16.413

>  <b_lp_Chiralities_Consistent>  (168) 
1

>  <s_lp_Variant>  (168) 
53:0-1

>  <s_i_glide_gridfile>  (168) 
pfpi4k_grid

>  <i_i_glide_lignum>  (168) 
31

>  <i_i_glide_rotatable_bonds>  (168) 
3

>  <r_i_docking_score>  (168) 
-3.5308

>  <r_i_glide_ligand_efficiency>  (168) 
-0.2716

>  <r_i_glide_ligand_efficiency_sa>  (168) 
-0.638622

>  <r_i_glide_ligand_efficiency_ln>  (168) 
-0.99042

>  <r_i_glide_gscore>  (168) 
-3.5308

>  <r_i_glide_lipo>  (168) 
-0.696158

>  <r_i_glide_hbond>  (168) 
-0.32

>  <r_i_glide_metal>  (168) 
-0

>  <r_i_glide_rewards>  (168) 
-2.09835

>  <r_i_glide_evdw>  (168) 
-21.2542

>  <r_i_glide_ecoul>  (168) 
-4.09797

>  <r_i_glide_erotb>  (168) 
1.30827

>  <r_i_glide_esite>  (168) 
-0.0471494

>  <r_i_glide_emodel>  (168) 
-31.6174

>  <r_i_glide_energy>  (168) 
-25.3522

>  <r_i_glide_einternal>  (168) 
0.306151

>  <r_i_glide_intrahb_reward>  (168) 
-0

>  <i_i_glide_confnum>  (168) 
4

>  <i_i_glide_posenum>  (168) 
3

>  <r_i_glide_eff_state_penalty>  (168) 
0

>  <ligand_id>  (168) 
53

>  <original_smiles>  (168) 
c1cc(=NCc2cncs2)nc[nH]1

>  <smiles>  (168) 
[H]c1nc([H])c([H])c(N([H])C([H])([H])c2sc([H])nc2[H])n1

$$$$
53:0:1
     RDKit          3D

 21 22  0  0  1  0  0  0  0  0999 V2000
    2.8574    0.6043    3.7060 C   0  0  0  0  0  0  0  0  0  0  0  0
    2.5790    0.1297    2.4132 C   0  0  0  0  0  0  0  0  0  0  0  0
    3.6371   -0.4906    1.7231 C   0  0  0  0  0  0  0  0  0  0  0  0
    3.4145   -0.9684    0.4258 N   0  0  0  0  0  0  0  0  0  0  0  0
    4.5210   -1.1783   -0.4931 C   0  0  0  0  0  0  0  0  0  0  0  0
    4.0529   -1.5279   -1.8711 C   0  0  0  0  0  0  0  0  0  0  0  0
    4.1700   -0.7751   -3.0145 C   0  0  0  0  0  0  0  0  0  0  0  0
    3.7141   -1.4269   -4.1707 N   0  0  0  0  0  0  0  0  0  0  0  0
    3.1593   -2.6056   -3.8813 C   0  0  0  0  0  0  0  0  0  0  0  0
    3.2465   -3.0462   -2.1912 S   0  0  0  0  0  0  0  0  0  0  0  0
    4.8529   -0.6348    2.2973 N   0  0  0  0  0  0  0  0  0  0  0  0
    4.9922   -0.1744    3.5403 C   0  0  0  0  0  0  0  0  0  0  0  0
    4.0682    0.4415    4.2734 N   0  0  0  0  0  0  0  0  0  0  0  0
    2.4763   -0.8727    0.0276 H   0  0  0  0  0  0  0  0  0  0  0  0
    2.1087    1.1157    4.2979 H   0  0  0  0  0  0  0  0  0  0  0  0
    1.6046    0.2521    1.9640 H   0  0  0  0  0  0  0  0  0  0  0  0
    5.1638   -1.9759   -0.1121 H   0  0  0  0  0  0  0  0  0  0  0  0
    5.1079   -0.2572   -0.5241 H   0  0  0  0  0  0  0  0  0  0  0  0
    4.5885    0.2201   -3.1150 H   0  0  0  0  0  0  0  0  0  0  0  0
    2.7110   -3.2119   -4.6547 H   0  0  0  0  0  0  0  0  0  0  0  0
    5.9602   -0.2755    4.0060 H   0  0  0  0  0  0  0  0  0  0  0  0
  1  2  2  0
  1 15  1  0
  1 13  1  0
  2  3  1  0
  2 16  1  0
  3  4  1  0
  3 11  2  0
  4  5  1  0
  4 14  1  0
  5  6  1  0
  5 17  1  0
  5 18  1  0
  6 10  1  0
  6  7  2  0
  7  8  1  0
  7 19  1  0
  8  9  2  0
  9 10  1  0
  9 20  1  0
 11 12  1  0
 12 13  2  0
 12 21  1  0
M  END
>  <i_m_ct_stereo_status>  (169) 
1

>  <s_m_source_file>  (169) 
/var/tmp/pbs.5076255.sched01/tmp7dp07en1/447ppmqug5.sdf

>  <i_m_source_file_index>  (169) 
31

>  <i_lp_mmshare_version>  (169) 
48012

>  <i_f3d_flags>  (169) 
0

>  <s_epik_input>  (169) 
bjFbY0hdW25IXVtjSF1bY0hdL2MxPU4vW0NIMl1jMltjSF1uW2NIXXMy

>  <s_epik_cmdline>  (169) 
J2VwaWtfcHl0aG9uJywgJy1waHQnLCAnMi4wJywgJy1waCcsICc3LjAnLCAnLXRuJywgJzgnLCAnLW1hJywgJzIwMCcsICctaW1hZScsICc8aW5maWxlLm1hZT4nLCAnLW9tYWUnLCAnPG91dGZpbGUubWFlPic=

>  <r_lp_tautomer_probability>  (169) 
1

>  <r_epik_Ionization_Penalty>  (169) 
0.0301067

>  <r_epik_Ionization_Penalty_Charging>  (169) 
0

>  <r_epik_Ionization_Penalty_Neutral>  (169) 
0.0301067

>  <r_epik_State_Penalty>  (169) 
0.0245848

>  <r_epik_Charging_Adjusted_Penalty>  (169) 
0.0245848

>  <i_epik_Tot_Q>  (169) 
0

>  <i_epik_Tot_abs_Q>  (169) 
0

>  <s_lp_Force_Field>  (169) 
OPLS3e

>  <r_lp_Energy>  (169) 
16.413

>  <b_lp_Chiralities_Consistent>  (169) 
1

>  <s_lp_Variant>  (169) 
53:0-1

>  <s_i_glide_gridfile>  (169) 
pfpi4k_grid

>  <i_i_glide_lignum>  (169) 
31

>  <i_i_glide_rotatable_bonds>  (169) 
3

>  <r_i_docking_score>  (169) 
-3.30423

>  <r_i_glide_ligand_efficiency>  (169) 
-0.254172

>  <r_i_glide_ligand_efficiency_sa>  (169) 
-0.597643

>  <r_i_glide_ligand_efficiency_ln>  (169) 
-0.926867

>  <r_i_glide_gscore>  (169) 
-3.30423

>  <r_i_glide_lipo>  (169) 
-0.248944

>  <r_i_glide_hbond>  (169) 
-0.300808

>  <r_i_glide_metal>  (169) 
-0

>  <r_i_glide_rewards>  (169) 
-2.24217

>  <r_i_glide_evdw>  (169) 
-22.502

>  <r_i_glide_ecoul>  (169) 
-4.21143

>  <r_i_glide_erotb>  (169) 
1.30827

>  <r_i_glide_esite>  (169) 
-0.0637604

>  <r_i_glide_emodel>  (169) 
-32.335

>  <r_i_glide_energy>  (169) 
-26.7135

>  <r_i_glide_einternal>  (169) 
0.648574

>  <r_i_glide_intrahb_reward>  (169) 
-0

>  <i_i_glide_confnum>  (169) 
5

>  <i_i_glide_posenum>  (169) 
7

>  <r_i_glide_eff_state_penalty>  (169) 
0

>  <ligand_id>  (169) 
53

>  <original_smiles>  (169) 
c1cc(=NCc2cncs2)nc[nH]1

>  <smiles>  (169) 
[H]c1nc([H])c([H])c(N([H])C([H])([H])c2sc([H])nc2[H])n1

$$$$
53:0:2
     RDKit          3D

 21 22  0  0  1  0  0  0  0  0999 V2000
    1.6371    1.0067    3.2128 C   0  0  0  0  0  0  0  0  0  0  0  0
    1.6937    0.3013    2.0027 C   0  0  0  0  0  0  0  0  0  0  0  0
    2.9187   -0.3069    1.6766 C   0  0  0  0  0  0  0  0  0  0  0  0
    3.0172   -1.0212    0.4791 N   0  0  0  0  0  0  0  0  0  0  0  0
    4.2890   -1.1765   -0.2020 C   0  0  0  0  0  0  0  0  0  0  0  0
    4.1728   -1.8280   -1.5534 C   0  0  0  0  0  0  0  0  0  0  0  0
    3.5195   -1.3742   -2.6808 C   0  0  0  0  0  0  0  0  0  0  0  0
    3.6337   -2.2362   -3.7821 N   0  0  0  0  0  0  0  0  0  0  0  0
    4.3250   -3.3419   -3.4925 C   0  0  0  0  0  0  0  0  0  0  0  0
    4.9452   -3.3666   -1.8530 S   0  0  0  0  0  0  0  0  0  0  0  0
    3.9845   -0.2265    2.5022 N   0  0  0  0  0  0  0  0  0  0  0  0
    3.8073    0.4536    3.6330 C   0  0  0  0  0  0  0  0  0  0  0  0
    2.6997    1.0706    4.0404 N   0  0  0  0  0  0  0  0  0  0  0  0
    2.1469   -1.0586   -0.0853 H   0  0  0  0  0  0  0  0  0  0  0  0
    0.7353    1.5123    3.5262 H   0  0  0  0  0  0  0  0  0  0  0  0
    0.8462    0.2471    1.3377 H   0  0  0  0  0  0  0  0  0  0  0  0
    4.9636   -1.7600    0.4314 H   0  0  0  0  0  0  0  0  0  0  0  0
    4.7497   -0.1954   -0.3223 H   0  0  0  0  0  0  0  0  0  0  0  0
    2.9514   -0.4562   -2.7902 H   0  0  0  0  0  0  0  0  0  0  0  0
    4.4734   -4.1143   -4.2360 H   0  0  0  0  0  0  0  0  0  0  0  0
    4.6445    0.5214    4.3108 H   0  0  0  0  0  0  0  0  0  0  0  0
  1  2  2  0
  1 15  1  0
  1 13  1  0
  2  3  1  0
  2 16  1  0
  3  4  1  0
  3 11  2  0
  4  5  1  0
  4 14  1  0
  5  6  1  0
  5 17  1  0
  5 18  1  0
  6 10  1  0
  6  7  2  0
  7  8  1  0
  7 19  1  0
  8  9  2  0
  9 10  1  0
  9 20  1  0
 11 12  1  0
 12 13  2  0
 12 21  1  0
M  END
>  <i_m_ct_stereo_status>  (170) 
1

>  <s_m_source_file>  (170) 
/var/tmp/pbs.5076255.sched01/tmp7dp07en1/447ppmqug5.sdf

>  <i_m_source_file_index>  (170) 
31

>  <i_lp_mmshare_version>  (170) 
48012

>  <i_f3d_flags>  (170) 
0

>  <s_epik_input>  (170) 
bjFbY0hdW25IXVtjSF1bY0hdL2MxPU4vW0NIMl1jMltjSF1uW2NIXXMy

>  <s_epik_cmdline>  (170) 
J2VwaWtfcHl0aG9uJywgJy1waHQnLCAnMi4wJywgJy1waCcsICc3LjAnLCAnLXRuJywgJzgnLCAnLW1hJywgJzIwMCcsICctaW1hZScsICc8aW5maWxlLm1hZT4nLCAnLW9tYWUnLCAnPG91dGZpbGUubWFlPic=

>  <r_lp_tautomer_probability>  (170) 
1

>  <r_epik_Ionization_Penalty>  (170) 
0.0301067

>  <r_epik_Ionization_Penalty_Charging>  (170) 
0

>  <r_epik_Ionization_Penalty_Neutral>  (170) 
0.0301067

>  <r_epik_State_Penalty>  (170) 
0.0245848

>  <r_epik_Charging_Adjusted_Penalty>  (170) 
0.0245848

>  <i_epik_Tot_Q>  (170) 
0

>  <i_epik_Tot_abs_Q>  (170) 
0

>  <s_lp_Force_Field>  (170) 
OPLS3e

>  <r_lp_Energy>  (170) 
16.413

>  <b_lp_Chiralities_Consistent>  (170) 
1

>  <s_lp_Variant>  (170) 
53:0-1

>  <s_i_glide_gridfile>  (170) 
pfpi4k_grid

>  <i_i_glide_lignum>  (170) 
31

>  <i_i_glide_rotatable_bonds>  (170) 
3

>  <r_i_docking_score>  (170) 
-3.30224

>  <r_i_glide_ligand_efficiency>  (170) 
-0.254019

>  <r_i_glide_ligand_efficiency_sa>  (170) 
-0.597283

>  <r_i_glide_ligand_efficiency_ln>  (170) 
-0.926309

>  <r_i_glide_gscore>  (170) 
-3.30224

>  <r_i_glide_lipo>  (170) 
-0.28395

>  <r_i_glide_hbond>  (170) 
-0.162212

>  <r_i_glide_metal>  (170) 
-0

>  <r_i_glide_rewards>  (170) 
-2.09835

>  <r_i_glide_evdw>  (170) 
-20.3656

>  <r_i_glide_ecoul>  (170) 
-6.4056

>  <r_i_glide_erotb>  (170) 
1.30827

>  <r_i_glide_esite>  (170) 
-0.08688

>  <r_i_glide_emodel>  (170) 
-32.3868

>  <r_i_glide_energy>  (170) 
-26.7712

>  <r_i_glide_einternal>  (170) 
0.661646

>  <r_i_glide_intrahb_reward>  (170) 
-0

>  <i_i_glide_confnum>  (170) 
4

>  <i_i_glide_posenum>  (170) 
38

>  <r_i_glide_eff_state_penalty>  (170) 
0

>  <ligand_id>  (170) 
53

>  <original_smiles>  (170) 
c1cc(=NCc2cncs2)nc[nH]1

>  <smiles>  (170) 
[H]c1nc([H])c([H])c(N([H])C([H])([H])c2sc([H])nc2[H])n1

$$$$
53:1:0
     RDKit          3D

 22 23  0  0  1  0  0  0  0  0999 V2000
    0.2152    1.3550    1.7908 C   0  0  0  0  0  0  0  0  0  0  0  0
   -0.1304    1.8568    3.0509 C   0  0  0  0  0  0  0  0  0  0  0  0
    0.1353    1.0431    4.1756 C   0  0  0  0  0  0  0  0  0  0  0  0
   -0.2317    1.4063    5.4854 N   0  0  0  0  0  0  0  0  0  0  0  0
   -0.8443    2.7104    5.7365 C   0  0  0  0  0  0  0  0  0  0  0  0
   -1.5841    2.7893    7.0293 C   0  0  0  0  0  0  0  0  0  0  0  0
   -2.9439    2.9051    7.1674 C   0  0  0  0  0  0  0  0  0  0  0  0
   -3.3675    2.9782    8.4956 N   0  0  0  0  0  0  0  0  0  0  0  0
   -2.3429    2.9417    9.3473 C   0  0  0  0  0  0  0  0  0  0  0  0
   -0.7786    2.8050    8.5750 S   0  0  0  0  0  0  0  0  0  0  0  0
    0.7357   -0.1545    4.0180 N   0  0  0  0  0  0  0  0  0  0  0  0
    1.0690   -0.5657    2.7868 C   0  0  0  0  0  0  0  0  0  0  0  0
    0.8060    0.1407    1.6803 N   0  0  0  0  0  0  0  0  0  0  0  0
   -0.0053    0.8008    6.2612 H   0  0  0  0  0  0  0  0  0  0  0  0
   -0.0032    1.8588    0.8640 H   0  0  0  0  0  0  0  0  0  0  0  0
   -0.6080    2.8269    3.0824 H   0  0  0  0  0  0  0  0  0  0  0  0
   -1.5634    2.9428    4.9529 H   0  0  0  0  0  0  0  0  0  0  0  0
   -0.0788    3.4865    5.7029 H   0  0  0  0  0  0  0  0  0  0  0  0
   -3.6790    2.9450    6.3777 H   0  0  0  0  0  0  0  0  0  0  0  0
   -2.5178    2.9792   10.4081 H   0  0  0  0  0  0  0  0  0  0  0  0
    1.5249   -1.5396    2.6451 H   0  0  0  0  0  0  0  0  0  0  0  0
    0.9980   -0.2437    0.7298 H   0  0  0  0  0  0  0  0  0  0  0  0
  1  2  2  0
  1 15  1  0
  1 13  1  0
  2  3  1  0
  2 16  1  0
  3  4  1  0
  3 11  2  0
  4  5  1  0
  4 14  1  0
  5  6  1  0
  5 17  1  0
  5 18  1  0
  6 10  1  0
  6  7  2  0
  7  8  1  0
  7 19  1  0
  8  9  2  0
  9 10  1  0
  9 20  1  0
 11 12  1  0
 12 13  2  0
 12 21  1  0
 13 22  1  0
M  CHG  1  13   1
M  END
>  <i_m_ct_stereo_status>  (171) 
1

>  <s_m_source_file>  (171) 
/var/tmp/pbs.5076255.sched01/tmp7dp07en1/447ppmqug5.sdf

>  <i_m_source_file_index>  (171) 
32

>  <i_lp_mmshare_version>  (171) 
48012

>  <i_f3d_flags>  (171) 
0

>  <s_epik_input>  (171) 
bjFbY0hdW25IXVtjSF1bY0hdL2MxPU4vW0NIMl1jMltjSF1uW2NIXXMy

>  <s_epik_cmdline>  (171) 
J2VwaWtfcHl0aG9uJywgJy1waHQnLCAnMi4wJywgJy1waCcsICc3LjAnLCAnLXRuJywgJzgnLCAnLW1hJywgJzIwMCcsICctaW1hZScsICc8aW5maWxlLm1hZT4nLCAnLW9tYWUnLCAnPG91dGZpbGUubWFlPic=

>  <r_lp_tautomer_probability>  (171) 
0.999336

>  <r_epik_Ionization_Penalty>  (171) 
1.78538

>  <r_epik_Ionization_Penalty_Charging>  (171) 
1.78518

>  <r_epik_Ionization_Penalty_Neutral>  (171) 
0.000196312

>  <r_epik_State_Penalty>  (171) 
1.89766

>  <r_epik_Charging_Adjusted_Penalty>  (171) 
3.68284

>  <i_epik_Tot_Q>  (171) 
1

>  <i_epik_Tot_abs_Q>  (171) 
1

>  <s_lp_Force_Field>  (171) 
OPLS3e

>  <r_lp_Energy>  (171) 
20.3561

>  <b_lp_Chiralities_Consistent>  (171) 
1

>  <s_lp_Variant>  (171) 
53:0-2

>  <s_i_glide_gridfile>  (171) 
pfpi4k_grid

>  <i_i_glide_lignum>  (171) 
32

>  <i_i_glide_rotatable_bonds>  (171) 
3

>  <r_i_docking_score>  (171) 
-3.29663

>  <r_i_glide_ligand_efficiency>  (171) 
-0.253587

>  <r_i_glide_ligand_efficiency_sa>  (171) 
-0.596268

>  <r_i_glide_ligand_efficiency_ln>  (171) 
-0.924735

>  <r_i_glide_gscore>  (171) 
-3.29663

>  <r_i_glide_lipo>  (171) 
-0.215956

>  <r_i_glide_hbond>  (171) 
-0.2

>  <r_i_glide_metal>  (171) 
-0

>  <r_i_glide_rewards>  (171) 
-2.09148

>  <r_i_glide_evdw>  (171) 
-13.9717

>  <r_i_glide_ecoul>  (171) 
-8.32588

>  <r_i_glide_erotb>  (171) 
1.29697

>  <r_i_glide_esite>  (171) 
-0.138703

>  <r_i_glide_emodel>  (171) 
-27.4594

>  <r_i_glide_energy>  (171) 
-22.2976

>  <r_i_glide_einternal>  (171) 
2.53675

>  <r_i_glide_intrahb_reward>  (171) 
-0

>  <i_i_glide_confnum>  (171) 
3

>  <i_i_glide_posenum>  (171) 
33

>  <r_i_glide_eff_state_penalty>  (171) 
0

>  <ligand_id>  (171) 
53

>  <original_smiles>  (171) 
c1cc(=NCc2cncs2)nc[nH]1

>  <smiles>  (171) 
[H]c1nc([H])c(C([H])([H])N([H])c2nc([H])[n+]([H])c([H])c2[H])s1

$$$$
53:1:1
     RDKit          3D

 22 23  0  0  1  0  0  0  0  0999 V2000
    1.7892    1.3973    2.0523 C   0  0  0  0  0  0  0  0  0  0  0  0
    1.8051    2.3360    3.0941 C   0  0  0  0  0  0  0  0  0  0  0  0
    0.5626    2.7466    3.5929 C   0  0  0  0  0  0  0  0  0  0  0  0
    0.5261    3.6497    4.6628 N   0  0  0  0  0  0  0  0  0  0  0  0
   -0.7223    4.1415    5.2364 C   0  0  0  0  0  0  0  0  0  0  0  0
   -1.2933    3.2349    6.2820 C   0  0  0  0  0  0  0  0  0  0  0  0
   -1.6793    1.9244    6.1415 C   0  0  0  0  0  0  0  0  0  0  0  0
   -2.1854    1.3428    7.3053 N   0  0  0  0  0  0  0  0  0  0  0  0
   -2.1834    2.2103    8.3216 C   0  0  0  0  0  0  0  0  0  0  0  0
   -1.5525    3.7980    7.9149 S   0  0  0  0  0  0  0  0  0  0  0  0
   -0.5892    2.2558    3.0865 N   0  0  0  0  0  0  0  0  0  0  0  0
   -0.5375    1.3732    2.0847 C   0  0  0  0  0  0  0  0  0  0  0  0
    0.6160    0.9321    1.5630 N   0  0  0  0  0  0  0  0  0  0  0  0
    1.3938    3.9853    5.0555 H   0  0  0  0  0  0  0  0  0  0  0  0
    2.6812    1.0244    1.5705 H   0  0  0  0  0  0  0  0  0  0  0  0
    2.7363    2.7347    3.4738 H   0  0  0  0  0  0  0  0  0  0  0  0
   -1.4646    4.3176    4.4554 H   0  0  0  0  0  0  0  0  0  0  0  0
   -0.5163    5.1157    5.6823 H   0  0  0  0  0  0  0  0  0  0  0  0
   -1.6355    1.3344    5.2388 H   0  0  0  0  0  0  0  0  0  0  0  0
   -2.5440    1.9138    9.2950 H   0  0  0  0  0  0  0  0  0  0  0  0
   -1.4506    0.9852    1.6603 H   0  0  0  0  0  0  0  0  0  0  0  0
    0.6098    0.2887    0.7563 H   0  0  0  0  0  0  0  0  0  0  0  0
  1  2  2  0
  1 15  1  0
  1 13  1  0
  2  3  1  0
  2 16  1  0
  3  4  1  0
  3 11  2  0
  4  5  1  0
  4 14  1  0
  5  6  1  0
  5 17  1  0
  5 18  1  0
  6 10  1  0
  6  7  2  0
  7  8  1  0
  7 19  1  0
  8  9  2  0
  9 10  1  0
  9 20  1  0
 11 12  1  0
 12 13  2  0
 12 21  1  0
 13 22  1  0
M  CHG  1  13   1
M  END
>  <i_m_ct_stereo_status>  (172) 
1

>  <s_m_source_file>  (172) 
/var/tmp/pbs.5076255.sched01/tmp7dp07en1/447ppmqug5.sdf

>  <i_m_source_file_index>  (172) 
32

>  <i_lp_mmshare_version>  (172) 
48012

>  <i_f3d_flags>  (172) 
0

>  <s_epik_input>  (172) 
bjFbY0hdW25IXVtjSF1bY0hdL2MxPU4vW0NIMl1jMltjSF1uW2NIXXMy

>  <s_epik_cmdline>  (172) 
J2VwaWtfcHl0aG9uJywgJy1waHQnLCAnMi4wJywgJy1waCcsICc3LjAnLCAnLXRuJywgJzgnLCAnLW1hJywgJzIwMCcsICctaW1hZScsICc8aW5maWxlLm1hZT4nLCAnLW9tYWUnLCAnPG91dGZpbGUubWFlPic=

>  <r_lp_tautomer_probability>  (172) 
0.999336

>  <r_epik_Ionization_Penalty>  (172) 
1.78538

>  <r_epik_Ionization_Penalty_Charging>  (172) 
1.78518

>  <r_epik_Ionization_Penalty_Neutral>  (172) 
0.000196312

>  <r_epik_State_Penalty>  (172) 
1.89766

>  <r_epik_Charging_Adjusted_Penalty>  (172) 
3.68284

>  <i_epik_Tot_Q>  (172) 
1

>  <i_epik_Tot_abs_Q>  (172) 
1

>  <s_lp_Force_Field>  (172) 
OPLS3e

>  <r_lp_Energy>  (172) 
20.3561

>  <b_lp_Chiralities_Consistent>  (172) 
1

>  <s_lp_Variant>  (172) 
53:0-2

>  <s_i_glide_gridfile>  (172) 
pfpi4k_grid

>  <i_i_glide_lignum>  (172) 
32

>  <i_i_glide_rotatable_bonds>  (172) 
3

>  <r_i_docking_score>  (172) 
-3.11258

>  <r_i_glide_ligand_efficiency>  (172) 
-0.239429

>  <r_i_glide_ligand_efficiency_sa>  (172) 
-0.562978

>  <r_i_glide_ligand_efficiency_ln>  (172) 
-0.873106

>  <r_i_glide_gscore>  (172) 
-3.11258

>  <r_i_glide_lipo>  (172) 
-0.0304107

>  <r_i_glide_hbond>  (172) 
-0.37927

>  <r_i_glide_metal>  (172) 
-0

>  <r_i_glide_rewards>  (172) 
-2.09148

>  <r_i_glide_evdw>  (172) 
-14.5098

>  <r_i_glide_ecoul>  (172) 
-6.63632

>  <r_i_glide_erotb>  (172) 
1.29697

>  <r_i_glide_esite>  (172) 
-0.187453

>  <r_i_glide_emodel>  (172) 
-27.0832

>  <r_i_glide_energy>  (172) 
-21.1461

>  <r_i_glide_einternal>  (172) 
0.792319

>  <r_i_glide_intrahb_reward>  (172) 
-0

>  <i_i_glide_confnum>  (172) 
4

>  <i_i_glide_posenum>  (172) 
36

>  <r_i_glide_eff_state_penalty>  (172) 
0

>  <ligand_id>  (172) 
53

>  <original_smiles>  (172) 
c1cc(=NCc2cncs2)nc[nH]1

>  <smiles>  (172) 
[H]c1nc([H])c(C([H])([H])N([H])c2nc([H])[n+]([H])c([H])c2[H])s1

$$$$
53:1:2
     RDKit          3D

 22 23  0  0  1  0  0  0  0  0999 V2000
   -0.4414    2.3282    2.8474 C   0  0  0  0  0  0  0  0  0  0  0  0
    0.2000    3.3174    3.6320 C   0  0  0  0  0  0  0  0  0  0  0  0
   -0.5930    4.0728    4.5137 C   0  0  0  0  0  0  0  0  0  0  0  0
   -0.0203    5.0284    5.3924 N   0  0  0  0  0  0  0  0  0  0  0  0
   -0.1980    4.9877    6.8530 C   0  0  0  0  0  0  0  0  0  0  0  0
   -1.2194    4.0409    7.4818 C   0  0  0  0  0  0  0  0  0  0  0  0
   -1.4189    2.6941    7.2411 C   0  0  0  0  0  0  0  0  0  0  0  0
   -2.5250    2.1510    7.8879 N   0  0  0  0  0  0  0  0  0  0  0  0
   -3.0776    3.0193    8.7341 C   0  0  0  0  0  0  0  0  0  0  0  0
   -2.2667    4.5757    8.7812 S   0  0  0  0  0  0  0  0  0  0  0  0
   -1.9203    3.8979    4.5319 N   0  0  0  0  0  0  0  0  0  0  0  0
   -2.4728    2.9090    3.8314 C   0  0  0  0  0  0  0  0  0  0  0  0
   -1.7658    2.1375    3.0180 N   0  0  0  0  0  0  0  0  0  0  0  0
    0.9097    5.3390    5.1342 H   0  0  0  0  0  0  0  0  0  0  0  0
    0.0349    1.7240    2.0964 H   0  0  0  0  0  0  0  0  0  0  0  0
    1.2721    3.4343    3.5429 H   0  0  0  0  0  0  0  0  0  0  0  0
   -0.5090    5.9910    7.1333 H   0  0  0  0  0  0  0  0  0  0  0  0
    0.7622    4.8493    7.3478 H   0  0  0  0  0  0  0  0  0  0  0  0
   -0.8842    2.0864    6.5274 H   0  0  0  0  0  0  0  0  0  0  0  0
   -3.9555    2.7534    9.3141 H   0  0  0  0  0  0  0  0  0  0  0  0
   -3.5011    2.6466    4.0241 H   0  0  0  0  0  0  0  0  0  0  0  0
   -2.2597    1.3763    2.5250 H   0  0  0  0  0  0  0  0  0  0  0  0
  1  2  2  0
  1 15  1  0
  1 13  1  0
  2  3  1  0
  2 16  1  0
  3  4  1  0
  3 11  2  0
  4  5  1  0
  4 14  1  0
  5  6  1  0
  5 17  1  0
  5 18  1  0
  6 10  1  0
  6  7  2  0
  7  8  1  0
  7 19  1  0
  8  9  2  0
  9 10  1  0
  9 20  1  0
 11 12  1  0
 12 13  2  0
 12 21  1  0
 13 22  1  0
M  CHG  1  13   1
M  END
>  <i_m_ct_stereo_status>  (173) 
1

>  <s_m_source_file>  (173) 
/var/tmp/pbs.5076255.sched01/tmp7dp07en1/447ppmqug5.sdf

>  <i_m_source_file_index>  (173) 
32

>  <i_lp_mmshare_version>  (173) 
48012

>  <i_f3d_flags>  (173) 
0

>  <s_epik_input>  (173) 
bjFbY0hdW25IXVtjSF1bY0hdL2MxPU4vW0NIMl1jMltjSF1uW2NIXXMy

>  <s_epik_cmdline>  (173) 
J2VwaWtfcHl0aG9uJywgJy1waHQnLCAnMi4wJywgJy1waCcsICc3LjAnLCAnLXRuJywgJzgnLCAnLW1hJywgJzIwMCcsICctaW1hZScsICc8aW5maWxlLm1hZT4nLCAnLW9tYWUnLCAnPG91dGZpbGUubWFlPic=

>  <r_lp_tautomer_probability>  (173) 
0.999336

>  <r_epik_Ionization_Penalty>  (173) 
1.78538

>  <r_epik_Ionization_Penalty_Charging>  (173) 
1.78518

>  <r_epik_Ionization_Penalty_Neutral>  (173) 
0.000196312

>  <r_epik_State_Penalty>  (173) 
1.89766

>  <r_epik_Charging_Adjusted_Penalty>  (173) 
3.68284

>  <i_epik_Tot_Q>  (173) 
1

>  <i_epik_Tot_abs_Q>  (173) 
1

>  <s_lp_Force_Field>  (173) 
OPLS3e

>  <r_lp_Energy>  (173) 
20.3561

>  <b_lp_Chiralities_Consistent>  (173) 
1

>  <s_lp_Variant>  (173) 
53:0-2

>  <s_i_glide_gridfile>  (173) 
pfpi4k_grid

>  <i_i_glide_lignum>  (173) 
32

>  <i_i_glide_rotatable_bonds>  (173) 
3

>  <r_i_docking_score>  (173) 
-2.94628

>  <r_i_glide_ligand_efficiency>  (173) 
-0.226637

>  <r_i_glide_ligand_efficiency_sa>  (173) 
-0.532899

>  <r_i_glide_ligand_efficiency_ln>  (173) 
-0.826458

>  <r_i_glide_gscore>  (173) 
-2.94628

>  <r_i_glide_lipo>  (173) 
-0.05677

>  <r_i_glide_hbond>  (173) 
0

>  <r_i_glide_metal>  (173) 
-0

>  <r_i_glide_rewards>  (173) 
-2.09148

>  <r_i_glide_evdw>  (173) 
-14.3359

>  <r_i_glide_ecoul>  (173) 
-8.54554

>  <r_i_glide_erotb>  (173) 
1.29697

>  <r_i_glide_esite>  (173) 
-0.0963757

>  <r_i_glide_emodel>  (173) 
-25.376

>  <r_i_glide_energy>  (173) 
-22.8815

>  <r_i_glide_einternal>  (173) 
4.60254

>  <r_i_glide_intrahb_reward>  (173) 
-0

>  <i_i_glide_confnum>  (173) 
2

>  <i_i_glide_posenum>  (173) 
12

>  <r_i_glide_eff_state_penalty>  (173) 
0

>  <ligand_id>  (173) 
53

>  <original_smiles>  (173) 
c1cc(=NCc2cncs2)nc[nH]1

>  <smiles>  (173) 
[H]c1nc([H])c(C([H])([H])N([H])c2nc([H])[n+]([H])c([H])c2[H])s1

$$$$
54:0:0
     RDKit          3D

 83 89  0  0  1  0  0  0  0  0999 V2000
    1.7669    4.1113    6.0501 C   0  0  0  0  0  0  0  0  0  0  0  0
    1.4534    3.1870    7.2521 C   0  0  1  0  0  0  0  0  0  0  0  0
    1.0759    4.0924    8.4097 C   0  0  0  0  0  0  0  0  0  0  0  0
   -0.1908    4.4155    8.7234 C   0  0  0  0  0  0  0  0  0  0  0  0
   -1.3329    3.9047    7.9453 C   0  0  0  0  0  0  0  0  0  0  0  0
   -2.4667    4.3676    8.0967 O   0  0  0  0  0  0  0  0  0  0  0  0
   -1.1293    2.7607    6.9182 C   0  0  0  0  0  0  0  0  0  0  0  0
   -2.1784    1.6712    7.2577 C   0  0  0  0  0  0  0  0  0  0  0  0
   -1.4367    3.2754    5.4907 C   0  0  0  0  0  0  0  0  0  0  0  0
    0.3115    2.1528    7.0617 C   0  0  1  0  0  0  0  0  0  0  0  0
    0.7222    1.0651    6.0388 C   0  0  0  0  0  0  0  0  0  0  0  0
    2.0176    0.2945    6.4457 C   0  0  2  0  0  0  0  0  0  0  0  0
    1.7554   -0.5377    7.7283 C   0  0  0  0  0  0  0  0  0  0  0  0
    3.0960    1.3620    6.8023 C   0  0  1  0  0  0  0  0  0  0  0  0
    3.8882    1.8125    5.5764 C   0  0  0  0  0  0  0  0  0  0  0  0
    4.7072    0.6705    4.9691 C   0  0  0  0  0  0  0  0  0  0  0  0
    4.0273   -0.7463    4.9834 C   0  0  1  0  0  0  0  0  0  0  0  0
    4.7093   -1.5360    6.1477 C   0  0  0  0  0  0  0  0  0  0  0  0
    2.4751   -0.6098    5.2137 C   0  0  1  0  0  0  0  0  0  0  0  0
    1.7959   -2.0164    5.0950 C   0  0  1  0  0  0  0  0  0  0  0  0
    0.4093   -2.0189    5.3714 O   0  0  0  0  0  0  0  0  0  0  0  0
    1.9778   -2.6156    3.6813 C   0  0  1  0  0  0  0  0  0  0  0  0
    1.2435   -1.8012    2.7798 O   0  0  0  0  0  0  0  0  0  0  0  0
    3.4762   -2.7785    3.2661 C   0  0  1  0  0  0  0  0  0  0  0  0
    4.0551   -4.0704    3.8833 C   0  0  0  0  0  0  0  0  0  0  0  0
    3.6353   -2.8768    1.7469 C   0  0  0  0  0  0  0  0  0  0  0  0
    3.0051   -3.6793    0.8742 C   0  0  0  0  0  0  0  0  0  0  0  0
    3.1748   -3.5161   -0.6307 C   0  0  0  0  0  0  0  0  0  0  0  0
    4.2018   -2.4165   -1.0147 C   0  0  1  0  0  0  0  0  0  0  0  0
    4.0012   -1.8685   -2.4113 C   0  0  0  0  0  0  0  0  0  0  0  0
    4.0562   -0.5026   -2.7932 C   0  0  0  0  0  0  0  0  0  0  0  0
    3.8146   -0.4396   -4.1319 C   0  0  0  0  0  0  0  0  0  0  0  0
    3.6604   -1.6879   -4.6376 O   0  0  0  0  0  0  0  0  0  0  0  0
    3.7601   -2.5424   -3.5794 C   0  0  0  0  0  0  0  0  0  0  0  0
    4.1653   -1.3544   -0.0547 O   0  0  0  0  0  0  0  0  0  0  0  0
    4.5270   -1.7826    1.2489 C   0  0  1  0  0  0  0  0  0  0  0  0
    4.3686   -0.7053    2.3068 C   0  0  0  0  0  0  0  0  0  0  0  0
    4.3400   -1.5156    3.6309 C   0  0  1  0  0  0  0  0  0  0  0  0
    2.6276    2.4542    7.6159 O   0  0  0  0  0  0  0  0  0  0  0  0
    1.0776    4.9552    6.0116 H   0  0  0  0  0  0  0  0  0  0  0  0
    1.6980    3.6121    5.0856 H   0  0  0  0  0  0  0  0  0  0  0  0
    2.7687    4.5362    6.1466 H   0  0  0  0  0  0  0  0  0  0  0  0
    1.8994    4.4791    8.9953 H   0  0  0  0  0  0  0  0  0  0  0  0
   -0.4133    5.0645    9.5571 H   0  0  0  0  0  0  0  0  0  0  0  0
   -2.1388    0.8238    6.5699 H   0  0  0  0  0  0  0  0  0  0  0  0
   -3.1975    2.0607    7.2134 H   0  0  0  0  0  0  0  0  0  0  0  0
   -2.0248    1.2984    8.2739 H   0  0  0  0  0  0  0  0  0  0  0  0
   -1.3490    2.4818    4.7455 H   0  0  0  0  0  0  0  0  0  0  0  0
   -0.7717    4.0817    5.1925 H   0  0  0  0  0  0  0  0  0  0  0  0
   -2.4543    3.6649    5.4230 H   0  0  0  0  0  0  0  0  0  0  0  0
    0.2657    1.6313    8.0174 H   0  0  0  0  0  0  0  0  0  0  0  0
   -0.1026    0.3728    5.8883 H   0  0  0  0  0  0  0  0  0  0  0  0
    0.8761    1.5417    5.0705 H   0  0  0  0  0  0  0  0  0  0  0  0
    2.5075   -1.3106    7.8786 H   0  0  0  0  0  0  0  0  0  0  0  0
    0.7800   -1.0224    7.7091 H   0  0  0  0  0  0  0  0  0  0  0  0
    1.7734    0.0896    8.6212 H   0  0  0  0  0  0  0  0  0  0  0  0
    3.8215    0.9039    7.4720 H   0  0  0  0  0  0  0  0  0  0  0  0
    3.2130    2.1743    4.8055 H   0  0  0  0  0  0  0  0  0  0  0  0
    4.5536    2.6359    5.8323 H   0  0  0  0  0  0  0  0  0  0  0  0
    4.9576    1.0194    3.9745 H   0  0  0  0  0  0  0  0  0  0  0  0
    5.6727    0.6156    5.4693 H   0  0  0  0  0  0  0  0  0  0  0  0
    4.2768   -2.5090    6.3425 H   0  0  0  0  0  0  0  0  0  0  0  0
    4.6763   -1.0116    7.0983 H   0  0  0  0  0  0  0  0  0  0  0  0
    5.7661   -1.7142    5.9527 H   0  0  0  0  0  0  0  0  0  0  0  0
    2.1506   -0.0438    4.3386 H   0  0  0  0  0  0  0  0  0  0  0  0
    2.2269   -2.6989    5.8211 H   0  0  0  0  0  0  0  0  0  0  0  0
   -0.0036   -1.4732    4.7133 H   0  0  0  0  0  0  0  0  0  0  0  0
    1.5049   -3.5996    3.6488 H   0  0  0  0  0  0  0  0  0  0  0  0
    1.7402   -1.0104    2.6105 H   0  0  0  0  0  0  0  0  0  0  0  0
    3.9400   -4.1112    4.9636 H   0  0  0  0  0  0  0  0  0  0  0  0
    5.1169   -4.1882    3.6557 H   0  0  0  0  0  0  0  0  0  0  0  0
    3.5466   -4.9527    3.4884 H   0  0  0  0  0  0  0  0  0  0  0  0
    2.3148   -4.4315    1.2194 H   0  0  0  0  0  0  0  0  0  0  0  0
    3.4596   -4.4672   -1.0782 H   0  0  0  0  0  0  0  0  0  0  0  0
    2.1965   -3.2465   -1.0259 H   0  0  0  0  0  0  0  0  0  0  0  0
    5.2042   -2.8508   -1.0071 H   0  0  0  0  0  0  0  0  0  0  0  0
    4.2283    0.3465   -2.1557 H   0  0  0  0  0  0  0  0  0  0  0  0
    3.7365    0.3797   -4.8289 H   0  0  0  0  0  0  0  0  0  0  0  0
    3.6264   -3.5865   -3.8381 H   0  0  0  0  0  0  0  0  0  0  0  0
    5.5576   -2.1442    1.2498 H   0  0  0  0  0  0  0  0  0  0  0  0
    5.1967   -0.0050    2.2129 H   0  0  0  0  0  0  0  0  0  0  0  0
    3.4330   -0.1609    2.1631 H   0  0  0  0  0  0  0  0  0  0  0  0
    5.3726   -1.8584    3.7299 H   0  0  0  0  0  0  0  0  0  0  0  0
  2  1  1  6
  1 40  1  0
  1 41  1  0
  1 42  1  0
  2 10  1  0
  2 39  1  0
  2  3  1  0
  3  4  2  0
  3 43  1  0
  4  5  1  0
  4 44  1  0
  5  6  2  0
  5  7  1  0
  7  8  1  0
  7  9  1  0
  7 10  1  0
  8 45  1  0
  8 46  1  0
  8 47  1  0
  9 48  1  0
  9 49  1  0
  9 50  1  0
 10 11  1  0
 10 51  1  1
 11 12  1  0
 11 52  1  0
 11 53  1  0
 12 19  1  0
 12 13  1  1
 12 14  1  0
 13 54  1  0
 13 55  1  0
 13 56  1  0
 14 15  1  0
 14 39  1  0
 14 57  1  1
 15 16  1  0
 15 58  1  0
 15 59  1  0
 16 17  1  0
 16 60  1  0
 16 61  1  0
 17 38  1  0
 17 18  1  1
 17 19  1  0
 18 62  1  0
 18 63  1  0
 18 64  1  0
 19 20  1  0
 19 65  1  6
 20 21  1  0
 20 22  1  0
 20 66  1  1
 21 67  1  0
 22 23  1  0
 22 24  1  0
 22 68  1  1
 23 69  1  0
 24 38  1  0
 24 25  1  1
 24 26  1  0
 25 70  1  0
 25 71  1  0
 25 72  1  0
 26 36  1  0
 26 27  2  0
 27 28  1  0
 27 73  1  0
 28 29  1  0
 28 74  1  0
 28 75  1  0
 29 30  1  0
 29 35  1  0
 29 76  1  6
 30 34  2  0
 30 31  1  0
 31 32  2  0
 31 77  1  0
 32 33  1  0
 32 78  1  0
 33 34  1  0
 34 79  1  0
 35 36  1  0
 36 37  1  0
 36 80  1  6
 37 38  1  0
 37 81  1  0
 37 82  1  0
 38 83  1  1
M  END
>  <i_m_ct_stereo_status>  (174) 
1

>  <s_m_source_file>  (174) 
/var/tmp/pbs.5076255.sched01/tmp7dp07en1/447ppmqug5.sdf

>  <i_m_source_file_index>  (174) 
33

>  <i_lp_mmshare_version>  (174) 
48012

>  <i_f3d_flags>  (174) 
0

>  <s_epik_input>  (174) 
W0NIXTE9W0NIXUMoPU8pQyhbQ0gzXSkoW0NIM10pW0NASF0oW0NAQF0xMltDSDNdKVtDSDJdW0NAXTMoW0NIM10pW0NASF0oTzIpW0NIMl1bQ0gyXVtDQEBdNChbQ0gzXSlbQ0BIXTNbQ0BASF0oW09IXSlbQ0BASF0oW09IXSlbQ0BAXTUoW0NIM10pQz02W0NASF0oW0NIMl1bQ0BASF00NSlPW0NAQEhdKFtDSDJdW0NIXTYpYzdbY0hdW2NIXW9bY0hdNw==

>  <s_epik_cmdline>  (174) 
J2VwaWtfcHl0aG9uJywgJy1waHQnLCAnMi4wJywgJy1waCcsICc3LjAnLCAnLXRuJywgJzgnLCAnLW1hJywgJzIwMCcsICctaW1hZScsICc8aW5maWxlLm1hZT4nLCAnLW9tYWUnLCAnPG91dGZpbGUubWFlPic=

>  <r_lp_tautomer_probability>  (174) 
1

>  <r_epik_Ionization_Penalty>  (174) 
3.04568e-07

>  <r_epik_Ionization_Penalty_Charging>  (174) 
0

>  <r_epik_Ionization_Penalty_Neutral>  (174) 
3.04568e-07

>  <r_epik_State_Penalty>  (174) 
-0

>  <r_epik_Charging_Adjusted_Penalty>  (174) 
0

>  <i_epik_Tot_Q>  (174) 
0

>  <i_epik_Tot_abs_Q>  (174) 
0

>  <s_lp_Force_Field>  (174) 
OPLS3e

>  <r_lp_Energy>  (174) 
87.7866

>  <b_lp_Chiralities_Consistent>  (174) 
1

>  <s_lp_Variant>  (174) 
54:0-1

>  <s_i_glide_gridfile>  (174) 
pfpi4k_grid

>  <i_i_glide_lignum>  (174) 
33

>  <i_i_glide_rotatable_bonds>  (174) 
3

>  <r_i_docking_score>  (174) 
-2.87911

>  <r_i_glide_ligand_efficiency>  (174) 
-0.0738232

>  <r_i_glide_ligand_efficiency_sa>  (174) 
-0.25035

>  <r_i_glide_ligand_efficiency_ln>  (174) 
-0.617362

>  <r_i_glide_gscore>  (174) 
-2.87911

>  <r_i_glide_lipo>  (174) 
-0.874149

>  <r_i_glide_hbond>  (174) 
-0.32

>  <r_i_glide_metal>  (174) 
-0

>  <r_i_glide_rewards>  (174) 
-0.00236369

>  <r_i_glide_evdw>  (174) 
-34.0851

>  <r_i_glide_ecoul>  (174) 
-0.333557

>  <r_i_glide_erotb>  (174) 
0.0716971

>  <r_i_glide_esite>  (174) 
0

>  <r_i_glide_emodel>  (174) 
-40.8404

>  <r_i_glide_energy>  (174) 
-34.4187

>  <r_i_glide_einternal>  (174) 
0.202528

>  <r_i_glide_intrahb_reward>  (174) 
-0

>  <i_i_glide_confnum>  (174) 
2

>  <i_i_glide_posenum>  (174) 
2

>  <r_i_glide_eff_state_penalty>  (174) 
0

>  <ligand_id>  (174) 
54

>  <original_smiles>  (174) 
CC12C=CC(=O)C(C)(C)C1CC1(C)C(CCC3(C)C1C(O)C(O)C1(C)C4=CCC(c5ccoc5)OC4CC31)O2

>  <smiles>  (174) 
[H]OC1([H])C([H])(O[H])C2(C([H])([H])[H])C3=C([H])C([H])([H])C([H])(c4c([H])oc([H])c4[H])OC3([H])C([H])([H])C2([H])C2(C([H])([H])[H])C([H])([H])C([H])([H])C3([H])OC4(C([H])([H])[H])C([H])=C([H])C(=O)C(C([H])([H])[H])(C([H])([H])[H])C4([H])C([H])([H])C3(C([H])([H])[H])C12[H]

$$$$
54:0:1
     RDKit          3D

 83 89  0  0  1  0  0  0  0  0999 V2000
    1.8311    1.6921    2.5468 C   0  0  0  0  0  0  0  0  0  0  0  0
    1.9491    2.3899    3.9242 C   0  0  1  0  0  0  0  0  0  0  0  0
    2.0310    3.8790    3.6535 C   0  0  0  0  0  0  0  0  0  0  0  0
    0.9664    4.7049    3.6811 C   0  0  0  0  0  0  0  0  0  0  0  0
   -0.3976    4.1983    3.9364 C   0  0  0  0  0  0  0  0  0  0  0  0
   -1.3828    4.9009    3.7079 O   0  0  0  0  0  0  0  0  0  0  0  0
   -0.5968    2.7748    4.5245 C   0  0  0  0  0  0  0  0  0  0  0  0
   -1.4790    2.9285    5.7946 C   0  0  0  0  0  0  0  0  0  0  0  0
   -1.3786    1.9083    3.5055 C   0  0  0  0  0  0  0  0  0  0  0  0
    0.7874    2.1514    4.9302 C   0  0  1  0  0  0  0  0  0  0  0  0
    0.7824    0.6827    5.4213 C   0  0  0  0  0  0  0  0  0  0  0  0
    2.1189    0.2595    6.1092 C   0  0  2  0  0  0  0  0  0  0  0  0
    2.3151    1.0585    7.4271 C   0  0  0  0  0  0  0  0  0  0  0  0
    3.2801    0.6698    5.1512 C   0  0  1  0  0  0  0  0  0  0  0  0
    3.5916   -0.4165    4.1234 C   0  0  0  0  0  0  0  0  0  0  0  0
    4.1155   -1.6959    4.7839 C   0  0  0  0  0  0  0  0  0  0  0  0
    3.4528   -2.0818    6.1573 C   0  0  1  0  0  0  0  0  0  0  0  0
    4.4857   -1.6759    7.2593 C   0  0  0  0  0  0  0  0  0  0  0  0
    2.0882   -1.3191    6.3448 C   0  0  1  0  0  0  0  0  0  0  0  0
    1.3776   -1.8211    7.6457 C   0  0  1  0  0  0  0  0  0  0  0  0
    0.2029   -1.1109    7.9746 O   0  0  0  0  0  0  0  0  0  0  0  0
    1.0215   -3.3246    7.5757 C   0  0  1  0  0  0  0  0  0  0  0  0
    0.0322   -3.5101    6.5721 O   0  0  0  0  0  0  0  0  0  0  0  0
    2.2736   -4.2284    7.3452 C   0  0  1  0  0  0  0  0  0  0  0  0
    3.0056   -4.4668    8.6837 C   0  0  0  0  0  0  0  0  0  0  0  0
    1.8803   -5.5964    6.7777 C   0  0  0  0  0  0  0  0  0  0  0  0
    0.9612   -6.4717    7.2188 C   0  0  0  0  0  0  0  0  0  0  0  0
    0.6039   -7.7219    6.4214 C   0  0  0  0  0  0  0  0  0  0  0  0
    1.4514   -7.8905    5.1320 C   0  0  1  0  0  0  0  0  0  0  0  0
    0.7599   -8.7314    4.0830 C   0  0  0  0  0  0  0  0  0  0  0  0
   -0.4536   -8.4437    3.3967 C   0  0  0  0  0  0  0  0  0  0  0  0
   -0.6633   -9.4617    2.5136 C   0  0  0  0  0  0  0  0  0  0  0  0
    0.3297  -10.3829    2.6010 O   0  0  0  0  0  0  0  0  0  0  0  0
    1.1788   -9.9312    3.5597 C   0  0  0  0  0  0  0  0  0  0  0  0
    1.7553   -6.6034    4.5875 O   0  0  0  0  0  0  0  0  0  0  0  0
    2.5559   -5.8228    5.4632 C   0  0  1  0  0  0  0  0  0  0  0  0
    2.8094   -4.4133    4.9599 C   0  0  0  0  0  0  0  0  0  0  0  0
    3.2391   -3.6529    6.2425 C   0  0  1  0  0  0  0  0  0  0  0  0
    3.1575    1.9828    4.5756 O   0  0  0  0  0  0  0  0  0  0  0  0
    1.1932    2.2576    1.8656 H   0  0  0  0  0  0  0  0  0  0  0  0
    1.4103    0.6901    2.5970 H   0  0  0  0  0  0  0  0  0  0  0  0
    2.8093    1.6267    2.0653 H   0  0  0  0  0  0  0  0  0  0  0  0
    3.0144    4.2679    3.4214 H   0  0  0  0  0  0  0  0  0  0  0  0
    1.0719    5.7545    3.4544 H   0  0  0  0  0  0  0  0  0  0  0  0
   -1.7073    1.9721    6.2683 H   0  0  0  0  0  0  0  0  0  0  0  0
   -2.4374    3.3979    5.5670 H   0  0  0  0  0  0  0  0  0  0  0  0
   -0.9860    3.5563    6.5405 H   0  0  0  0  0  0  0  0  0  0  0  0
   -1.5827    0.9078    3.8910 H   0  0  0  0  0  0  0  0  0  0  0  0
   -0.8474    1.7971    2.5628 H   0  0  0  0  0  0  0  0  0  0  0  0
   -2.3444    2.3544    3.2615 H   0  0  0  0  0  0  0  0  0  0  0  0
    1.0722    2.7345    5.8048 H   0  0  0  0  0  0  0  0  0  0  0  0
   -0.0587    0.5239    6.0930 H   0  0  0  0  0  0  0  0  0  0  0  0
    0.5895    0.0330    4.5676 H   0  0  0  0  0  0  0  0  0  0  0  0
    3.0516    0.5964    8.0828 H   0  0  0  0  0  0  0  0  0  0  0  0
    1.3888    1.1720    7.9887 H   0  0  0  0  0  0  0  0  0  0  0  0
    2.6712    2.0712    7.2291 H   0  0  0  0  0  0  0  0  0  0  0  0
    4.1887    0.7884    5.7385 H   0  0  0  0  0  0  0  0  0  0  0  0
    2.6924   -0.6778    3.5726 H   0  0  0  0  0  0  0  0  0  0  0  0
    4.3194   -0.0580    3.3954 H   0  0  0  0  0  0  0  0  0  0  0  0
    3.9949   -2.4533    4.0179 H   0  0  0  0  0  0  0  0  0  0  0  0
    5.1959   -1.6261    4.9037 H   0  0  0  0  0  0  0  0  0  0  0  0
    4.1297   -1.7970    8.2749 H   0  0  0  0  0  0  0  0  0  0  0  0
    4.8060   -0.6405    7.1886 H   0  0  0  0  0  0  0  0  0  0  0  0
    5.3996   -2.2658    7.1936 H   0  0  0  0  0  0  0  0  0  0  0  0
    1.4838   -1.6967    5.5202 H   0  0  0  0  0  0  0  0  0  0  0  0
    2.0257   -1.6611    8.5037 H   0  0  0  0  0  0  0  0  0  0  0  0
    0.4704   -0.2261    8.1819 H   0  0  0  0  0  0  0  0  0  0  0  0
    0.5499   -3.6189    8.5156 H   0  0  0  0  0  0  0  0  0  0  0  0
    0.4286   -3.3237    5.7327 H   0  0  0  0  0  0  0  0  0  0  0  0
    3.2851   -3.5434    9.1846 H   0  0  0  0  0  0  0  0  0  0  0  0
    3.9129   -5.0576    8.5467 H   0  0  0  0  0  0  0  0  0  0  0  0
    2.3720   -5.0155    9.3830 H   0  0  0  0  0  0  0  0  0  0  0  0
    0.4142   -6.2828    8.1279 H   0  0  0  0  0  0  0  0  0  0  0  0
    0.6723   -8.6093    7.0518 H   0  0  0  0  0  0  0  0  0  0  0  0
   -0.4366   -7.6108    6.1258 H   0  0  0  0  0  0  0  0  0  0  0  0
    2.3877   -8.3936    5.3866 H   0  0  0  0  0  0  0  0  0  0  0  0
   -1.0930   -7.5819    3.5211 H   0  0  0  0  0  0  0  0  0  0  0  0
   -1.4186   -9.6816    1.7745 H   0  0  0  0  0  0  0  0  0  0  0  0
    2.0347  -10.5686    3.7253 H   0  0  0  0  0  0  0  0  0  0  0  0
    3.5086   -6.3238    5.6401 H   0  0  0  0  0  0  0  0  0  0  0  0
    3.5661   -4.4561    4.1771 H   0  0  0  0  0  0  0  0  0  0  0  0
    1.8976   -3.9833    4.5413 H   0  0  0  0  0  0  0  0  0  0  0  0
    4.2301   -4.0623    6.4499 H   0  0  0  0  0  0  0  0  0  0  0  0
  2  1  1  6
  1 40  1  0
  1 41  1  0
  1 42  1  0
  2 10  1  0
  2 39  1  0
  2  3  1  0
  3  4  2  0
  3 43  1  0
  4  5  1  0
  4 44  1  0
  5  6  2  0
  5  7  1  0
  7  8  1  0
  7  9  1  0
  7 10  1  0
  8 45  1  0
  8 46  1  0
  8 47  1  0
  9 48  1  0
  9 49  1  0
  9 50  1  0
 10 11  1  0
 10 51  1  1
 11 12  1  0
 11 52  1  0
 11 53  1  0
 12 19  1  0
 12 13  1  1
 12 14  1  0
 13 54  1  0
 13 55  1  0
 13 56  1  0
 14 15  1  0
 14 39  1  0
 14 57  1  1
 15 16  1  0
 15 58  1  0
 15 59  1  0
 16 17  1  0
 16 60  1  0
 16 61  1  0
 17 38  1  0
 17 18  1  1
 17 19  1  0
 18 62  1  0
 18 63  1  0
 18 64  1  0
 19 20  1  0
 19 65  1  6
 20 21  1  0
 20 22  1  0
 20 66  1  1
 21 67  1  0
 22 23  1  0
 22 24  1  0
 22 68  1  1
 23 69  1  0
 24 38  1  0
 24 25  1  1
 24 26  1  0
 25 70  1  0
 25 71  1  0
 25 72  1  0
 26 36  1  0
 26 27  2  0
 27 28  1  0
 27 73  1  0
 28 29  1  0
 28 74  1  0
 28 75  1  0
 29 30  1  0
 29 35  1  0
 29 76  1  1
 30 34  2  0
 30 31  1  0
 31 32  2  0
 31 77  1  0
 32 33  1  0
 32 78  1  0
 33 34  1  0
 34 79  1  0
 35 36  1  0
 36 37  1  0
 36 80  1  1
 37 38  1  0
 37 81  1  0
 37 82  1  0
 38 83  1  1
M  END
>  <i_m_ct_stereo_status>  (175) 
1

>  <s_m_source_file>  (175) 
/var/tmp/pbs.5076255.sched01/tmp7dp07en1/447ppmqug5.sdf

>  <i_m_source_file_index>  (175) 
33

>  <i_lp_mmshare_version>  (175) 
48012

>  <i_f3d_flags>  (175) 
0

>  <s_epik_input>  (175) 
W0NIXTE9W0NIXUMoPU8pQyhbQ0gzXSkoW0NIM10pW0NASF0oW0NAQF0xMltDSDNdKVtDSDJdW0NAXTMoW0NIM10pW0NASF0oTzIpW0NIMl1bQ0gyXVtDQEBdNChbQ0gzXSlbQ0BIXTNbQ0BASF0oW09IXSlbQ0BASF0oW09IXSlbQ0BAXTUoW0NIM10pQz02W0NASF0oW0NIMl1bQ0BASF00NSlPW0NAQEhdKFtDSDJdW0NIXTYpYzdbY0hdW2NIXW9bY0hdNw==

>  <s_epik_cmdline>  (175) 
J2VwaWtfcHl0aG9uJywgJy1waHQnLCAnMi4wJywgJy1waCcsICc3LjAnLCAnLXRuJywgJzgnLCAnLW1hJywgJzIwMCcsICctaW1hZScsICc8aW5maWxlLm1hZT4nLCAnLW9tYWUnLCAnPG91dGZpbGUubWFlPic=

>  <r_lp_tautomer_probability>  (175) 
1

>  <r_epik_Ionization_Penalty>  (175) 
3.04568e-07

>  <r_epik_Ionization_Penalty_Charging>  (175) 
0

>  <r_epik_Ionization_Penalty_Neutral>  (175) 
3.04568e-07

>  <r_epik_State_Penalty>  (175) 
-0

>  <r_epik_Charging_Adjusted_Penalty>  (175) 
0

>  <i_epik_Tot_Q>  (175) 
0

>  <i_epik_Tot_abs_Q>  (175) 
0

>  <s_lp_Force_Field>  (175) 
OPLS3e

>  <r_lp_Energy>  (175) 
87.7866

>  <b_lp_Chiralities_Consistent>  (175) 
1

>  <s_lp_Variant>  (175) 
54:0-1

>  <s_i_glide_gridfile>  (175) 
pfpi4k_grid

>  <i_i_glide_lignum>  (175) 
33

>  <i_i_glide_rotatable_bonds>  (175) 
3

>  <r_i_docking_score>  (175) 
-2.6817

>  <r_i_glide_ligand_efficiency>  (175) 
-0.0687614

>  <r_i_glide_ligand_efficiency_sa>  (175) 
-0.233185

>  <r_i_glide_ligand_efficiency_ln>  (175) 
-0.575032

>  <r_i_glide_gscore>  (175) 
-2.6817

>  <r_i_glide_lipo>  (175) 
-0.174697

>  <r_i_glide_hbond>  (175) 
-0.158823

>  <r_i_glide_metal>  (175) 
-0

>  <r_i_glide_rewards>  (175) 
0

>  <r_i_glide_evdw>  (175) 
-29.3416

>  <r_i_glide_ecoul>  (175) 
-5.75819

>  <r_i_glide_erotb>  (175) 
0.0716971

>  <r_i_glide_esite>  (175) 
-0.0890611

>  <r_i_glide_emodel>  (175) 
-40.8538

>  <r_i_glide_energy>  (175) 
-35.0998

>  <r_i_glide_einternal>  (175) 
0.630695

>  <r_i_glide_intrahb_reward>  (175) 
-0

>  <i_i_glide_confnum>  (175) 
2

>  <i_i_glide_posenum>  (175) 
9

>  <r_i_glide_eff_state_penalty>  (175) 
0

>  <ligand_id>  (175) 
54

>  <original_smiles>  (175) 
CC12C=CC(=O)C(C)(C)C1CC1(C)C(CCC3(C)C1C(O)C(O)C1(C)C4=CCC(c5ccoc5)OC4CC31)O2

>  <smiles>  (175) 
[H]OC1([H])C([H])(O[H])C2(C([H])([H])[H])C3=C([H])C([H])([H])C([H])(c4c([H])oc([H])c4[H])OC3([H])C([H])([H])C2([H])C2(C([H])([H])[H])C([H])([H])C([H])([H])C3([H])OC4(C([H])([H])[H])C([H])=C([H])C(=O)C(C([H])([H])[H])(C([H])([H])[H])C4([H])C([H])([H])C3(C([H])([H])[H])C12[H]

$$$$
54:0:2
     RDKit          3D

 83 89  0  0  1  0  0  0  0  0999 V2000
    1.6211    3.9623    5.7026 C   0  0  0  0  0  0  0  0  0  0  0  0
    1.4164    3.1708    7.0188 C   0  0  1  0  0  0  0  0  0  0  0  0
    0.9768    4.1738    8.0662 C   0  0  0  0  0  0  0  0  0  0  0  0
   -0.3075    4.4191    8.3763 C   0  0  0  0  0  0  0  0  0  0  0  0
   -1.4120    3.7200    7.6912 C   0  0  0  0  0  0  0  0  0  0  0  0
   -2.5818    4.1014    7.8088 O   0  0  0  0  0  0  0  0  0  0  0  0
   -1.1210    2.4817    6.8085 C   0  0  0  0  0  0  0  0  0  0  0  0
   -2.0571    1.3525    7.2993 C   0  0  0  0  0  0  0  0  0  0  0  0
   -1.5024    2.7879    5.3417 C   0  0  0  0  0  0  0  0  0  0  0  0
    0.3710    2.0245    6.9862 C   0  0  1  0  0  0  0  0  0  0  0  0
    0.8557    0.8578    6.0918 C   0  0  0  0  0  0  0  0  0  0  0  0
    2.2237    0.2590    6.5490 C   0  0  2  0  0  0  0  0  0  0  0  0
    2.0599   -0.4278    7.9313 C   0  0  0  0  0  0  0  0  0  0  0  0
    3.2063    1.4526    6.7419 C   0  0  1  0  0  0  0  0  0  0  0  0
    3.9299    1.8154    5.4474 C   0  0  0  0  0  0  0  0  0  0  0  0
    4.8353    0.6826    4.9544 C   0  0  0  0  0  0  0  0  0  0  0  0
    4.2854   -0.7739    5.1633 C   0  0  1  0  0  0  0  0  0  0  0  0
    5.0599   -1.3527    6.3922 C   0  0  0  0  0  0  0  0  0  0  0  0
    2.7342   -0.7460    5.4209 C   0  0  1  0  0  0  0  0  0  0  0  0
    2.1793   -2.2095    5.4938 C   0  0  1  0  0  0  0  0  0  0  0  0
    0.8035   -2.2957    5.8119 O   0  0  0  0  0  0  0  0  0  0  0  0
    2.3825   -2.9637    4.1571 C   0  0  1  0  0  0  0  0  0  0  0  0
    1.5560   -2.3376    3.1857 O   0  0  0  0  0  0  0  0  0  0  0  0
    3.8815   -3.0436    3.7215 C   0  0  1  0  0  0  0  0  0  0  0  0
    4.5901   -4.1929    4.4726 C   0  0  0  0  0  0  0  0  0  0  0  0
    4.0210   -3.3128    2.2209 C   0  0  0  0  0  0  0  0  0  0  0  0
    3.4451   -4.2662    1.4716 C   0  0  0  0  0  0  0  0  0  0  0  0
    3.5835   -4.2757   -0.0499 C   0  0  0  0  0  0  0  0  0  0  0  0
    4.5030   -3.1445   -0.5902 C   0  0  1  0  0  0  0  0  0  0  0  0
    4.2157   -2.7804   -2.0284 C   0  0  0  0  0  0  0  0  0  0  0  0
    3.4272   -1.6859   -2.4926 C   0  0  0  0  0  0  0  0  0  0  0  0
    3.4630   -1.7232   -3.8547 C   0  0  0  0  0  0  0  0  0  0  0  0
    4.2049   -2.7731   -4.2907 O   0  0  0  0  0  0  0  0  0  0  0  0
    4.6474   -3.4053   -3.1677 C   0  0  0  0  0  0  0  0  0  0  0  0
    4.3826   -1.9866    0.2377 O   0  0  0  0  0  0  0  0  0  0  0  0
    4.8031   -2.2188    1.5706 C   0  0  1  0  0  0  0  0  0  0  0  0
    4.5696   -1.0335    2.4920 C   0  0  0  0  0  0  0  0  0  0  0  0
    4.6358   -1.6753    3.9062 C   0  0  1  0  0  0  0  0  0  0  0  0
    2.6591    2.5926    7.4306 O   0  0  0  0  0  0  0  0  0  0  0  0
    0.8574    4.7324    5.5828 H   0  0  0  0  0  0  0  0  0  0  0  0
    1.5778    3.3439    4.8073 H   0  0  0  0  0  0  0  0  0  0  0  0
    2.5825    4.4824    5.7154 H   0  0  0  0  0  0  0  0  0  0  0  0
    1.7736    4.7019    8.5750 H   0  0  0  0  0  0  0  0  0  0  0  0
   -0.5715    5.1437    9.1288 H   0  0  0  0  0  0  0  0  0  0  0  0
   -1.9529    0.4394    6.7141 H   0  0  0  0  0  0  0  0  0  0  0  0
   -3.1062    1.6485    7.2421 H   0  0  0  0  0  0  0  0  0  0  0  0
   -1.8532    1.1206    8.3499 H   0  0  0  0  0  0  0  0  0  0  0  0
   -1.3609    1.9208    4.6961 H   0  0  0  0  0  0  0  0  0  0  0  0
   -0.9198    3.6090    4.9293 H   0  0  0  0  0  0  0  0  0  0  0  0
   -2.5518    3.0767    5.2621 H   0  0  0  0  0  0  0  0  0  0  0  0
    0.3893    1.6214    8.0004 H   0  0  0  0  0  0  0  0  0  0  0  0
    0.0950    0.0841    6.0515 H   0  0  0  0  0  0  0  0  0  0  0  0
    0.9459    1.2239    5.0676 H   0  0  0  0  0  0  0  0  0  0  0  0
    2.8809   -1.1079    8.1510 H   0  0  0  0  0  0  0  0  0  0  0  0
    1.1312   -0.9939    8.0009 H   0  0  0  0  0  0  0  0  0  0  0  0
    2.0387    0.3043    8.7409 H   0  0  0  0  0  0  0  0  0  0  0  0
    3.9837    1.1453    7.4395 H   0  0  0  0  0  0  0  0  0  0  0  0
    3.2094    2.0203    4.6582 H   0  0  0  0  0  0  0  0  0  0  0  0
    4.5237    2.7203    5.5803 H   0  0  0  0  0  0  0  0  0  0  0  0
    5.0343    0.9316    3.9211 H   0  0  0  0  0  0  0  0  0  0  0  0
    5.8138    0.7749    5.4293 H   0  0  0  0  0  0  0  0  0  0  0  0
    4.7205   -2.3281    6.7181 H   0  0  0  0  0  0  0  0  0  0  0  0
    4.9986   -0.7199    7.2742 H   0  0  0  0  0  0  0  0  0  0  0  0
    6.1243   -1.4611    6.1895 H   0  0  0  0  0  0  0  0  0  0  0  0
    2.3429   -0.3234    4.4962 H   0  0  0  0  0  0  0  0  0  0  0  0
    2.6856   -2.7584    6.2832 H   0  0  0  0  0  0  0  0  0  0  0  0
    0.3312   -1.8964    5.0975 H   0  0  0  0  0  0  0  0  0  0  0  0
    2.0054   -3.9822    4.2619 H   0  0  0  0  0  0  0  0  0  0  0  0
    1.9326   -1.4996    2.9636 H   0  0  0  0  0  0  0  0  0  0  0  0
    4.5019   -4.1101    5.5530 H   0  0  0  0  0  0  0  0  0  0  0  0
    5.6537   -4.2450    4.2291 H   0  0  0  0  0  0  0  0  0  0  0  0
    4.1574   -5.1590    4.2044 H   0  0  0  0  0  0  0  0  0  0  0  0
    2.8293   -5.0286    1.9217 H   0  0  0  0  0  0  0  0  0  0  0  0
    3.9364   -5.2531   -0.3850 H   0  0  0  0  0  0  0  0  0  0  0  0
    2.5791   -4.1440   -0.4518 H   0  0  0  0  0  0  0  0  0  0  0  0
    5.5397   -3.4860   -0.5529 H   0  0  0  0  0  0  0  0  0  0  0  0
    2.9081   -0.9582   -1.8976 H   0  0  0  0  0  0  0  0  0  0  0  0
    3.0261   -1.1027   -4.6225 H   0  0  0  0  0  0  0  0  0  0  0  0
    5.2682   -4.2699   -3.3595 H   0  0  0  0  0  0  0  0  0  0  0  0
    5.8635   -2.4843    1.5838 H   0  0  0  0  0  0  0  0  0  0  0  0
    5.3297   -0.2808    2.2902 H   0  0  0  0  0  0  0  0  0  0  0  0
    3.5851   -0.5950    2.3116 H   0  0  0  0  0  0  0  0  0  0  0  0
    5.6960   -1.9147    4.0107 H   0  0  0  0  0  0  0  0  0  0  0  0
  2  1  1  6
  1 40  1  0
  1 41  1  0
  1 42  1  0
  2 10  1  0
  2 39  1  0
  2  3  1  0
  3  4  2  0
  3 43  1  0
  4  5  1  0
  4 44  1  0
  5  6  2  0
  5  7  1  0
  7  8  1  0
  7  9  1  0
  7 10  1  0
  8 45  1  0
  8 46  1  0
  8 47  1  0
  9 48  1  0
  9 49  1  0
  9 50  1  0
 10 11  1  0
 10 51  1  1
 11 12  1  0
 11 52  1  0
 11 53  1  0
 12 19  1  0
 12 13  1  1
 12 14  1  0
 13 54  1  0
 13 55  1  0
 13 56  1  0
 14 15  1  0
 14 39  1  0
 14 57  1  1
 15 16  1  0
 15 58  1  0
 15 59  1  0
 16 17  1  0
 16 60  1  0
 16 61  1  0
 17 38  1  0
 17 18  1  1
 17 19  1  0
 18 62  1  0
 18 63  1  0
 18 64  1  0
 19 20  1  0
 19 65  1  6
 20 21  1  0
 20 22  1  0
 20 66  1  1
 21 67  1  0
 22 23  1  0
 22 24  1  0
 22 68  1  1
 23 69  1  0
 24 38  1  0
 24 25  1  1
 24 26  1  0
 25 70  1  0
 25 71  1  0
 25 72  1  0
 26 36  1  0
 26 27  2  0
 27 28  1  0
 27 73  1  0
 28 29  1  0
 28 74  1  0
 28 75  1  0
 29 30  1  0
 29 35  1  0
 29 76  1  6
 30 34  2  0
 30 31  1  0
 31 32  2  0
 31 77  1  0
 32 33  1  0
 32 78  1  0
 33 34  1  0
 34 79  1  0
 35 36  1  0
 36 37  1  0
 36 80  1  6
 37 38  1  0
 37 81  1  0
 37 82  1  0
 38 83  1  1
M  END
>  <i_m_ct_stereo_status>  (176) 
1

>  <s_m_source_file>  (176) 
/var/tmp/pbs.5076255.sched01/tmp7dp07en1/447ppmqug5.sdf

>  <i_m_source_file_index>  (176) 
33

>  <i_lp_mmshare_version>  (176) 
48012

>  <i_f3d_flags>  (176) 
0

>  <s_epik_input>  (176) 
W0NIXTE9W0NIXUMoPU8pQyhbQ0gzXSkoW0NIM10pW0NASF0oW0NAQF0xMltDSDNdKVtDSDJdW0NAXTMoW0NIM10pW0NASF0oTzIpW0NIMl1bQ0gyXVtDQEBdNChbQ0gzXSlbQ0BIXTNbQ0BASF0oW09IXSlbQ0BASF0oW09IXSlbQ0BAXTUoW0NIM10pQz02W0NASF0oW0NIMl1bQ0BASF00NSlPW0NAQEhdKFtDSDJdW0NIXTYpYzdbY0hdW2NIXW9bY0hdNw==

>  <s_epik_cmdline>  (176) 
J2VwaWtfcHl0aG9uJywgJy1waHQnLCAnMi4wJywgJy1waCcsICc3LjAnLCAnLXRuJywgJzgnLCAnLW1hJywgJzIwMCcsICctaW1hZScsICc8aW5maWxlLm1hZT4nLCAnLW9tYWUnLCAnPG91dGZpbGUubWFlPic=

>  <r_lp_tautomer_probability>  (176) 
1

>  <r_epik_Ionization_Penalty>  (176) 
3.04568e-07

>  <r_epik_Ionization_Penalty_Charging>  (176) 
0

>  <r_epik_Ionization_Penalty_Neutral>  (176) 
3.04568e-07

>  <r_epik_State_Penalty>  (176) 
-0

>  <r_epik_Charging_Adjusted_Penalty>  (176) 
0

>  <i_epik_Tot_Q>  (176) 
0

>  <i_epik_Tot_abs_Q>  (176) 
0

>  <s_lp_Force_Field>  (176) 
OPLS3e

>  <r_lp_Energy>  (176) 
87.7866

>  <b_lp_Chiralities_Consistent>  (176) 
1

>  <s_lp_Variant>  (176) 
54:0-1

>  <s_i_glide_gridfile>  (176) 
pfpi4k_grid

>  <i_i_glide_lignum>  (176) 
33

>  <i_i_glide_rotatable_bonds>  (176) 
3

>  <r_i_docking_score>  (176) 
-2.54971

>  <r_i_glide_ligand_efficiency>  (176) 
-0.0653773

>  <r_i_glide_ligand_efficiency_sa>  (176) 
-0.221708

>  <r_i_glide_ligand_efficiency_ln>  (176) 
-0.546731

>  <r_i_glide_gscore>  (176) 
-2.54971

>  <r_i_glide_lipo>  (176) 
-0.519787

>  <r_i_glide_hbond>  (176) 
-0.272671

>  <r_i_glide_metal>  (176) 
-0

>  <r_i_glide_rewards>  (176) 
-0.0213214

>  <r_i_glide_evdw>  (176) 
-33.1753

>  <r_i_glide_ecoul>  (176) 
-0.992455

>  <r_i_glide_erotb>  (176) 
0.0716971

>  <r_i_glide_esite>  (176) 
0

>  <r_i_glide_emodel>  (176) 
-39.8405

>  <r_i_glide_energy>  (176) 
-34.1677

>  <r_i_glide_einternal>  (176) 
0.0902838

>  <r_i_glide_intrahb_reward>  (176) 
-0

>  <i_i_glide_confnum>  (176) 
2

>  <i_i_glide_posenum>  (176) 
17

>  <r_i_glide_eff_state_penalty>  (176) 
0

>  <ligand_id>  (176) 
54

>  <original_smiles>  (176) 
CC12C=CC(=O)C(C)(C)C1CC1(C)C(CCC3(C)C1C(O)C(O)C1(C)C4=CCC(c5ccoc5)OC4CC31)O2

>  <smiles>  (176) 
[H]OC1([H])C([H])(O[H])C2(C([H])([H])[H])C3=C([H])C([H])([H])C([H])(c4c([H])oc([H])c4[H])OC3([H])C([H])([H])C2([H])C2(C([H])([H])[H])C([H])([H])C([H])([H])C3([H])OC4(C([H])([H])[H])C([H])=C([H])C(=O)C(C([H])([H])[H])(C([H])([H])[H])C4([H])C([H])([H])C3(C([H])([H])[H])C12[H]

$$$$
55:0:0
     RDKit          3D

 29 31  0  0  1  0  0  0  0  0999 V2000
    2.6145   -1.8849   -2.3371 N   0  0  0  0  0  0  0  0  0  0  0  0
    3.6864   -2.3379   -1.4480 C   0  0  1  0  0  0  0  0  0  0  0  0
    4.8338   -2.9596   -2.2745 C   0  0  0  0  0  0  0  0  0  0  0  0
    5.9486   -3.4241   -1.3184 C   0  0  2  0  0  0  0  0  0  0  0  0
    5.3993   -4.4847   -0.3433 C   0  0  0  0  0  0  0  0  0  0  0  0
    4.2503   -3.8689    0.4803 C   0  0  1  0  0  0  0  0  0  0  0  0
    4.7775   -2.6605    1.2828 C   0  0  0  0  0  0  0  0  0  0  0  0
    5.3395   -1.6052    0.3111 C   0  0  1  0  0  0  0  0  0  0  0  0
    6.4786   -2.2252   -0.5155 C   0  0  0  0  0  0  0  0  0  0  0  0
    4.2213   -1.1332   -0.6374 C   0  0  0  0  0  0  0  0  0  0  0  0
    3.1272   -3.4023   -0.4725 C   0  0  0  0  0  0  0  0  0  0  0  0
    1.8733   -1.4774   -1.7497 H   0  0  0  0  0  0  0  0  0  0  0  0
    2.2402   -2.6677   -2.8579 H   0  0  0  0  0  0  0  0  0  0  0  0
    4.4771   -3.8096   -2.8560 H   0  0  0  0  0  0  0  0  0  0  0  0
    5.2337   -2.2393   -2.9885 H   0  0  0  0  0  0  0  0  0  0  0  0
    6.7635   -3.8428   -1.9082 H   0  0  0  0  0  0  0  0  0  0  0  0
    5.0435   -5.3539   -0.8964 H   0  0  0  0  0  0  0  0  0  0  0  0
    6.1941   -4.8378    0.3167 H   0  0  0  0  0  0  0  0  0  0  0  0
    3.8647   -4.6210    1.1696 H   0  0  0  0  0  0  0  0  0  0  0  0
    3.9742   -2.2292    1.8786 H   0  0  0  0  0  0  0  0  0  0  0  0
    5.5497   -2.9860    1.9818 H   0  0  0  0  0  0  0  0  0  0  0  0
    5.7206   -0.7565    0.8766 H   0  0  0  0  0  0  0  0  0  0  0  0
    7.3072   -2.5229    0.1296 H   0  0  0  0  0  0  0  0  0  0  0  0
    6.8603   -1.4834   -1.2093 H   0  0  0  0  0  0  0  0  0  0  0  0
    4.6062   -0.3565   -1.2993 H   0  0  0  0  0  0  0  0  0  0  0  0
    3.4214   -0.6735   -0.0563 H   0  0  0  0  0  0  0  0  0  0  0  0
    2.2986   -2.9959    0.1070 H   0  0  0  0  0  0  0  0  0  0  0  0
    2.7322   -4.2559   -1.0231 H   0  0  0  0  0  0  0  0  0  0  0  0
    2.9536   -1.1771   -2.9748 H   0  0  0  0  0  0  0  0  0  0  0  0
  2  1  1  6
  1 12  1  0
  1 13  1  0
  1 29  1  0
  2 10  1  0
  2 11  1  0
  2  3  1  0
  3  4  1  0
  3 14  1  0
  3 15  1  0
  4  9  1  0
  4  5  1  0
  4 16  1  6
  5  6  1  0
  5 17  1  0
  5 18  1  0
  6  7  1  0
  6 11  1  0
  6 19  1  1
  7  8  1  0
  7 20  1  0
  7 21  1  0
  8  9  1  0
  8 10  1  0
  8 22  1  1
  9 23  1  0
  9 24  1  0
 10 25  1  0
 10 26  1  0
 11 27  1  0
 11 28  1  0
M  CHG  1   1   1
M  END
>  <i_m_ct_stereo_status>  (177) 
1

>  <s_m_source_file>  (177) 
/var/tmp/pbs.5076255.sched01/tmp7dp07en1/447ppmqug5.sdf

>  <i_m_source_file_index>  (177) 
34

>  <i_lp_mmshare_version>  (177) 
48012

>  <i_f3d_flags>  (177) 
0

>  <s_epik_input>  (177) 
W05IMl1DMTJbQ0gyXVtDQEhdM1tDSDJdW0NAQEhdKFtDSDJdMilbQ0gyXVtDQEhdKFtDSDJdMylbQ0gyXTE=

>  <s_epik_cmdline>  (177) 
J2VwaWtfcHl0aG9uJywgJy1waHQnLCAnMi4wJywgJy1waCcsICc3LjAnLCAnLXRuJywgJzgnLCAnLW1hJywgJzIwMCcsICctaW1hZScsICc8aW5maWxlLm1hZT4nLCAnLW9tYWUnLCAnPG91dGZpbGUubWFlPic=

>  <r_lp_tautomer_probability>  (177) 
1

>  <r_epik_Ionization_Penalty>  (177) 
7.35582e-05

>  <r_epik_Ionization_Penalty_Charging>  (177) 
7.35582e-05

>  <r_epik_Ionization_Penalty_Neutral>  (177) 
0

>  <r_epik_State_Penalty>  (177) 
-0

>  <r_epik_Charging_Adjusted_Penalty>  (177) 
7.35582e-05

>  <i_epik_Tot_Q>  (177) 
1

>  <i_epik_Tot_abs_Q>  (177) 
1

>  <s_lp_Force_Field>  (177) 
OPLS3e

>  <r_lp_Energy>  (177) 
5.13462

>  <b_lp_Chiralities_Consistent>  (177) 
1

>  <s_lp_Variant>  (177) 
55:0-1

>  <s_i_glide_gridfile>  (177) 
pfpi4k_grid

>  <i_i_glide_lignum>  (177) 
34

>  <i_i_glide_rotatable_bonds>  (177) 
0

>  <r_i_docking_score>  (177) 
-4.59908

>  <r_i_glide_ligand_efficiency>  (177) 
-0.418098

>  <r_i_glide_ligand_efficiency_sa>  (177) 
-0.929842

>  <r_i_glide_ligand_efficiency_ln>  (177) 
-1.35351

>  <r_i_glide_gscore>  (177) 
-4.59908

>  <r_i_glide_lipo>  (177) 
-0.420052

>  <r_i_glide_hbond>  (177) 
-0.2

>  <r_i_glide_metal>  (177) 
-0

>  <r_i_glide_rewards>  (177) 
-2.25

>  <r_i_glide_evdw>  (177) 
-13.6599

>  <r_i_glide_ecoul>  (177) 
-6.50086

>  <r_i_glide_erotb>  (177) 
0

>  <r_i_glide_esite>  (177) 
-0.0709002

>  <r_i_glide_emodel>  (177) 
-27.5304

>  <r_i_glide_energy>  (177) 
-20.1608

>  <r_i_glide_einternal>  (177) 
0

>  <r_i_glide_intrahb_reward>  (177) 
-0

>  <i_i_glide_confnum>  (177) 
1

>  <i_i_glide_posenum>  (177) 
18

>  <r_i_glide_eff_state_penalty>  (177) 
0

>  <ligand_id>  (177) 
55

>  <original_smiles>  (177) 
NC12CC3CC(CC(C3)C1)C2

>  <smiles>  (177) 
[H]C1([H])C2([H])C([H])([H])C3([H])C([H])([H])C1([H])C([H])([H])C([N+]([H])([H])[H])(C2([H])[H])C3([H])[H]

$$$$
55:0:1
     RDKit          3D

 29 31  0  0  1  0  0  0  0  0999 V2000
    2.2138   -3.0975   -1.6566 N   0  0  0  0  0  0  0  0  0  0  0  0
    3.4905   -2.7500   -1.0213 C   0  0  1  0  0  0  0  0  0  0  0  0
    3.2712   -2.4293    0.4826 C   0  0  0  0  0  0  0  0  0  0  0  0
    4.6119   -2.0549    1.1414 C   0  0  2  0  0  0  0  0  0  0  0  0
    5.1993   -0.8163    0.4312 C   0  0  0  0  0  0  0  0  0  0  0  0
    5.4140   -1.1374   -1.0627 C   0  0  1  0  0  0  0  0  0  0  0  0
    6.3989   -2.3174   -1.1964 C   0  0  0  0  0  0  0  0  0  0  0  0
    5.8162   -3.5511   -0.4774 C   0  0  1  0  0  0  0  0  0  0  0  0
    5.5875   -3.2418    1.0119 C   0  0  0  0  0  0  0  0  0  0  0  0
    4.4817   -3.9308   -1.1386 C   0  0  0  0  0  0  0  0  0  0  0  0
    4.0769   -1.5058   -1.7213 C   0  0  0  0  0  0  0  0  0  0  0  0
    2.3363   -3.2722   -2.6418 H   0  0  0  0  0  0  0  0  0  0  0  0
    1.5784   -2.3119   -1.5152 H   0  0  0  0  0  0  0  0  0  0  0  0
    2.5761   -1.5961    0.6004 H   0  0  0  0  0  0  0  0  0  0  0  0
    2.8255   -3.2821    1.0025 H   0  0  0  0  0  0  0  0  0  0  0  0
    4.4467   -1.8275    2.1960 H   0  0  0  0  0  0  0  0  0  0  0  0
    4.5300    0.0381    0.5399 H   0  0  0  0  0  0  0  0  0  0  0  0
    6.1453   -0.5338    0.8946 H   0  0  0  0  0  0  0  0  0  0  0  0
    5.8173   -0.2592   -1.5625 H   0  0  0  0  0  0  0  0  0  0  0  0
    6.5746   -2.5539   -2.2467 H   0  0  0  0  0  0  0  0  0  0  0  0
    7.3652   -2.0647   -0.7577 H   0  0  0  0  0  0  0  0  0  0  0  0
    6.5136   -4.3832   -0.5645 H   0  0  0  0  0  0  0  0  0  0  0  0
    6.5364   -3.0097    1.4955 H   0  0  0  0  0  0  0  0  0  0  0  0
    5.1805   -4.1156    1.5202 H   0  0  0  0  0  0  0  0  0  0  0  0
    4.0789   -4.8260   -0.6603 H   0  0  0  0  0  0  0  0  0  0  0  0
    4.6468   -4.1914   -2.1885 H   0  0  0  0  0  0  0  0  0  0  0  0
    4.2221   -1.6973   -2.7835 H   0  0  0  0  0  0  0  0  0  0  0  0
    3.3837   -0.6676   -1.6573 H   0  0  0  0  0  0  0  0  0  0  0  0
    1.8426   -3.9325   -1.2254 H   0  0  0  0  0  0  0  0  0  0  0  0
  2  1  1  6
  1 12  1  0
  1 13  1  0
  1 29  1  0
  2 10  1  0
  2 11  1  0
  2  3  1  0
  3  4  1  0
  3 14  1  0
  3 15  1  0
  4  9  1  0
  4  5  1  0
  4 16  1  1
  5  6  1  0
  5 17  1  0
  5 18  1  0
  6  7  1  0
  6 11  1  0
  6 19  1  6
  7  8  1  0
  7 20  1  0
  7 21  1  0
  8  9  1  0
  8 10  1  0
  8 22  1  1
  9 23  1  0
  9 24  1  0
 10 25  1  0
 10 26  1  0
 11 27  1  0
 11 28  1  0
M  CHG  1   1   1
M  END
>  <i_m_ct_stereo_status>  (178) 
1

>  <s_m_source_file>  (178) 
/var/tmp/pbs.5076255.sched01/tmp7dp07en1/447ppmqug5.sdf

>  <i_m_source_file_index>  (178) 
34

>  <i_lp_mmshare_version>  (178) 
48012

>  <i_f3d_flags>  (178) 
0

>  <s_epik_input>  (178) 
W05IMl1DMTJbQ0gyXVtDQEhdM1tDSDJdW0NAQEhdKFtDSDJdMilbQ0gyXVtDQEhdKFtDSDJdMylbQ0gyXTE=

>  <s_epik_cmdline>  (178) 
J2VwaWtfcHl0aG9uJywgJy1waHQnLCAnMi4wJywgJy1waCcsICc3LjAnLCAnLXRuJywgJzgnLCAnLW1hJywgJzIwMCcsICctaW1hZScsICc8aW5maWxlLm1hZT4nLCAnLW9tYWUnLCAnPG91dGZpbGUubWFlPic=

>  <r_lp_tautomer_probability>  (178) 
1

>  <r_epik_Ionization_Penalty>  (178) 
7.35582e-05

>  <r_epik_Ionization_Penalty_Charging>  (178) 
7.35582e-05

>  <r_epik_Ionization_Penalty_Neutral>  (178) 
0

>  <r_epik_State_Penalty>  (178) 
-0

>  <r_epik_Charging_Adjusted_Penalty>  (178) 
7.35582e-05

>  <i_epik_Tot_Q>  (178) 
1

>  <i_epik_Tot_abs_Q>  (178) 
1

>  <s_lp_Force_Field>  (178) 
OPLS3e

>  <r_lp_Energy>  (178) 
5.13462

>  <b_lp_Chiralities_Consistent>  (178) 
1

>  <s_lp_Variant>  (178) 
55:0-1

>  <s_i_glide_gridfile>  (178) 
pfpi4k_grid

>  <i_i_glide_lignum>  (178) 
34

>  <i_i_glide_rotatable_bonds>  (178) 
0

>  <r_i_docking_score>  (178) 
-4.34956

>  <r_i_glide_ligand_efficiency>  (178) 
-0.395415

>  <r_i_glide_ligand_efficiency_sa>  (178) 
-0.879394

>  <r_i_glide_ligand_efficiency_ln>  (178) 
-1.28007

>  <r_i_glide_gscore>  (178) 
-4.34956

>  <r_i_glide_lipo>  (178) 
-0.274227

>  <r_i_glide_hbond>  (178) 
-0.2

>  <r_i_glide_metal>  (178) 
-0

>  <r_i_glide_rewards>  (178) 
-2.25

>  <r_i_glide_evdw>  (178) 
-13.7433

>  <r_i_glide_ecoul>  (178) 
-6.25444

>  <r_i_glide_erotb>  (178) 
0

>  <r_i_glide_esite>  (178) 
0

>  <r_i_glide_emodel>  (178) 
-26.9703

>  <r_i_glide_energy>  (178) 
-19.9978

>  <r_i_glide_einternal>  (178) 
0

>  <r_i_glide_intrahb_reward>  (178) 
-0

>  <i_i_glide_confnum>  (178) 
2

>  <i_i_glide_posenum>  (178) 
37

>  <r_i_glide_eff_state_penalty>  (178) 
0

>  <ligand_id>  (178) 
55

>  <original_smiles>  (178) 
NC12CC3CC(CC(C3)C1)C2

>  <smiles>  (178) 
[H]C1([H])C2([H])C([H])([H])C3([H])C([H])([H])C1([H])C([H])([H])C([N+]([H])([H])[H])(C2([H])[H])C3([H])[H]

$$$$
55:0:2
     RDKit          3D

 29 31  0  0  1  0  0  0  0  0999 V2000
    2.5921   -3.4552   -3.1279 N   0  0  0  0  0  0  0  0  0  0  0  0
    3.4517   -3.0513   -1.9991 C   0  0  1  0  0  0  0  0  0  0  0  0
    4.8489   -3.7176   -2.1230 C   0  0  0  0  0  0  0  0  0  0  0  0
    5.7355   -3.2987   -0.9371 C   0  0  2  0  0  0  0  0  0  0  0  0
    5.0830   -3.7400    0.3891 C   0  0  0  0  0  0  0  0  0  0  0  0
    3.6950   -3.0722    0.5196 C   0  0  1  0  0  0  0  0  0  0  0  0
    3.8506   -1.5411    0.5116 C   0  0  0  0  0  0  0  0  0  0  0  0
    4.5131   -1.1029   -0.8137 C   0  0  1  0  0  0  0  0  0  0  0  0
    5.8922   -1.7682   -0.9541 C   0  0  0  0  0  0  0  0  0  0  0  0
    3.6275   -1.5190   -2.0016 C   0  0  0  0  0  0  0  0  0  0  0  0
    2.8064   -3.4991   -0.6656 C   0  0  0  0  0  0  0  0  0  0  0  0
    1.6786   -3.0398   -3.0256 H   0  0  0  0  0  0  0  0  0  0  0  0
    2.5068   -4.4703   -3.1097 H   0  0  0  0  0  0  0  0  0  0  0  0
    4.7602   -4.8030   -2.1280 H   0  0  0  0  0  0  0  0  0  0  0  0
    5.3273   -3.4439   -3.0691 H   0  0  0  0  0  0  0  0  0  0  0  0
    6.7150   -3.7708   -1.0351 H   0  0  0  0  0  0  0  0  0  0  0  0
    4.9883   -4.8246    0.4231 H   0  0  0  0  0  0  0  0  0  0  0  0
    5.7178   -3.4560    1.2310 H   0  0  0  0  0  0  0  0  0  0  0  0
    3.2365   -3.3829    1.4596 H   0  0  0  0  0  0  0  0  0  0  0  0
    2.8763   -1.0603    0.6157 H   0  0  0  0  0  0  0  0  0  0  0  0
    4.4525   -1.2149    1.3633 H   0  0  0  0  0  0  0  0  0  0  0  0
    4.6161   -0.0199   -0.8055 H   0  0  0  0  0  0  0  0  0  0  0  0
    6.5581   -1.4470   -0.1521 H   0  0  0  0  0  0  0  0  0  0  0  0
    6.3501   -1.4736   -1.8960 H   0  0  0  0  0  0  0  0  0  0  0  0
    4.0757   -1.1746   -2.9324 H   0  0  0  0  0  0  0  0  0  0  0  0
    2.6551   -1.0214   -1.9264 H   0  0  0  0  0  0  0  0  0  0  0  0
    1.8161   -3.0586   -0.5563 H   0  0  0  0  0  0  0  0  0  0  0  0
    2.6645   -4.5794   -0.6498 H   0  0  0  0  0  0  0  0  0  0  0  0
    2.9982   -3.1644   -4.0009 H   0  0  0  0  0  0  0  0  0  0  0  0
  2  1  1  6
  1 12  1  0
  1 13  1  0
  1 29  1  0
  2 10  1  0
  2 11  1  0
  2  3  1  0
  3  4  1  0
  3 14  1  0
  3 15  1  0
  4  9  1  0
  4  5  1  0
  4 16  1  6
  5  6  1  0
  5 17  1  0
  5 18  1  0
  6  7  1  0
  6 11  1  0
  6 19  1  1
  7  8  1  0
  7 20  1  0
  7 21  1  0
  8  9  1  0
  8 10  1  0
  8 22  1  1
  9 23  1  0
  9 24  1  0
 10 25  1  0
 10 26  1  0
 11 27  1  0
 11 28  1  0
M  CHG  1   1   1
M  END
>  <i_m_ct_stereo_status>  (179) 
1

>  <s_m_source_file>  (179) 
/var/tmp/pbs.5076255.sched01/tmp7dp07en1/447ppmqug5.sdf

>  <i_m_source_file_index>  (179) 
34

>  <i_lp_mmshare_version>  (179) 
48012

>  <i_f3d_flags>  (179) 
0

>  <s_epik_input>  (179) 
W05IMl1DMTJbQ0gyXVtDQEhdM1tDSDJdW0NAQEhdKFtDSDJdMilbQ0gyXVtDQEhdKFtDSDJdMylbQ0gyXTE=

>  <s_epik_cmdline>  (179) 
J2VwaWtfcHl0aG9uJywgJy1waHQnLCAnMi4wJywgJy1waCcsICc3LjAnLCAnLXRuJywgJzgnLCAnLW1hJywgJzIwMCcsICctaW1hZScsICc8aW5maWxlLm1hZT4nLCAnLW9tYWUnLCAnPG91dGZpbGUubWFlPic=

>  <r_lp_tautomer_probability>  (179) 
1

>  <r_epik_Ionization_Penalty>  (179) 
7.35582e-05

>  <r_epik_Ionization_Penalty_Charging>  (179) 
7.35582e-05

>  <r_epik_Ionization_Penalty_Neutral>  (179) 
0

>  <r_epik_State_Penalty>  (179) 
-0

>  <r_epik_Charging_Adjusted_Penalty>  (179) 
7.35582e-05

>  <i_epik_Tot_Q>  (179) 
1

>  <i_epik_Tot_abs_Q>  (179) 
1

>  <s_lp_Force_Field>  (179) 
OPLS3e

>  <r_lp_Energy>  (179) 
5.13462

>  <b_lp_Chiralities_Consistent>  (179) 
1

>  <s_lp_Variant>  (179) 
55:0-1

>  <s_i_glide_gridfile>  (179) 
pfpi4k_grid

>  <i_i_glide_lignum>  (179) 
34

>  <i_i_glide_rotatable_bonds>  (179) 
0

>  <r_i_docking_score>  (179) 
-4.05994

>  <r_i_glide_ligand_efficiency>  (179) 
-0.369085

>  <r_i_glide_ligand_efficiency_sa>  (179) 
-0.820839

>  <r_i_glide_ligand_efficiency_ln>  (179) 
-1.19484

>  <r_i_glide_gscore>  (179) 
-4.05994

>  <r_i_glide_lipo>  (179) 
-0.127274

>  <r_i_glide_hbond>  (179) 
0

>  <r_i_glide_metal>  (179) 
-0

>  <r_i_glide_rewards>  (179) 
-2.25

>  <r_i_glide_evdw>  (179) 
-14.0701

>  <r_i_glide_ecoul>  (179) 
-6.52773

>  <r_i_glide_erotb>  (179) 
0

>  <r_i_glide_esite>  (179) 
0

>  <r_i_glide_emodel>  (179) 
-27.1077

>  <r_i_glide_energy>  (179) 
-20.5978

>  <r_i_glide_einternal>  (179) 
0

>  <r_i_glide_intrahb_reward>  (179) 
-0

>  <i_i_glide_confnum>  (179) 
2

>  <i_i_glide_posenum>  (179) 
40

>  <r_i_glide_eff_state_penalty>  (179) 
0

>  <ligand_id>  (179) 
55

>  <original_smiles>  (179) 
NC12CC3CC(CC(C3)C1)C2

>  <smiles>  (179) 
[H]C1([H])C2([H])C([H])([H])C3([H])C([H])([H])C1([H])C([H])([H])C([N+]([H])([H])[H])(C2([H])[H])C3([H])[H]

$$$$
56:0:0
     RDKit          3D

 45 48  0  0  1  0  0  0  0  0999 V2000
    2.8492   -3.6632   -3.9128 C   0  0  0  0  0  0  0  0  0  0  0  0
    3.7582   -3.0545   -2.8926 C   0  0  0  0  0  0  0  0  0  0  0  0
    5.0774   -3.3189   -2.8572 C   0  0  0  0  0  0  0  0  0  0  0  0
    5.9728   -2.6999   -1.8096 C   0  0  1  0  0  0  0  0  0  0  0  0
    5.4277   -1.2846   -1.5689 C   0  0  0  0  0  0  0  0  0  0  0  0
    4.0228   -1.3020   -1.0095 C   0  0  1  0  0  0  0  0  0  0  0  0
    3.0716   -2.1983   -1.8510 C   0  0  0  0  0  0  0  0  0  0  0  0
    3.9744   -1.4185    0.5413 C   0  0  1  0  0  0  0  0  0  0  0  0
    2.6162   -1.3296    0.9215 O   0  0  0  0  0  0  0  0  0  0  0  0
    4.6492   -2.6531    1.2170 C   0  0  1  0  0  0  0  0  0  0  0  0
    4.4930   -2.6238    2.7565 C   0  0  0  0  0  0  0  0  0  0  0  0
    5.2793   -1.9353    3.4000 O   0  0  0  0  0  0  0  0  0  0  0  0
    3.3401   -3.3591    3.3800 C   0  0  0  0  0  0  0  0  0  0  0  0
    3.0637   -2.9919    4.8382 C   0  0  0  0  0  0  0  0  0  0  0  0
    2.5935   -4.2307    2.6660 C   0  0  0  0  0  0  0  0  0  0  0  0
    1.3931   -4.9742    3.2407 C   0  0  0  0  0  0  0  0  0  0  0  0
    2.9468   -4.6214    1.2596 C   0  0  0  0  0  0  0  0  0  0  0  0
    2.2891   -5.4433    0.6298 O   0  0  0  0  0  0  0  0  0  0  0  0
    4.1108   -3.9363    0.6603 C   0  0  0  0  0  0  0  0  0  0  0  0
    4.8986   -4.4652   -0.2845 C   0  0  0  0  0  0  0  0  0  0  0  0
    6.1167   -3.5979   -0.5353 C   0  0  2  0  0  0  0  0  0  0  0  0
    6.1521   -2.8366    0.8220 C   0  0  1  0  0  0  0  0  0  0  0  0
    7.0012   -1.7152    0.9163 O   0  0  0  0  0  0  0  0  0  0  0  0
    2.0608   -4.2221   -3.4155 H   0  0  0  0  0  0  0  0  0  0  0  0
    3.4541   -4.3887   -4.4537 H   0  0  0  0  0  0  0  0  0  0  0  0
    2.3983   -2.9420   -4.5942 H   0  0  0  0  0  0  0  0  0  0  0  0
    5.5458   -3.9786   -3.5689 H   0  0  0  0  0  0  0  0  0  0  0  0
    6.9659   -2.5896   -2.2594 H   0  0  0  0  0  0  0  0  0  0  0  0
    6.0690   -0.6562   -0.9603 H   0  0  0  0  0  0  0  0  0  0  0  0
    5.3978   -0.7621   -2.5274 H   0  0  0  0  0  0  0  0  0  0  0  0
    3.7314   -0.2845   -1.2135 H   0  0  0  0  0  0  0  0  0  0  0  0
    2.3471   -1.5664   -2.3664 H   0  0  0  0  0  0  0  0  0  0  0  0
    2.4818   -2.8603   -1.2144 H   0  0  0  0  0  0  0  0  0  0  0  0
    4.4675   -0.5322    0.9348 H   0  0  0  0  0  0  0  0  0  0  0  0
    2.0493   -1.0877    0.1841 H   0  0  0  0  0  0  0  0  0  0  0  0
    3.9873   -2.8414    5.3962 H   0  0  0  0  0  0  0  0  0  0  0  0
    2.5268   -3.7783    5.3683 H   0  0  0  0  0  0  0  0  0  0  0  0
    2.4783   -2.0768    4.9075 H   0  0  0  0  0  0  0  0  0  0  0  0
    0.6156   -5.0731    2.4882 H   0  0  0  0  0  0  0  0  0  0  0  0
    0.9350   -4.4556    4.0793 H   0  0  0  0  0  0  0  0  0  0  0  0
    1.6847   -5.9718    3.5531 H   0  0  0  0  0  0  0  0  0  0  0  0
    4.7352   -5.3961   -0.8028 H   0  0  0  0  0  0  0  0  0  0  0  0
    6.9964   -4.2319   -0.6280 H   0  0  0  0  0  0  0  0  0  0  0  0
    6.5869   -3.5467    1.5312 H   0  0  0  0  0  0  0  0  0  0  0  0
    6.9319   -1.3832    1.8008 H   0  0  0  0  0  0  0  0  0  0  0  0
  1  2  1  0
  1 24  1  0
  1 25  1  0
  1 26  1  0
  2  7  1  0
  2  3  2  0
  3  4  1  0
  3 27  1  0
  4 21  1  0
  4  5  1  0
  4 28  1  6
  5  6  1  0
  5 29  1  0
  5 30  1  0
  6  7  1  0
  6  8  1  0
  6 31  1  1
  7 32  1  0
  7 33  1  0
  8  9  1  0
  8 10  1  0
  8 34  1  1
  9 35  1  0
 10 19  1  0
 10 22  1  0
 10 11  1  1
 11 12  2  0
 11 13  1  0
 13 14  1  0
 13 15  2  0
 14 36  1  0
 14 37  1  0
 14 38  1  0
 15 16  1  0
 15 17  1  0
 16 39  1  0
 16 40  1  0
 16 41  1  0
 17 18  2  0
 17 19  1  0
 19 20  2  0
 20 21  1  0
 20 42  1  0
 21 22  1  0
 21 43  1  6
 22 23  1  0
 22 44  1  1
 23 45  1  0
M  END
>  <i_m_ct_stereo_status>  (180) 
1

>  <s_m_source_file>  (180) 
/var/tmp/pbs.5076255.sched01/tmp7dp07en1/447ppmqug5.sdf

>  <i_m_source_file_index>  (180) 
35

>  <i_lp_mmshare_version>  (180) 
48012

>  <i_f3d_flags>  (180) 
0

>  <s_epik_input>  (180) 
W09IXVtDQEBIXTFbQ0BASF0oW0NIMl0yKVtDSDJdQyhbQ0gzXSk9W0NIXVtDQEBIXTJbQ0BASF0oW0NASF0zW09IXSlbQ0hdPUMoW0NAXTEzNClDKD1PKUMoW0NIM10pPUMoQzQ9TylbQ0gzXQ==

>  <s_epik_cmdline>  (180) 
J2VwaWtfcHl0aG9uJywgJy1waHQnLCAnMi4wJywgJy1waCcsICc3LjAnLCAnLXRuJywgJzgnLCAnLW1hJywgJzIwMCcsICctaW1hZScsICc8aW5maWxlLm1hZT4nLCAnLW9tYWUnLCAnPG91dGZpbGUubWFlPic=

>  <r_epik_Ionization_Penalty>  (180) 
0.000921725

>  <r_epik_Ionization_Penalty_Charging>  (180) 
0

>  <r_epik_Ionization_Penalty_Neutral>  (180) 
0.000921725

>  <r_epik_State_Penalty>  (180) 
0.000587112

>  <r_epik_Charging_Adjusted_Penalty>  (180) 
0.000587112

>  <i_epik_Tot_Q>  (180) 
0

>  <i_epik_Tot_abs_Q>  (180) 
0

>  <s_lp_Force_Field>  (180) 
OPLS3e

>  <r_lp_Energy>  (180) 
30.2836

>  <b_lp_Chiralities_Consistent>  (180) 
1

>  <s_lp_Variant>  (180) 
56:0-1

>  <s_i_glide_gridfile>  (180) 
pfpi4k_grid

>  <i_i_glide_lignum>  (180) 
35

>  <i_i_glide_rotatable_bonds>  (180) 
2

>  <r_i_docking_score>  (180) 
-4.39078

>  <r_i_glide_ligand_efficiency>  (180) 
-0.190903

>  <r_i_glide_ligand_efficiency_sa>  (180) 
-0.542904

>  <r_i_glide_ligand_efficiency_ln>  (180) 
-1.06173

>  <r_i_glide_gscore>  (180) 
-4.39078

>  <r_i_glide_lipo>  (180) 
-0.508477

>  <r_i_glide_hbond>  (180) 
-0.16

>  <r_i_glide_metal>  (180) 
-0

>  <r_i_glide_rewards>  (180) 
-1.79719

>  <r_i_glide_evdw>  (180) 
-20.5624

>  <r_i_glide_ecoul>  (180) 
-5.92644

>  <r_i_glide_erotb>  (180) 
0

>  <r_i_glide_esite>  (180) 
-0.00802839

>  <r_i_glide_emodel>  (180) 
-38.4236

>  <r_i_glide_energy>  (180) 
-26.4888

>  <r_i_glide_einternal>  (180) 
1.79654

>  <r_i_glide_intrahb_reward>  (180) 
-0.5

>  <i_i_glide_confnum>  (180) 
1

>  <i_i_glide_posenum>  (180) 
10

>  <r_i_glide_eff_state_penalty>  (180) 
0

>  <ligand_id>  (180) 
56

>  <original_smiles>  (180) 
CC1=CC2CC(C1)C(O)C13C(=O)C(C)=C(C)C(=O)C1=CC2C3O

>  <smiles>  (180) 
[H]OC1([H])C2([H])C([H])=C3C(=O)C(C([H])([H])[H])=C(C([H])([H])[H])C(=O)C31C([H])(O[H])C1([H])C([H])([H])C(C([H])([H])[H])=C([H])C2([H])C1([H])[H]

$$$$
56:0:1
     RDKit          3D

 45 48  0  0  1  0  0  0  0  0999 V2000
    3.1404   -3.4466   -3.9161 C   0  0  0  0  0  0  0  0  0  0  0  0
    3.8961   -2.9601   -2.7003 C   0  0  0  0  0  0  0  0  0  0  0  0
    5.2210   -3.1328   -2.5527 C   0  0  0  0  0  0  0  0  0  0  0  0
    5.9473   -2.6397   -1.3201 C   0  0  1  0  0  0  0  0  0  0  0  0
    5.3023   -1.2955   -0.9299 C   0  0  0  0  0  0  0  0  0  0  0  0
    3.8317   -1.4802   -0.5423 C   0  0  1  0  0  0  0  0  0  0  0  0
    3.0500   -2.2863   -1.6305 C   0  0  0  0  0  0  0  0  0  0  0  0
    3.6210   -1.8493    0.9626 C   0  0  1  0  0  0  0  0  0  0  0  0
    2.2248   -1.8690    1.2067 O   0  0  0  0  0  0  0  0  0  0  0  0
    4.2886   -3.1477    1.5084 C   0  0  1  0  0  0  0  0  0  0  0  0
    3.9698   -3.3812    3.0047 C   0  0  0  0  0  0  0  0  0  0  0  0
    4.6534   -2.7767    3.8399 O   0  0  0  0  0  0  0  0  0  0  0  0
    2.8012   -4.2457    3.3633 C   0  0  0  0  0  0  0  0  0  0  0  0
    2.3383   -4.1336    4.8154 C   0  0  0  0  0  0  0  0  0  0  0  0
    2.1812   -5.0194    2.4355 C   0  0  0  0  0  0  0  0  0  0  0  0
    0.9692   -5.8914    2.7338 C   0  0  0  0  0  0  0  0  0  0  0  0
    2.7011   -5.1439    1.0394 C   0  0  0  0  0  0  0  0  0  0  0  0
    2.1168   -5.8308    0.2033 O   0  0  0  0  0  0  0  0  0  0  0  0
    3.8881   -4.3456    0.6932 C   0  0  0  0  0  0  0  0  0  0  0  0
    4.8077   -4.6761   -0.2212 C   0  0  0  0  0  0  0  0  0  0  0  0
    5.9956   -3.7295   -0.1946 C   0  0  2  0  0  0  0  0  0  0  0  0
    5.8303   -3.2016    1.2578 C   0  0  1  0  0  0  0  0  0  0  0  0
    6.5695   -2.0647    1.6217 O   0  0  0  0  0  0  0  0  0  0  0  0
    2.3240   -4.1043   -3.6187 H   0  0  0  0  0  0  0  0  0  0  0  0
    3.8137   -4.0000   -4.5709 H   0  0  0  0  0  0  0  0  0  0  0  0
    2.7076   -2.6154   -4.4697 H   0  0  0  0  0  0  0  0  0  0  0  0
    5.8099   -3.6429   -3.3014 H   0  0  0  0  0  0  0  0  0  0  0  0
    6.9750   -2.4214   -1.6228 H   0  0  0  0  0  0  0  0  0  0  0  0
    5.8463   -0.7361   -0.1729 H   0  0  0  0  0  0  0  0  0  0  0  0
    5.3473   -0.6311   -1.7942 H   0  0  0  0  0  0  0  0  0  0  0  0
    3.4241   -0.4804   -0.5761 H   0  0  0  0  0  0  0  0  0  0  0  0
    2.3870   -1.6095   -2.1694 H   0  0  0  0  0  0  0  0  0  0  0  0
    2.4091   -3.0410   -1.1745 H   0  0  0  0  0  0  0  0  0  0  0  0
    4.0155   -1.0171    1.5449 H   0  0  0  0  0  0  0  0  0  0  0  0
    1.7757   -1.4566    0.4628 H   0  0  0  0  0  0  0  0  0  0  0  0
    3.1841   -4.0374    5.4971 H   0  0  0  0  0  0  0  0  0  0  0  0
    1.7916   -5.0161    5.1461 H   0  0  0  0  0  0  0  0  0  0  0  0
    1.6952   -3.2662    4.9499 H   0  0  0  0  0  0  0  0  0  0  0  0
    0.2747   -5.9015    1.8957 H   0  0  0  0  0  0  0  0  0  0  0  0
    0.3975   -5.5422    3.5901 H   0  0  0  0  0  0  0  0  0  0  0  0
    1.2823   -6.9162    2.9131 H   0  0  0  0  0  0  0  0  0  0  0  0
    4.7553   -5.5177   -0.8981 H   0  0  0  0  0  0  0  0  0  0  0  0
    6.9147   -4.3050   -0.2857 H   0  0  0  0  0  0  0  0  0  0  0  0
    6.2349   -3.9913    1.8949 H   0  0  0  0  0  0  0  0  0  0  0  0
    6.4267   -1.9225    2.5439 H   0  0  0  0  0  0  0  0  0  0  0  0
  1  2  1  0
  1 24  1  0
  1 25  1  0
  1 26  1  0
  2  7  1  0
  2  3  2  0
  3  4  1  0
  3 27  1  0
  4 21  1  0
  4  5  1  0
  4 28  1  6
  5  6  1  0
  5 29  1  0
  5 30  1  0
  6  7  1  0
  6  8  1  0
  6 31  1  1
  7 32  1  0
  7 33  1  0
  8  9  1  0
  8 10  1  0
  8 34  1  1
  9 35  1  0
 10 19  1  0
 10 22  1  0
 10 11  1  1
 11 12  2  0
 11 13  1  0
 13 14  1  0
 13 15  2  0
 14 36  1  0
 14 37  1  0
 14 38  1  0
 15 16  1  0
 15 17  1  0
 16 39  1  0
 16 40  1  0
 16 41  1  0
 17 18  2  0
 17 19  1  0
 19 20  2  0
 20 21  1  0
 20 42  1  0
 21 22  1  0
 21 43  1  1
 22 23  1  0
 22 44  1  1
 23 45  1  0
M  END
>  <i_m_ct_stereo_status>  (181) 
1

>  <s_m_source_file>  (181) 
/var/tmp/pbs.5076255.sched01/tmp7dp07en1/447ppmqug5.sdf

>  <i_m_source_file_index>  (181) 
35

>  <i_lp_mmshare_version>  (181) 
48012

>  <i_f3d_flags>  (181) 
0

>  <s_epik_input>  (181) 
W09IXVtDQEBIXTFbQ0BASF0oW0NIMl0yKVtDSDJdQyhbQ0gzXSk9W0NIXVtDQEBIXTJbQ0BASF0oW0NASF0zW09IXSlbQ0hdPUMoW0NAXTEzNClDKD1PKUMoW0NIM10pPUMoQzQ9TylbQ0gzXQ==

>  <s_epik_cmdline>  (181) 
J2VwaWtfcHl0aG9uJywgJy1waHQnLCAnMi4wJywgJy1waCcsICc3LjAnLCAnLXRuJywgJzgnLCAnLW1hJywgJzIwMCcsICctaW1hZScsICc8aW5maWxlLm1hZT4nLCAnLW9tYWUnLCAnPG91dGZpbGUubWFlPic=

>  <r_epik_Ionization_Penalty>  (181) 
0.000921725

>  <r_epik_Ionization_Penalty_Charging>  (181) 
0

>  <r_epik_Ionization_Penalty_Neutral>  (181) 
0.000921725

>  <r_epik_State_Penalty>  (181) 
0.000587112

>  <r_epik_Charging_Adjusted_Penalty>  (181) 
0.000587112

>  <i_epik_Tot_Q>  (181) 
0

>  <i_epik_Tot_abs_Q>  (181) 
0

>  <s_lp_Force_Field>  (181) 
OPLS3e

>  <r_lp_Energy>  (181) 
30.2836

>  <b_lp_Chiralities_Consistent>  (181) 
1

>  <s_lp_Variant>  (181) 
56:0-1

>  <s_i_glide_gridfile>  (181) 
pfpi4k_grid

>  <i_i_glide_lignum>  (181) 
35

>  <i_i_glide_rotatable_bonds>  (181) 
2

>  <r_i_docking_score>  (181) 
-4.11808

>  <r_i_glide_ligand_efficiency>  (181) 
-0.179047

>  <r_i_glide_ligand_efficiency_sa>  (181) 
-0.509185

>  <r_i_glide_ligand_efficiency_ln>  (181) 
-0.995788

>  <r_i_glide_gscore>  (181) 
-4.11808

>  <r_i_glide_lipo>  (181) 
-0.460913

>  <r_i_glide_hbond>  (181) 
-0.16

>  <r_i_glide_metal>  (181) 
-0

>  <r_i_glide_rewards>  (181) 
-1.76681

>  <r_i_glide_evdw>  (181) 
-22.602

>  <r_i_glide_ecoul>  (181) 
-3.83551

>  <r_i_glide_erotb>  (181) 
0

>  <r_i_glide_esite>  (181) 
-0.0249226

>  <r_i_glide_emodel>  (181) 
-37.7948

>  <r_i_glide_energy>  (181) 
-26.4375

>  <r_i_glide_einternal>  (181) 
1.69635

>  <r_i_glide_intrahb_reward>  (181) 
-0.5

>  <i_i_glide_confnum>  (181) 
1

>  <i_i_glide_posenum>  (181) 
19

>  <r_i_glide_eff_state_penalty>  (181) 
0

>  <ligand_id>  (181) 
56

>  <original_smiles>  (181) 
CC1=CC2CC(C1)C(O)C13C(=O)C(C)=C(C)C(=O)C1=CC2C3O

>  <smiles>  (181) 
[H]OC1([H])C2([H])C([H])=C3C(=O)C(C([H])([H])[H])=C(C([H])([H])[H])C(=O)C31C([H])(O[H])C1([H])C([H])([H])C(C([H])([H])[H])=C([H])C2([H])C1([H])[H]

$$$$
56:0:2
     RDKit          3D

 45 48  0  0  1  0  0  0  0  0999 V2000
    4.4745   -3.7601   -3.9222 C   0  0  0  0  0  0  0  0  0  0  0  0
    4.8085   -3.0605   -2.6210 C   0  0  0  0  0  0  0  0  0  0  0  0
    6.0814   -2.8963   -2.2198 C   0  0  0  0  0  0  0  0  0  0  0  0
    6.4100   -2.1955   -0.9286 C   0  0  1  0  0  0  0  0  0  0  0  0
    5.3943   -1.0501   -0.7755 C   0  0  0  0  0  0  0  0  0  0  0  0
    3.9650   -1.5671   -0.6346 C   0  0  1  0  0  0  0  0  0  0  0  0
    3.6202   -2.5885   -1.7666 C   0  0  0  0  0  0  0  0  0  0  0  0
    3.5975   -1.9081    0.8472 C   0  0  1  0  0  0  0  0  0  0  0  0
    2.2247   -2.2631    0.8775 O   0  0  0  0  0  0  0  0  0  0  0  0
    4.4443   -2.9862    1.5898 C   0  0  1  0  0  0  0  0  0  0  0  0
    3.9381   -3.2577    3.0280 C   0  0  0  0  0  0  0  0  0  0  0  0
    4.2833   -2.4713    3.9142 O   0  0  0  0  0  0  0  0  0  0  0  0
    2.9800   -4.3908    3.2460 C   0  0  0  0  0  0  0  0  0  0  0  0
    2.2537   -4.3586    4.5882 C   0  0  0  0  0  0  0  0  0  0  0  0
    2.7598   -5.3252    2.2879 C   0  0  0  0  0  0  0  0  0  0  0  0
    1.7749   -6.4788    2.4333 C   0  0  0  0  0  0  0  0  0  0  0  0
    3.5833   -5.3652    1.0404 C   0  0  0  0  0  0  0  0  0  0  0  0
    3.4910   -6.2755    0.2335 O   0  0  0  0  0  0  0  0  0  0  0  0
    4.5261   -4.2639    0.8189 C   0  0  0  0  0  0  0  0  0  0  0  0
    5.6622   -4.3871    0.1229 C   0  0  0  0  0  0  0  0  0  0  0  0
    6.5391   -3.1672    0.2784 C   0  0  2  0  0  0  0  0  0  0  0  0
    5.9553   -2.6322    1.6191 C   0  0  1  0  0  0  0  0  0  0  0  0
    6.2445   -1.3152    2.0220 O   0  0  0  0  0  0  0  0  0  0  0  0
    3.8328   -4.6071   -3.7733 H   0  0  0  0  0  0  0  0  0  0  0  0
    5.3751   -4.1353   -4.4104 H   0  0  0  0  0  0  0  0  0  0  0  0
    3.9515   -3.0882   -4.6126 H   0  0  0  0  0  0  0  0  0  0  0  0
    6.9186   -3.2441   -2.8058 H   0  0  0  0  0  0  0  0  0  0  0  0
    7.4025   -1.7679   -1.0467 H   0  0  0  0  0  0  0  0  0  0  0  0
    5.6414   -0.3303   -0.0018 H   0  0  0  0  0  0  0  0  0  0  0  0
    5.4292   -0.4280   -1.6748 H   0  0  0  0  0  0  0  0  0  0  0  0
    3.3406   -0.6977   -0.8494 H   0  0  0  0  0  0  0  0  0  0  0  0
    2.8896   -2.1307   -2.4303 H   0  0  0  0  0  0  0  0  0  0  0  0
    3.1431   -3.4815   -1.3563 H   0  0  0  0  0  0  0  0  0  0  0  0
    3.6828   -0.9846    1.4157 H   0  0  0  0  0  0  0  0  0  0  0  0
    1.7390   -1.6879    0.2783 H   0  0  0  0  0  0  0  0  0  0  0  0
    2.9013   -4.0164    5.3892 H   0  0  0  0  0  0  0  0  0  0  0  0
    1.8969   -5.3421    4.8919 H   0  0  0  0  0  0  0  0  0  0  0  0
    1.3967   -3.6886    4.5369 H   0  0  0  0  0  0  0  0  0  0  0  0
    1.2805   -6.7015    1.4919 H   0  0  0  0  0  0  0  0  0  0  0  0
    0.9908   -6.2780    3.1573 H   0  0  0  0  0  0  0  0  0  0  0  0
    2.3091   -7.3722    2.7518 H   0  0  0  0  0  0  0  0  0  0  0  0
    5.9511   -5.2443   -0.4631 H   0  0  0  0  0  0  0  0  0  0  0  0
    7.5765   -3.4772    0.3862 H   0  0  0  0  0  0  0  0  0  0  0  0
    6.4291   -3.2611    2.3743 H   0  0  0  0  0  0  0  0  0  0  0  0
    5.9485   -1.2211    2.9146 H   0  0  0  0  0  0  0  0  0  0  0  0
  1  2  1  0
  1 24  1  0
  1 25  1  0
  1 26  1  0
  2  7  1  0
  2  3  2  0
  3  4  1  0
  3 27  1  0
  4 21  1  0
  4  5  1  0
  4 28  1  6
  5  6  1  0
  5 29  1  0
  5 30  1  0
  6  7  1  0
  6  8  1  0
  6 31  1  6
  7 32  1  0
  7 33  1  0
  8  9  1  0
  8 10  1  0
  8 34  1  1
  9 35  1  0
 10 19  1  0
 10 22  1  0
 10 11  1  1
 11 12  2  0
 11 13  1  0
 13 14  1  0
 13 15  2  0
 14 36  1  0
 14 37  1  0
 14 38  1  0
 15 16  1  0
 15 17  1  0
 16 39  1  0
 16 40  1  0
 16 41  1  0
 17 18  2  0
 17 19  1  0
 19 20  2  0
 20 21  1  0
 20 42  1  0
 21 22  1  0
 21 43  1  1
 22 23  1  0
 22 44  1  1
 23 45  1  0
M  END
>  <i_m_ct_stereo_status>  (182) 
1

>  <s_m_source_file>  (182) 
/var/tmp/pbs.5076255.sched01/tmp7dp07en1/447ppmqug5.sdf

>  <i_m_source_file_index>  (182) 
35

>  <i_lp_mmshare_version>  (182) 
48012

>  <i_f3d_flags>  (182) 
0

>  <s_epik_input>  (182) 
W09IXVtDQEBIXTFbQ0BASF0oW0NIMl0yKVtDSDJdQyhbQ0gzXSk9W0NIXVtDQEBIXTJbQ0BASF0oW0NASF0zW09IXSlbQ0hdPUMoW0NAXTEzNClDKD1PKUMoW0NIM10pPUMoQzQ9TylbQ0gzXQ==

>  <s_epik_cmdline>  (182) 
J2VwaWtfcHl0aG9uJywgJy1waHQnLCAnMi4wJywgJy1waCcsICc3LjAnLCAnLXRuJywgJzgnLCAnLW1hJywgJzIwMCcsICctaW1hZScsICc8aW5maWxlLm1hZT4nLCAnLW9tYWUnLCAnPG91dGZpbGUubWFlPic=

>  <r_epik_Ionization_Penalty>  (182) 
0.000921725

>  <r_epik_Ionization_Penalty_Charging>  (182) 
0

>  <r_epik_Ionization_Penalty_Neutral>  (182) 
0.000921725

>  <r_epik_State_Penalty>  (182) 
0.000587112

>  <r_epik_Charging_Adjusted_Penalty>  (182) 
0.000587112

>  <i_epik_Tot_Q>  (182) 
0

>  <i_epik_Tot_abs_Q>  (182) 
0

>  <s_lp_Force_Field>  (182) 
OPLS3e

>  <r_lp_Energy>  (182) 
30.2836

>  <b_lp_Chiralities_Consistent>  (182) 
1

>  <s_lp_Variant>  (182) 
56:0-1

>  <s_i_glide_gridfile>  (182) 
pfpi4k_grid

>  <i_i_glide_lignum>  (182) 
35

>  <i_i_glide_rotatable_bonds>  (182) 
2

>  <r_i_docking_score>  (182) 
-3.9566

>  <r_i_glide_ligand_efficiency>  (182) 
-0.172026

>  <r_i_glide_ligand_efficiency_sa>  (182) 
-0.489219

>  <r_i_glide_ligand_efficiency_ln>  (182) 
-0.956742

>  <r_i_glide_gscore>  (182) 
-3.9566

>  <r_i_glide_lipo>  (182) 
-0.514638

>  <r_i_glide_hbond>  (182) 
-0.160679

>  <r_i_glide_metal>  (182) 
-0

>  <r_i_glide_rewards>  (182) 
-1.76662

>  <r_i_glide_evdw>  (182) 
-21.8235

>  <r_i_glide_ecoul>  (182) 
-2.82305

>  <r_i_glide_erotb>  (182) 
0

>  <r_i_glide_esite>  (182) 
-3.41425e-05

>  <r_i_glide_emodel>  (182) 
-36.2869

>  <r_i_glide_energy>  (182) 
-24.6465

>  <r_i_glide_einternal>  (182) 
0.878432

>  <r_i_glide_intrahb_reward>  (182) 
-0.5

>  <i_i_glide_confnum>  (182) 
2

>  <i_i_glide_posenum>  (182) 
31

>  <r_i_glide_eff_state_penalty>  (182) 
0

>  <ligand_id>  (182) 
56

>  <original_smiles>  (182) 
CC1=CC2CC(C1)C(O)C13C(=O)C(C)=C(C)C(=O)C1=CC2C3O

>  <smiles>  (182) 
[H]OC1([H])C2([H])C([H])=C3C(=O)C(C([H])([H])[H])=C(C([H])([H])[H])C(=O)C31C([H])(O[H])C1([H])C([H])([H])C(C([H])([H])[H])=C([H])C2([H])C1([H])[H]

$$$$
57:0:0
     RDKit          3D

 65 71  0  0  1  0  0  0  0  0999 V2000
    3.6866   -3.9372    4.9971 C   0  0  0  0  0  0  0  0  0  0  0  0
    3.8263   -4.7537    3.9295 C   0  0  0  0  0  0  0  0  0  0  0  0
    5.2197   -5.0022    3.2952 C   0  0  0  0  0  0  0  0  0  0  0  0
    5.5291   -4.5878    1.7950 C   0  0  1  0  0  0  0  0  0  0  0  0
    5.2848   -5.7068    0.7011 C   0  0  0  0  0  0  0  0  0  0  0  0
    4.7297   -7.0489    1.1332 C   0  0  0  0  0  0  0  0  0  0  0  0
    5.4666   -8.2315    1.2854 C   0  0  0  0  0  0  0  0  0  0  0  0
    5.0576   -9.1870    2.2522 C   0  0  0  0  0  0  0  0  0  0  0  0
    4.0500   -8.8697    3.1745 C   0  0  0  0  0  0  0  0  0  0  0  0
    3.8235   -9.6606    4.2689 O   0  0  0  0  0  0  0  0  0  0  0  0
    3.3318   -7.6679    3.0169 C   0  0  0  0  0  0  0  0  0  0  0  0
    3.5439   -6.9417    1.8554 C   0  0  0  0  0  0  0  0  0  0  0  0
    2.5907   -5.8049    1.9819 C   0  0  1  0  0  0  0  0  0  0  0  0
    2.6036   -5.5549    3.4821 C   0  0  1  0  0  0  0  0  0  0  0  0
    2.6375   -6.9396    3.9489 O   0  0  0  0  0  0  0  0  0  0  0  0
    2.0967   -4.8684    0.9129 N   0  0  2  0  0  0  0  0  0  0  0  0
    1.3037   -5.5940   -0.1412 C   0  0  0  0  0  0  0  0  0  0  0  0
    2.8702   -3.7997    0.2167 C   0  0  0  0  0  0  0  0  0  0  0  0
    3.7159   -2.8092    1.0118 C   0  0  2  0  0  0  0  0  0  0  0  0
    4.3178   -1.5736    0.2588 C   0  0  1  0  0  0  0  0  0  0  0  0
    4.4264   -0.3328    1.1645 C   0  0  0  0  0  0  0  0  0  0  0  0
    5.2569   -0.6572    2.4223 C   0  0  0  0  0  0  0  0  0  0  0  0
    5.5432   -2.1725    2.6138 C   0  0  0  0  0  0  0  0  0  0  0  0
    5.1552   -3.1063    1.4193 C   0  0  1  0  0  0  0  0  0  0  0  0
    5.6021   -2.3897    0.0746 C   0  0  2  0  0  0  0  0  0  0  0  0
    6.8145   -1.6656    0.1766 O   0  0  0  0  0  0  0  0  0  0  0  0
    5.6358   -2.7811   -1.4196 C   0  0  1  0  0  0  0  0  0  0  0  0
    5.7072   -4.1160   -1.7404 O   0  0  0  0  0  0  0  0  0  0  0  0
    4.5138   -2.0505   -2.1798 C   0  0  1  0  0  0  0  0  0  0  0  0
    3.6125   -2.8744   -3.1205 C   0  0  0  0  0  0  0  0  0  0  0  0
    3.7690   -1.2330   -1.1303 C   0  0  0  0  0  0  0  0  0  0  0  0
    2.7356   -3.8141    5.4891 H   0  0  0  0  0  0  0  0  0  0  0  0
    4.5329   -3.4146    5.4051 H   0  0  0  0  0  0  0  0  0  0  0  0
    5.9324   -4.4802    3.9298 H   0  0  0  0  0  0  0  0  0  0  0  0
    5.4975   -6.0434    3.4533 H   0  0  0  0  0  0  0  0  0  0  0  0
    6.6190   -4.5545    1.8249 H   0  0  0  0  0  0  0  0  0  0  0  0
    4.6860   -5.4342   -0.1342 H   0  0  0  0  0  0  0  0  0  0  0  0
    6.2562   -5.9050    0.2647 H   0  0  0  0  0  0  0  0  0  0  0  0
    6.4236   -8.3698    0.8112 H   0  0  0  0  0  0  0  0  0  0  0  0
    5.6547  -10.0716    2.3762 H   0  0  0  0  0  0  0  0  0  0  0  0
    4.2768  -10.4843    4.2106 H   0  0  0  0  0  0  0  0  0  0  0  0
    1.6685   -6.3885    1.9916 H   0  0  0  0  0  0  0  0  0  0  0  0
    1.6798   -5.0880    3.8378 H   0  0  0  0  0  0  0  0  0  0  0  0
    1.9573   -6.2547   -0.6834 H   0  0  0  0  0  0  0  0  0  0  0  0
    0.8940   -4.9145   -0.8978 H   0  0  0  0  0  0  0  0  0  0  0  0
    0.4603   -6.1821    0.2518 H   0  0  0  0  0  0  0  0  0  0  0  0
    3.3369   -4.1847   -0.6739 H   0  0  0  0  0  0  0  0  0  0  0  0
    2.0716   -3.1911   -0.2021 H   0  0  0  0  0  0  0  0  0  0  0  0
    3.1495   -2.4471    1.8782 H   0  0  0  0  0  0  0  0  0  0  0  0
    4.8892    0.5016    0.6379 H   0  0  0  0  0  0  0  0  0  0  0  0
    3.4397    0.0226    1.4658 H   0  0  0  0  0  0  0  0  0  0  0  0
    6.2156   -0.1515    2.3514 H   0  0  0  0  0  0  0  0  0  0  0  0
    4.7936   -0.2274    3.3124 H   0  0  0  0  0  0  0  0  0  0  0  0
    6.5976   -2.2837    2.8235 H   0  0  0  0  0  0  0  0  0  0  0  0
    5.0173   -2.4173    3.5266 H   0  0  0  0  0  0  0  0  0  0  0  0
    6.8009   -1.2694    1.0251 H   0  0  0  0  0  0  0  0  0  0  0  0
    6.5596   -2.4084   -1.8597 H   0  0  0  0  0  0  0  0  0  0  0  0
    4.8698   -4.5108   -1.5582 H   0  0  0  0  0  0  0  0  0  0  0  0
    5.0089   -1.3261   -2.8255 H   0  0  0  0  0  0  0  0  0  0  0  0
    2.9967   -3.6121   -2.6177 H   0  0  0  0  0  0  0  0  0  0  0  0
    4.2025   -3.3997   -3.8686 H   0  0  0  0  0  0  0  0  0  0  0  0
    2.9295   -2.2170   -3.6519 H   0  0  0  0  0  0  0  0  0  0  0  0
    2.6903   -1.3485   -1.2134 H   0  0  0  0  0  0  0  0  0  0  0  0
    4.0362   -0.2196   -1.3705 H   0  0  0  0  0  0  0  0  0  0  0  0
    1.4441   -4.3207    1.4483 H   0  0  0  0  0  0  0  0  0  0  0  0
  1  2  2  0
  1 32  1  0
  1 33  1  0
  2 14  1  0
  2  3  1  0
  3  4  1  0
  3 34  1  0
  3 35  1  0
  4 24  1  0
  4  5  1  0
  4 36  1  1
  5  6  1  0
  5 37  1  0
  5 38  1  0
  6 12  2  0
  6  7  1  0
  7  8  2  0
  7 39  1  0
  8  9  1  0
  8 40  1  0
  9 10  1  0
  9 11  2  0
 10 41  1  0
 11 15  1  0
 11 12  1  0
 12 13  1  0
 13 14  1  0
 13 16  1  0
 13 42  1  1
 14 15  1  0
 14 43  1  1
 16 17  1  0
 16 18  1  0
 16 65  1  1
 17 44  1  0
 17 45  1  0
 17 46  1  0
 18 19  1  0
 18 47  1  0
 18 48  1  0
 19 24  1  0
 19 20  1  0
 19 49  1  1
 20 25  1  0
 20 31  1  6
 20 21  1  0
 21 22  1  0
 21 50  1  0
 21 51  1  0
 22 23  1  0
 22 52  1  0
 22 53  1  0
 24 23  1  1
 23 54  1  0
 23 55  1  0
 24 25  1  0
 25 26  1  1
 25 27  1  0
 26 56  1  0
 27 28  1  0
 27 29  1  0
 27 57  1  6
 28 58  1  0
 29 30  1  0
 29 31  1  0
 29 59  1  6
 30 60  1  0
 30 61  1  0
 30 62  1  0
 31 63  1  0
 31 64  1  0
M  CHG  1  16   1
M  END
>  <i_m_ct_stereo_status>  (183) 
1

>  <s_m_source_file>  (183) 
/var/tmp/pbs.5076255.sched01/tmp7dp07en1/447ppmqug5.sdf

>  <i_m_source_file_index>  (183) 
36

>  <i_lp_mmshare_version>  (183) 
48012

>  <i_f3d_flags>  (183) 
0

>  <s_epik_input>  (183) 
W0NIM11bQ0BASF0oW0NIMl0xKVtDQEhdKFtPSF0pW0NAXTIoW09IXSlbQ0BdKFtDQEhdM1tDQF0xMjQpKFtDSDJdW0NIMl1bQ0gyXTQpW0NASF01W0NIMl1DKD1bQ0gyXSlbQ0BIXTZbQ0BASF0oTihbQ0gzXSlbQ0gyXTMpYzdjKFtDSDJdNSlbY0hdW2NIXWMoW09IXSljN082

>  <s_epik_cmdline>  (183) 
J2VwaWtfcHl0aG9uJywgJy1waHQnLCAnMi4wJywgJy1waCcsICc3LjAnLCAnLXRuJywgJzgnLCAnLW1hJywgJzIwMCcsICctaW1hZScsICc8aW5maWxlLm1hZT4nLCAnLW9tYWUnLCAnPG91dGZpbGUubWFlPic=

>  <r_lp_tautomer_probability>  (183) 
1

>  <r_epik_Ionization_Penalty>  (183) 
0.072893

>  <r_epik_Ionization_Penalty_Charging>  (183) 
0.0500264

>  <r_epik_Ionization_Penalty_Neutral>  (183) 
0.0228666

>  <r_epik_State_Penalty>  (183) 
0.0599743

>  <r_epik_Charging_Adjusted_Penalty>  (183) 
0.110001

>  <i_epik_Tot_Q>  (183) 
1

>  <i_epik_Tot_abs_Q>  (183) 
1

>  <s_lp_Force_Field>  (183) 
OPLS3e

>  <r_lp_Energy>  (183) 
172.653

>  <b_lp_Chiralities_Consistent>  (183) 
1

>  <s_lp_Variant>  (183) 
57:0-1

>  <s_i_glide_gridfile>  (183) 
pfpi4k_grid

>  <i_i_glide_lignum>  (183) 
36

>  <i_i_glide_rotatable_bonds>  (183) 
3

>  <r_i_docking_score>  (183) 
-2.80875

>  <r_i_glide_ligand_efficiency>  (183) 
-0.0906047

>  <r_i_glide_ligand_efficiency_sa>  (183) 
-0.284624

>  <r_i_glide_ligand_efficiency_ln>  (183) 
-0.633459

>  <r_i_glide_gscore>  (183) 
-2.80875

>  <r_i_glide_lipo>  (183) 
-0.786552

>  <r_i_glide_hbond>  (183) 
0

>  <r_i_glide_metal>  (183) 
-0

>  <r_i_glide_rewards>  (183) 
-0.514415

>  <r_i_glide_evdw>  (183) 
-14.835

>  <r_i_glide_ecoul>  (183) 
-4.77027

>  <r_i_glide_erotb>  (183) 
0

>  <r_i_glide_esite>  (183) 
-0.050492

>  <r_i_glide_emodel>  (183) 
-21.7377

>  <r_i_glide_energy>  (183) 
-19.6052

>  <r_i_glide_einternal>  (183) 
0.274166

>  <r_i_glide_intrahb_reward>  (183) 
-0

>  <i_i_glide_confnum>  (183) 
2

>  <i_i_glide_posenum>  (183) 
10

>  <r_i_glide_eff_state_penalty>  (183) 
0

>  <ligand_id>  (183) 
57

>  <original_smiles>  (183) 
C=C1CC2Cc3ccc(O)c4c3C(C1O4)N(C)CC1C34CCCC21C3(O)C(O)C(C)C4

>  <smiles>  (183) 
[H]Oc1c([H])c([H])c2c3c1OC1([H])C(=C([H])[H])C([H])([H])C([H])(C2([H])[H])C24C([H])([H])C([H])([H])C([H])([H])C5(C([H])([H])C([H])(C([H])([H])[H])C([H])(O[H])C52O[H])C4([H])C([H])([H])[N+]([H])(C([H])([H])[H])C31[H]

$$$$
57:0:1
     RDKit          3D

 65 71  0  0  1  0  0  0  0  0999 V2000
    1.5463   -7.6918    3.4019 C   0  0  0  0  0  0  0  0  0  0  0  0
    2.7708   -7.2586    3.0459 C   0  0  0  0  0  0  0  0  0  0  0  0
    3.7389   -6.6686    4.1110 C   0  0  0  0  0  0  0  0  0  0  0  0
    4.2321   -5.1669    4.0317 C   0  0  1  0  0  0  0  0  0  0  0  0
    5.5886   -4.9338    3.2589 C   0  0  0  0  0  0  0  0  0  0  0  0
    6.2749   -6.1037    2.5965 C   0  0  0  0  0  0  0  0  0  0  0  0
    7.4039   -6.7779    3.1005 C   0  0  0  0  0  0  0  0  0  0  0  0
    7.5745   -8.1567    2.8456 C   0  0  0  0  0  0  0  0  0  0  0  0
    6.5326   -8.8896    2.2315 C   0  0  0  0  0  0  0  0  0  0  0  0
    6.5728  -10.2516    2.2086 O   0  0  0  0  0  0  0  0  0  0  0  0
    5.4141   -8.1984    1.7228 C   0  0  0  0  0  0  0  0  0  0  0  0
    5.4508   -6.8119    1.7108 C   0  0  0  0  0  0  0  0  0  0  0  0
    4.1518   -6.4296    1.0550 C   0  0  1  0  0  0  0  0  0  0  0  0
    3.2374   -7.5228    1.6067 C   0  0  1  0  0  0  0  0  0  0  0  0
    4.1344   -8.6699    1.5204 O   0  0  0  0  0  0  0  0  0  0  0  0
    3.7222   -5.1128    0.4302 N   0  0  2  0  0  0  0  0  0  0  0  0
    4.6068   -4.7573   -0.7189 C   0  0  0  0  0  0  0  0  0  0  0  0
    3.4783   -3.8425    1.1870 C   0  0  0  0  0  0  0  0  0  0  0  0
    2.5918   -3.7968    2.4431 C   0  0  2  0  0  0  0  0  0  0  0  0
    2.1736   -2.4060    3.0445 C   0  0  1  0  0  0  0  0  0  0  0  0
    0.7816   -2.4426    3.6798 C   0  0  0  0  0  0  0  0  0  0  0  0
    0.6933   -3.5246    4.7740 C   0  0  0  0  0  0  0  0  0  0  0  0
    1.9050   -4.4967    4.7879 C   0  0  0  0  0  0  0  0  0  0  0  0
    3.1052   -4.0887    3.8544 C   0  0  1  0  0  0  0  0  0  0  0  0
    3.3575   -2.5314    4.0232 C   0  0  2  0  0  0  0  0  0  0  0  0
    3.1260   -2.0742    5.3432 O   0  0  0  0  0  0  0  0  0  0  0  0
    4.4158   -1.5079    3.5079 C   0  0  1  0  0  0  0  0  0  0  0  0
    5.6951   -1.9606    3.2016 O   0  0  0  0  0  0  0  0  0  0  0  0
    3.7986   -0.6477    2.3748 C   0  0  1  0  0  0  0  0  0  0  0  0
    4.6402   -0.4784    1.0865 C   0  0  0  0  0  0  0  0  0  0  0  0
    2.3571   -1.1557    2.1650 C   0  0  0  0  0  0  0  0  0  0  0  0
    0.8913   -8.1743    2.6905 H   0  0  0  0  0  0  0  0  0  0  0  0
    1.1966   -7.6112    4.4204 H   0  0  0  0  0  0  0  0  0  0  0  0
    3.2460   -6.7890    5.0754 H   0  0  0  0  0  0  0  0  0  0  0  0
    4.5912   -7.3382    4.2174 H   0  0  0  0  0  0  0  0  0  0  0  0
    4.5584   -5.0101    5.0610 H   0  0  0  0  0  0  0  0  0  0  0  0
    5.6083   -4.1816    2.5081 H   0  0  0  0  0  0  0  0  0  0  0  0
    6.2855   -4.6002    4.0157 H   0  0  0  0  0  0  0  0  0  0  0  0
    8.0725   -6.2786    3.7861 H   0  0  0  0  0  0  0  0  0  0  0  0
    8.4250   -8.6657    3.2641 H   0  0  0  0  0  0  0  0  0  0  0  0
    7.2683  -10.6174    2.7296 H   0  0  0  0  0  0  0  0  0  0  0  0
    4.3045   -6.9134    0.0867 H   0  0  0  0  0  0  0  0  0  0  0  0
    2.3759   -7.7127    0.9618 H   0  0  0  0  0  0  0  0  0  0  0  0
    5.6268   -4.5851   -0.3766 H   0  0  0  0  0  0  0  0  0  0  0  0
    4.2650   -3.8503   -1.2212 H   0  0  0  0  0  0  0  0  0  0  0  0
    4.6365   -5.5257   -1.4890 H   0  0  0  0  0  0  0  0  0  0  0  0
    4.3900   -3.2817    1.3032 H   0  0  0  0  0  0  0  0  0  0  0  0
    2.9437   -3.2473    0.4518 H   0  0  0  0  0  0  0  0  0  0  0  0
    1.6947   -4.3940    2.2589 H   0  0  0  0  0  0  0  0  0  0  0  0
    0.5033   -1.4747    4.0983 H   0  0  0  0  0  0  0  0  0  0  0  0
    0.0565   -2.6523    2.9045 H   0  0  0  0  0  0  0  0  0  0  0  0
    0.6304   -3.0310    5.7443 H   0  0  0  0  0  0  0  0  0  0  0  0
   -0.2374   -4.0825    4.6790 H   0  0  0  0  0  0  0  0  0  0  0  0
    2.2339   -4.6369    5.8198 H   0  0  0  0  0  0  0  0  0  0  0  0
    1.4743   -5.4401    4.4925 H   0  0  0  0  0  0  0  0  0  0  0  0
    2.8547   -1.1718    5.2737 H   0  0  0  0  0  0  0  0  0  0  0  0
    4.6390   -0.7911    4.3003 H   0  0  0  0  0  0  0  0  0  0  0  0
    5.6284   -2.6601    2.5770 H   0  0  0  0  0  0  0  0  0  0  0  0
    3.7107    0.3633    2.7757 H   0  0  0  0  0  0  0  0  0  0  0  0
    4.7935   -1.3961    0.5253 H   0  0  0  0  0  0  0  0  0  0  0  0
    5.6279   -0.0747    1.3121 H   0  0  0  0  0  0  0  0  0  0  0  0
    4.1571    0.2271    0.4136 H   0  0  0  0  0  0  0  0  0  0  0  0
    2.1456   -1.3438    1.1101 H   0  0  0  0  0  0  0  0  0  0  0  0
    1.6666   -0.3624    2.4621 H   0  0  0  0  0  0  0  0  0  0  0  0
    2.8395   -5.3310   -0.0084 H   0  0  0  0  0  0  0  0  0  0  0  0
  1  2  2  0
  1 32  1  0
  1 33  1  0
  2 14  1  0
  2  3  1  0
  3  4  1  0
  3 34  1  0
  3 35  1  0
  4 24  1  0
  4  5  1  0
  4 36  1  1
  5  6  1  0
  5 37  1  0
  5 38  1  0
  6 12  2  0
  6  7  1  0
  7  8  2  0
  7 39  1  0
  8  9  1  0
  8 40  1  0
  9 10  1  0
  9 11  2  0
 10 41  1  0
 11 15  1  0
 11 12  1  0
 12 13  1  0
 13 14  1  0
 13 16  1  0
 13 42  1  6
 14 15  1  0
 14 43  1  6
 16 17  1  0
 16 18  1  0
 16 65  1  6
 17 44  1  0
 17 45  1  0
 17 46  1  0
 18 19  1  0
 18 47  1  0
 18 48  1  0
 19 24  1  0
 19 20  1  0
 19 49  1  6
 20 25  1  0
 20 31  1  6
 20 21  1  0
 21 22  1  0
 21 50  1  0
 21 51  1  0
 22 23  1  0
 22 52  1  0
 22 53  1  0
 24 23  1  1
 23 54  1  0
 23 55  1  0
 24 25  1  0
 25 26  1  1
 25 27  1  0
 26 56  1  0
 27 28  1  0
 27 29  1  0
 27 57  1  1
 28 58  1  0
 29 30  1  0
 29 31  1  0
 29 59  1  1
 30 60  1  0
 30 61  1  0
 30 62  1  0
 31 63  1  0
 31 64  1  0
M  CHG  1  16   1
M  END
>  <i_m_ct_stereo_status>  (184) 
1

>  <s_m_source_file>  (184) 
/var/tmp/pbs.5076255.sched01/tmp7dp07en1/447ppmqug5.sdf

>  <i_m_source_file_index>  (184) 
36

>  <i_lp_mmshare_version>  (184) 
48012

>  <i_f3d_flags>  (184) 
0

>  <s_epik_input>  (184) 
W0NIM11bQ0BASF0oW0NIMl0xKVtDQEhdKFtPSF0pW0NAXTIoW09IXSlbQ0BdKFtDQEhdM1tDQF0xMjQpKFtDSDJdW0NIMl1bQ0gyXTQpW0NASF01W0NIMl1DKD1bQ0gyXSlbQ0BIXTZbQ0BASF0oTihbQ0gzXSlbQ0gyXTMpYzdjKFtDSDJdNSlbY0hdW2NIXWMoW09IXSljN082

>  <s_epik_cmdline>  (184) 
J2VwaWtfcHl0aG9uJywgJy1waHQnLCAnMi4wJywgJy1waCcsICc3LjAnLCAnLXRuJywgJzgnLCAnLW1hJywgJzIwMCcsICctaW1hZScsICc8aW5maWxlLm1hZT4nLCAnLW9tYWUnLCAnPG91dGZpbGUubWFlPic=

>  <r_lp_tautomer_probability>  (184) 
1

>  <r_epik_Ionization_Penalty>  (184) 
0.072893

>  <r_epik_Ionization_Penalty_Charging>  (184) 
0.0500264

>  <r_epik_Ionization_Penalty_Neutral>  (184) 
0.0228666

>  <r_epik_State_Penalty>  (184) 
0.0599743

>  <r_epik_Charging_Adjusted_Penalty>  (184) 
0.110001

>  <i_epik_Tot_Q>  (184) 
1

>  <i_epik_Tot_abs_Q>  (184) 
1

>  <s_lp_Force_Field>  (184) 
OPLS3e

>  <r_lp_Energy>  (184) 
172.653

>  <b_lp_Chiralities_Consistent>  (184) 
1

>  <s_lp_Variant>  (184) 
57:0-1

>  <s_i_glide_gridfile>  (184) 
pfpi4k_grid

>  <i_i_glide_lignum>  (184) 
36

>  <i_i_glide_rotatable_bonds>  (184) 
3

>  <r_i_docking_score>  (184) 
-2.4959

>  <r_i_glide_ligand_efficiency>  (184) 
-0.0805129

>  <r_i_glide_ligand_efficiency_sa>  (184) 
-0.252922

>  <r_i_glide_ligand_efficiency_ln>  (184) 
-0.562902

>  <r_i_glide_gscore>  (184) 
-2.4959

>  <r_i_glide_lipo>  (184) 
-0.575417

>  <r_i_glide_hbond>  (184) 
0

>  <r_i_glide_metal>  (184) 
-0

>  <r_i_glide_rewards>  (184) 
-0.514415

>  <r_i_glide_evdw>  (184) 
-16.5497

>  <r_i_glide_ecoul>  (184) 
-3.84657

>  <r_i_glide_erotb>  (184) 
0

>  <r_i_glide_esite>  (184) 
-0.00159846

>  <r_i_glide_emodel>  (184) 
-22.1417

>  <r_i_glide_energy>  (184) 
-20.3963

>  <r_i_glide_einternal>  (184) 
0.5233

>  <r_i_glide_intrahb_reward>  (184) 
-0

>  <i_i_glide_confnum>  (184) 
2

>  <i_i_glide_posenum>  (184) 
31

>  <r_i_glide_eff_state_penalty>  (184) 
0

>  <ligand_id>  (184) 
57

>  <original_smiles>  (184) 
C=C1CC2Cc3ccc(O)c4c3C(C1O4)N(C)CC1C34CCCC21C3(O)C(O)C(C)C4

>  <smiles>  (184) 
[H]Oc1c([H])c([H])c2c3c1OC1([H])C(=C([H])[H])C([H])([H])C([H])(C2([H])[H])C24C([H])([H])C([H])([H])C([H])([H])C5(C([H])([H])C([H])(C([H])([H])[H])C([H])(O[H])C52O[H])C4([H])C([H])([H])[N+]([H])(C([H])([H])[H])C31[H]

$$$$
57:0:2
     RDKit          3D

 65 71  0  0  1  0  0  0  0  0999 V2000
    1.7959   -3.2244    5.7844 C   0  0  0  0  0  0  0  0  0  0  0  0
    2.5992   -4.0828    5.1329 C   0  0  0  0  0  0  0  0  0  0  0  0
    4.1372   -3.8552    5.0854 C   0  0  0  0  0  0  0  0  0  0  0  0
    4.8935   -3.6143    3.7123 C   0  0  1  0  0  0  0  0  0  0  0  0
    5.4668   -4.9051    2.9985 C   0  0  0  0  0  0  0  0  0  0  0  0
    5.2304   -6.2586    3.6253 C   0  0  0  0  0  0  0  0  0  0  0  0
    6.1688   -6.9934    4.3629 C   0  0  0  0  0  0  0  0  0  0  0  0
    5.7245   -7.8405    5.4139 C   0  0  0  0  0  0  0  0  0  0  0  0
    4.3771   -7.8037    5.8197 C   0  0  0  0  0  0  0  0  0  0  0  0
    3.9881   -8.4155    6.9833 O   0  0  0  0  0  0  0  0  0  0  0  0
    3.4523   -7.0568    5.0695 C   0  0  0  0  0  0  0  0  0  0  0  0
    3.8763   -6.5191    3.8638 C   0  0  0  0  0  0  0  0  0  0  0  0
    2.6434   -5.8670    3.3150 C   0  0  1  0  0  0  0  0  0  0  0  0
    1.9789   -5.3783    4.5985 C   0  0  1  0  0  0  0  0  0  0  0  0
    2.2478   -6.5196    5.4606 O   0  0  0  0  0  0  0  0  0  0  0  0
    2.3253   -5.4100    1.9056 N   0  0  2  0  0  0  0  0  0  0  0  0
    2.3279   -6.5582    0.9483 C   0  0  0  0  0  0  0  0  0  0  0  0
    2.9828   -4.2613    1.2062 C   0  0  0  0  0  0  0  0  0  0  0  0
    3.1106   -2.8828    1.8713 C   0  0  2  0  0  0  0  0  0  0  0  0
    3.5600   -1.6561    1.0053 C   0  0  1  0  0  0  0  0  0  0  0  0
    2.9133   -0.3449    1.4732 C   0  0  0  0  0  0  0  0  0  0  0  0
    3.2241   -0.0734    2.9621 C   0  0  0  0  0  0  0  0  0  0  0  0
    3.8437   -1.2898    3.7085 C   0  0  0  0  0  0  0  0  0  0  0  0
    4.2724   -2.5003    2.7944 C   0  0  1  0  0  0  0  0  0  0  0  0
    4.9939   -1.9255    1.5041 C   0  0  2  0  0  0  0  0  0  0  0  0
    5.7837   -0.7834    1.7718 O   0  0  0  0  0  0  0  0  0  0  0  0
    5.7614   -2.5313    0.3008 C   0  0  1  0  0  0  0  0  0  0  0  0
    6.3814   -3.7759    0.4591 O   0  0  0  0  0  0  0  0  0  0  0  0
    4.8663   -2.4273   -0.9614 C   0  0  1  0  0  0  0  0  0  0  0  0
    4.7369   -3.6967   -1.8289 C   0  0  0  0  0  0  0  0  0  0  0  0
    3.5311   -1.7868   -0.5216 C   0  0  0  0  0  0  0  0  0  0  0  0
    0.7375   -3.4118    5.8901 H   0  0  0  0  0  0  0  0  0  0  0  0
    2.1954   -2.3413    6.2573 H   0  0  0  0  0  0  0  0  0  0  0  0
    4.3305   -2.9869    5.7151 H   0  0  0  0  0  0  0  0  0  0  0  0
    4.6287   -4.6484    5.6424 H   0  0  0  0  0  0  0  0  0  0  0  0
    5.8117   -3.1452    4.0766 H   0  0  0  0  0  0  0  0  0  0  0  0
    5.2119   -5.0477    1.9788 H   0  0  0  0  0  0  0  0  0  0  0  0
    6.5439   -4.7771    2.9720 H   0  0  0  0  0  0  0  0  0  0  0  0
    7.2285   -6.8198    4.2324 H   0  0  0  0  0  0  0  0  0  0  0  0
    6.4561   -8.3736    5.9956 H   0  0  0  0  0  0  0  0  0  0  0  0
    4.6659   -8.9420    7.3663 H   0  0  0  0  0  0  0  0  0  0  0  0
    2.0339   -6.7690    3.2254 H   0  0  0  0  0  0  0  0  0  0  0  0
    0.8963   -5.2675    4.4857 H   0  0  0  0  0  0  0  0  0  0  0  0
    3.3300   -6.9883    0.8807 H   0  0  0  0  0  0  0  0  0  0  0  0
    2.0465   -6.2373   -0.0586 H   0  0  0  0  0  0  0  0  0  0  0  0
    1.6269   -7.3593    1.2117 H   0  0  0  0  0  0  0  0  0  0  0  0
    3.8770   -4.5764    0.6897 H   0  0  0  0  0  0  0  0  0  0  0  0
    2.3095   -4.0954    0.3682 H   0  0  0  0  0  0  0  0  0  0  0  0
    2.1643   -2.6333    2.3628 H   0  0  0  0  0  0  0  0  0  0  0  0
    3.2629    0.5027    0.8811 H   0  0  0  0  0  0  0  0  0  0  0  0
    1.8309   -0.3753    1.3192 H   0  0  0  0  0  0  0  0  0  0  0  0
    3.9132    0.7702    3.0253 H   0  0  0  0  0  0  0  0  0  0  0  0
    2.3209    0.2706    3.4708 H   0  0  0  0  0  0  0  0  0  0  0  0
    4.6754   -0.9518    4.3309 H   0  0  0  0  0  0  0  0  0  0  0  0
    3.0672   -1.5700    4.4081 H   0  0  0  0  0  0  0  0  0  0  0  0
    5.3720   -0.3730    2.5048 H   0  0  0  0  0  0  0  0  0  0  0  0
    6.6203   -1.8932    0.0769 H   0  0  0  0  0  0  0  0  0  0  0  0
    6.8824   -3.9498   -0.3204 H   0  0  0  0  0  0  0  0  0  0  0  0
    5.3418   -1.6963   -1.6113 H   0  0  0  0  0  0  0  0  0  0  0  0
    4.2403   -4.5252   -1.3341 H   0  0  0  0  0  0  0  0  0  0  0  0
    5.7101   -4.0570   -2.1596 H   0  0  0  0  0  0  0  0  0  0  0  0
    4.1609   -3.4827   -2.7252 H   0  0  0  0  0  0  0  0  0  0  0  0
    2.6681   -2.3496   -0.8760 H   0  0  0  0  0  0  0  0  0  0  0  0
    3.4440   -0.8049   -0.9921 H   0  0  0  0  0  0  0  0  0  0  0  0
    1.3619   -5.1436    1.9894 H   0  0  0  0  0  0  0  0  0  0  0  0
  1  2  2  0
  1 32  1  0
  1 33  1  0
  2 14  1  0
  2  3  1  0
  3  4  1  0
  3 34  1  0
  3 35  1  0
  4 24  1  0
  4  5  1  0
  4 36  1  1
  5  6  1  0
  5 37  1  0
  5 38  1  0
  6 12  2  0
  6  7  1  0
  7  8  2  0
  7 39  1  0
  8  9  1  0
  8 40  1  0
  9 10  1  0
  9 11  2  0
 10 41  1  0
 11 15  1  0
 11 12  1  0
 12 13  1  0
 13 14  1  0
 13 16  1  0
 13 42  1  6
 14 15  1  0
 14 43  1  6
 16 17  1  0
 16 18  1  0
 16 65  1  1
 17 44  1  0
 17 45  1  0
 17 46  1  0
 18 19  1  0
 18 47  1  0
 18 48  1  0
 19 24  1  0
 19 20  1  0
 19 49  1  1
 20 25  1  0
 20 31  1  6
 20 21  1  0
 21 22  1  0
 21 50  1  0
 21 51  1  0
 22 23  1  0
 22 52  1  0
 22 53  1  0
 24 23  1  1
 23 54  1  0
 23 55  1  0
 24 25  1  0
 25 26  1  1
 25 27  1  0
 26 56  1  0
 27 28  1  0
 27 29  1  0
 27 57  1  6
 28 58  1  0
 29 30  1  0
 29 31  1  0
 29 59  1  6
 30 60  1  0
 30 61  1  0
 30 62  1  0
 31 63  1  0
 31 64  1  0
M  CHG  1  16   1
M  END
>  <i_m_ct_stereo_status>  (185) 
1

>  <s_m_source_file>  (185) 
/var/tmp/pbs.5076255.sched01/tmp7dp07en1/447ppmqug5.sdf

>  <i_m_source_file_index>  (185) 
36

>  <i_lp_mmshare_version>  (185) 
48012

>  <i_f3d_flags>  (185) 
0

>  <s_epik_input>  (185) 
W0NIM11bQ0BASF0oW0NIMl0xKVtDQEhdKFtPSF0pW0NAXTIoW09IXSlbQ0BdKFtDQEhdM1tDQF0xMjQpKFtDSDJdW0NIMl1bQ0gyXTQpW0NASF01W0NIMl1DKD1bQ0gyXSlbQ0BIXTZbQ0BASF0oTihbQ0gzXSlbQ0gyXTMpYzdjKFtDSDJdNSlbY0hdW2NIXWMoW09IXSljN082

>  <s_epik_cmdline>  (185) 
J2VwaWtfcHl0aG9uJywgJy1waHQnLCAnMi4wJywgJy1waCcsICc3LjAnLCAnLXRuJywgJzgnLCAnLW1hJywgJzIwMCcsICctaW1hZScsICc8aW5maWxlLm1hZT4nLCAnLW9tYWUnLCAnPG91dGZpbGUubWFlPic=

>  <r_lp_tautomer_probability>  (185) 
1

>  <r_epik_Ionization_Penalty>  (185) 
0.072893

>  <r_epik_Ionization_Penalty_Charging>  (185) 
0.0500264

>  <r_epik_Ionization_Penalty_Neutral>  (185) 
0.0228666

>  <r_epik_State_Penalty>  (185) 
0.0599743

>  <r_epik_Charging_Adjusted_Penalty>  (185) 
0.110001

>  <i_epik_Tot_Q>  (185) 
1

>  <i_epik_Tot_abs_Q>  (185) 
1

>  <s_lp_Force_Field>  (185) 
OPLS3e

>  <r_lp_Energy>  (185) 
172.653

>  <b_lp_Chiralities_Consistent>  (185) 
1

>  <s_lp_Variant>  (185) 
57:0-1

>  <s_i_glide_gridfile>  (185) 
pfpi4k_grid

>  <i_i_glide_lignum>  (185) 
36

>  <i_i_glide_rotatable_bonds>  (185) 
3

>  <r_i_docking_score>  (185) 
-1.72845

>  <r_i_glide_ligand_efficiency>  (185) 
-0.0557565

>  <r_i_glide_ligand_efficiency_sa>  (185) 
-0.175152

>  <r_i_glide_ligand_efficiency_ln>  (185) 
-0.389819

>  <r_i_glide_gscore>  (185) 
-1.72845

>  <r_i_glide_lipo>  (185) 
-0.15151

>  <r_i_glide_hbond>  (185) 
0

>  <r_i_glide_metal>  (185) 
-0

>  <r_i_glide_rewards>  (185) 
-0.514415

>  <r_i_glide_evdw>  (185) 
-18.2071

>  <r_i_glide_ecoul>  (185) 
-0.869925

>  <r_i_glide_erotb>  (185) 
0

>  <r_i_glide_esite>  (185) 
-0.0216801

>  <r_i_glide_emodel>  (185) 
-20.0813

>  <r_i_glide_energy>  (185) 
-19.0771

>  <r_i_glide_einternal>  (185) 
0.493859

>  <r_i_glide_intrahb_reward>  (185) 
-0

>  <i_i_glide_confnum>  (185) 
1

>  <i_i_glide_posenum>  (185) 
28

>  <r_i_glide_eff_state_penalty>  (185) 
0

>  <ligand_id>  (185) 
57

>  <original_smiles>  (185) 
C=C1CC2Cc3ccc(O)c4c3C(C1O4)N(C)CC1C34CCCC21C3(O)C(O)C(C)C4

>  <smiles>  (185) 
[H]Oc1c([H])c([H])c2c3c1OC1([H])C(=C([H])[H])C([H])([H])C([H])(C2([H])[H])C24C([H])([H])C([H])([H])C([H])([H])C5(C([H])([H])C([H])(C([H])([H])[H])C([H])(O[H])C52O[H])C4([H])C([H])([H])[N+]([H])(C([H])([H])[H])C31[H]

$$$$
57:1:0
     RDKit          3D

 64 70  0  0  1  0  0  0  0  0999 V2000
    6.2428   -5.9962    2.0318 C   0  0  0  0  0  0  0  0  0  0  0  0
    5.2201   -5.1441    1.8543 C   0  0  0  0  0  0  0  0  0  0  0  0
    4.6260   -4.3632    3.0520 C   0  0  0  0  0  0  0  0  0  0  0  0
    3.1799   -4.7269    3.5917 C   0  0  1  0  0  0  0  0  0  0  0  0
    1.9775   -3.8764    3.0110 C   0  0  0  0  0  0  0  0  0  0  0  0
    2.2990   -2.8469    1.9244 C   0  0  0  0  0  0  0  0  0  0  0  0
    2.3938   -1.4525    2.0899 C   0  0  0  0  0  0  0  0  0  0  0  0
    3.2775   -0.6965    1.2759 C   0  0  0  0  0  0  0  0  0  0  0  0
    4.1865   -1.3462    0.4160 C   0  0  0  0  0  0  0  0  0  0  0  0
    5.1895   -0.6571   -0.1959 O   0  0  0  0  0  0  0  0  0  0  0  0
    4.0907   -2.7506    0.2495 C   0  0  0  0  0  0  0  0  0  0  0  0
    3.0164   -3.3827    0.8325 C   0  0  0  0  0  0  0  0  0  0  0  0
    3.1399   -4.8185    0.3957 C   0  0  1  0  0  0  0  0  0  0  0  0
    4.6712   -4.9290    0.4309 C   0  0  1  0  0  0  0  0  0  0  0  0
    5.0598   -3.6489   -0.1426 O   0  0  0  0  0  0  0  0  0  0  0  0
    2.1809   -5.8407    0.8749 N   0  0  0  0  0  0  0  0  0  0  0  0
    1.1089   -5.9940   -0.1120 C   0  0  0  0  0  0  0  0  0  0  0  0
    2.7253   -7.1370    1.2475 C   0  0  0  0  0  0  0  0  0  0  0  0
    2.9805   -7.3263    2.7597 C   0  0  2  0  0  0  0  0  0  0  0  0
    2.1281   -8.2129    3.7255 C   0  0  1  0  0  0  0  0  0  0  0  0
    2.9906   -9.0333    4.6944 C   0  0  0  0  0  0  0  0  0  0  0  0
    4.0030   -8.1282    5.4386 C   0  0  0  0  0  0  0  0  0  0  0  0
    4.0540   -6.6479    4.9364 C   0  0  0  0  0  0  0  0  0  0  0  0
    2.9523   -6.2581    3.8771 C   0  0  1  0  0  0  0  0  0  0  0  0
    1.5747   -6.9006    4.3147 C   0  0  2  0  0  0  0  0  0  0  0  0
    1.3665   -6.8712    5.7082 O   0  0  0  0  0  0  0  0  0  0  0  0
    0.0958   -6.8389    3.8425 C   0  0  1  0  0  0  0  0  0  0  0  0
   -0.1671   -6.3298    2.5680 O   0  0  0  0  0  0  0  0  0  0  0  0
   -0.3046   -8.3339    3.7558 C   0  0  1  0  0  0  0  0  0  0  0  0
   -1.6165   -8.6581    3.0169 C   0  0  0  0  0  0  0  0  0  0  0  0
    0.9432   -9.0383    3.2019 C   0  0  0  0  0  0  0  0  0  0  0  0
    6.6807   -6.5298    1.1998 H   0  0  0  0  0  0  0  0  0  0  0  0
    6.6699   -6.1660    3.0089 H   0  0  0  0  0  0  0  0  0  0  0  0
    5.3257   -4.4866    3.8778 H   0  0  0  0  0  0  0  0  0  0  0  0
    4.7111   -3.2927    2.8608 H   0  0  0  0  0  0  0  0  0  0  0  0
    3.2297   -4.2797    4.5845 H   0  0  0  0  0  0  0  0  0  0  0  0
    1.1217   -4.4403    2.6938 H   0  0  0  0  0  0  0  0  0  0  0  0
    1.5854   -3.2828    3.8277 H   0  0  0  0  0  0  0  0  0  0  0  0
    1.8713   -0.9774    2.9055 H   0  0  0  0  0  0  0  0  0  0  0  0
    3.3444    0.3694    1.4378 H   0  0  0  0  0  0  0  0  0  0  0  0
    5.0616    0.2843   -0.1670 H   0  0  0  0  0  0  0  0  0  0  0  0
    2.9593   -4.7700   -0.6793 H   0  0  0  0  0  0  0  0  0  0  0  0
    5.0378   -5.7119   -0.2371 H   0  0  0  0  0  0  0  0  0  0  0  0
    0.3537   -6.7068    0.2062 H   0  0  0  0  0  0  0  0  0  0  0  0
    1.4369   -6.2788   -1.0930 H   0  0  0  0  0  0  0  0  0  0  0  0
    0.6300   -5.0603   -0.3417 H   0  0  0  0  0  0  0  0  0  0  0  0
    2.0720   -7.9265    0.8911 H   0  0  0  0  0  0  0  0  0  0  0  0
    3.6434   -7.3135    0.6880 H   0  0  0  0  0  0  0  0  0  0  0  0
    3.9704   -7.7652    2.7836 H   0  0  0  0  0  0  0  0  0  0  0  0
    2.3636   -9.5517    5.4196 H   0  0  0  0  0  0  0  0  0  0  0  0
    3.5221   -9.8164    4.1520 H   0  0  0  0  0  0  0  0  0  0  0  0
    3.7586   -8.1327    6.5045 H   0  0  0  0  0  0  0  0  0  0  0  0
    4.9977   -8.5780    5.3854 H   0  0  0  0  0  0  0  0  0  0  0  0
    4.0234   -5.9898    5.8077 H   0  0  0  0  0  0  0  0  0  0  0  0
    5.0578   -6.5261    4.5342 H   0  0  0  0  0  0  0  0  0  0  0  0
    2.1025   -7.3205    6.0884 H   0  0  0  0  0  0  0  0  0  0  0  0
   -0.5441   -6.3062    4.5528 H   0  0  0  0  0  0  0  0  0  0  0  0
    0.4856   -6.7252    2.0035 H   0  0  0  0  0  0  0  0  0  0  0  0
   -0.4186   -8.6901    4.7800 H   0  0  0  0  0  0  0  0  0  0  0  0
   -1.5778   -8.3912    1.9619 H   0  0  0  0  0  0  0  0  0  0  0  0
   -2.4571   -8.1375    3.4729 H   0  0  0  0  0  0  0  0  0  0  0  0
   -1.8209   -9.7244    3.0708 H   0  0  0  0  0  0  0  0  0  0  0  0
    0.8947   -9.0145    2.1186 H   0  0  0  0  0  0  0  0  0  0  0  0
    0.9828  -10.0940    3.4814 H   0  0  0  0  0  0  0  0  0  0  0  0
  1  2  2  0
  1 32  1  0
  1 33  1  0
  2 14  1  0
  2  3  1  0
  3  4  1  0
  3 34  1  0
  3 35  1  0
  4 24  1  0
  4  5  1  0
  4 36  1  1
  5  6  1  0
  5 37  1  0
  5 38  1  0
  6 12  2  0
  6  7  1  0
  7  8  2  0
  7 39  1  0
  8  9  1  0
  8 40  1  0
  9 10  1  0
  9 11  2  0
 10 41  1  0
 11 15  1  0
 11 12  1  0
 12 13  1  0
 13 14  1  0
 13 16  1  0
 13 42  1  6
 14 15  1  0
 14 43  1  6
 16 17  1  0
 16 18  1  0
 17 44  1  0
 17 45  1  0
 17 46  1  0
 18 19  1  0
 18 47  1  0
 18 48  1  0
 19 24  1  0
 19 20  1  0
 19 49  1  6
 20 25  1  0
 20 31  1  6
 20 21  1  0
 21 22  1  0
 21 50  1  0
 21 51  1  0
 22 23  1  0
 22 52  1  0
 22 53  1  0
 24 23  1  1
 23 54  1  0
 23 55  1  0
 24 25  1  0
 25 26  1  1
 25 27  1  0
 26 56  1  0
 27 28  1  0
 27 29  1  0
 27 57  1  1
 28 58  1  0
 29 30  1  0
 29 31  1  0
 29 59  1  1
 30 60  1  0
 30 61  1  0
 30 62  1  0
 31 63  1  0
 31 64  1  0
M  END
>  <i_m_ct_stereo_status>  (186) 
1

>  <s_m_source_file>  (186) 
/var/tmp/pbs.5076255.sched01/tmp7dp07en1/447ppmqug5.sdf

>  <i_m_source_file_index>  (186) 
37

>  <i_lp_mmshare_version>  (186) 
48012

>  <i_f3d_flags>  (186) 
0

>  <s_epik_input>  (186) 
W0NIM11bQ0BASF0oW0NIMl0xKVtDQEhdKFtPSF0pW0NAXTIoW09IXSlbQ0BdKFtDQEhdM1tDQF0xMjQpKFtDSDJdW0NIMl1bQ0gyXTQpW0NASF01W0NIMl1DKD1bQ0gyXSlbQ0BIXTZbQ0BASF0oTihbQ0gzXSlbQ0gyXTMpYzdjKFtDSDJdNSlbY0hdW2NIXWMoW09IXSljN082

>  <s_epik_cmdline>  (186) 
J2VwaWtfcHl0aG9uJywgJy1waHQnLCAnMi4wJywgJy1waCcsICc3LjAnLCAnLXRuJywgJzgnLCAnLW1hJywgJzIwMCcsICctaW1hZScsICc8aW5maWxlLm1hZT4nLCAnLW9tYWUnLCAnPG91dGZpbGUubWFlPic=

>  <r_lp_tautomer_probability>  (186) 
1

>  <r_epik_Ionization_Penalty>  (186) 
1.4905

>  <r_epik_Ionization_Penalty_Charging>  (186) 
0

>  <r_epik_Ionization_Penalty_Neutral>  (186) 
1.4905

>  <r_epik_State_Penalty>  (186) 
1.59583

>  <r_epik_Charging_Adjusted_Penalty>  (186) 
1.59583

>  <i_epik_Tot_Q>  (186) 
0

>  <i_epik_Tot_abs_Q>  (186) 
0

>  <s_lp_Force_Field>  (186) 
OPLS3e

>  <r_lp_Energy>  (186) 
164.151

>  <b_lp_Chiralities_Consistent>  (186) 
1

>  <s_lp_Variant>  (186) 
57:0-2

>  <s_i_glide_gridfile>  (186) 
pfpi4k_grid

>  <i_i_glide_lignum>  (186) 
37

>  <i_i_glide_rotatable_bonds>  (186) 
3

>  <r_i_docking_score>  (186) 
-2.65697

>  <r_i_glide_ligand_efficiency>  (186) 
-0.0857088

>  <r_i_glide_ligand_efficiency_sa>  (186) 
-0.269244

>  <r_i_glide_ligand_efficiency_ln>  (186) 
-0.599229

>  <r_i_glide_gscore>  (186) 
-2.65697

>  <r_i_glide_lipo>  (186) 
-0.156954

>  <r_i_glide_hbond>  (186) 
-0.16

>  <r_i_glide_metal>  (186) 
-0

>  <r_i_glide_rewards>  (186) 
-0.521287

>  <r_i_glide_evdw>  (186) 
-19.8003

>  <r_i_glide_ecoul>  (186) 
-5.52479

>  <r_i_glide_erotb>  (186) 
0

>  <r_i_glide_esite>  (186) 
0

>  <r_i_glide_emodel>  (186) 
-29.1758

>  <r_i_glide_energy>  (186) 
-25.3251

>  <r_i_glide_einternal>  (186) 
0.364487

>  <r_i_glide_intrahb_reward>  (186) 
-0

>  <i_i_glide_confnum>  (186) 
2

>  <i_i_glide_posenum>  (186) 
7

>  <r_i_glide_eff_state_penalty>  (186) 
0

>  <ligand_id>  (186) 
57

>  <original_smiles>  (186) 
C=C1CC2Cc3ccc(O)c4c3C(C1O4)N(C)CC1C34CCCC21C3(O)C(O)C(C)C4

>  <smiles>  (186) 
[H]Oc1c([H])c([H])c2c3c1OC1([H])C(=C([H])[H])C([H])([H])C([H])(C2([H])[H])C24C([H])([H])C([H])([H])C([H])([H])C5(C([H])([H])C([H])(C([H])([H])[H])C([H])(O[H])C52O[H])C4([H])C([H])([H])N(C([H])([H])[H])C31[H]

$$$$
57:1:1
     RDKit          3D

 64 70  0  0  1  0  0  0  0  0999 V2000
    5.0066   -0.2965    2.0609 C   0  0  0  0  0  0  0  0  0  0  0  0
    4.6124   -1.1221    1.0786 C   0  0  0  0  0  0  0  0  0  0  0  0
    3.1213   -1.4852    0.9205 C   0  0  0  0  0  0  0  0  0  0  0  0
    2.6302   -2.9467    1.2652 C   0  0  1  0  0  0  0  0  0  0  0  0
    2.5730   -3.9717    0.0538 C   0  0  0  0  0  0  0  0  0  0  0  0
    3.0511   -3.4700   -1.2983 C   0  0  0  0  0  0  0  0  0  0  0  0
    2.2498   -3.0935   -2.3947 C   0  0  0  0  0  0  0  0  0  0  0  0
    2.7193   -2.1391   -3.3237 C   0  0  0  0  0  0  0  0  0  0  0  0
    3.8991   -1.4141   -3.0460 C   0  0  0  0  0  0  0  0  0  0  0  0
    4.1978   -0.2995   -3.7628 O   0  0  0  0  0  0  0  0  0  0  0  0
    4.7125   -1.8027   -1.9521 C   0  0  0  0  0  0  0  0  0  0  0  0
    4.3609   -2.9546   -1.2870 C   0  0  0  0  0  0  0  0  0  0  0  0
    5.4360   -3.1462   -0.2529 C   0  0  1  0  0  0  0  0  0  0  0  0
    5.6638   -1.6696    0.0959 C   0  0  1  0  0  0  0  0  0  0  0  0
    5.6105   -1.0536   -1.2222 O   0  0  0  0  0  0  0  0  0  0  0  0
    5.3798   -4.2638    0.7156 N   0  0  0  0  0  0  0  0  0  0  0  0
    6.1655   -5.3817    0.1971 C   0  0  0  0  0  0  0  0  0  0  0  0
    5.7591   -3.9912    2.0909 C   0  0  0  0  0  0  0  0  0  0  0  0
    4.5645   -3.7195    3.0411 C   0  0  2  0  0  0  0  0  0  0  0  0
    4.0255   -4.6888    4.1427 C   0  0  1  0  0  0  0  0  0  0  0  0
    3.7009   -3.9720    5.4561 C   0  0  0  0  0  0  0  0  0  0  0  0
    2.7638   -2.7632    5.2155 C   0  0  0  0  0  0  0  0  0  0  0  0
    2.4985   -2.4317    3.7095 C   0  0  0  0  0  0  0  0  0  0  0  0
    3.0795   -3.4738    2.6797 C   0  0  1  0  0  0  0  0  0  0  0  0
    2.8089   -4.9317    3.2246 C   0  0  2  0  0  0  0  0  0  0  0  0
    1.5475   -5.0564    3.8541 O   0  0  0  0  0  0  0  0  0  0  0  0
    2.9762   -6.3876    2.7098 C   0  0  1  0  0  0  0  0  0  0  0  0
    3.7782   -6.5952    1.5862 O   0  0  0  0  0  0  0  0  0  0  0  0
    3.7148   -7.0892    3.8779 C   0  0  1  0  0  0  0  0  0  0  0  0
    4.3257   -8.4712    3.5837 C   0  0  0  0  0  0  0  0  0  0  0  0
    4.7069   -6.0387    4.3987 C   0  0  0  0  0  0  0  0  0  0  0  0
    6.0458   -0.0268    2.1755 H   0  0  0  0  0  0  0  0  0  0  0  0
    4.2996    0.1333    2.7532 H   0  0  0  0  0  0  0  0  0  0  0  0
    2.5551   -0.7905    1.5383 H   0  0  0  0  0  0  0  0  0  0  0  0
    2.7991   -1.1922   -0.0740 H   0  0  0  0  0  0  0  0  0  0  0  0
    1.5725   -2.7351    1.3947 H   0  0  0  0  0  0  0  0  0  0  0  0
    3.0042   -4.9390    0.2273 H   0  0  0  0  0  0  0  0  0  0  0  0
    1.5433   -4.2260   -0.1479 H   0  0  0  0  0  0  0  0  0  0  0  0
    1.2389   -3.4598   -2.4657 H   0  0  0  0  0  0  0  0  0  0  0  0
    2.0713   -1.8537   -4.1412 H   0  0  0  0  0  0  0  0  0  0  0  0
    3.4483    0.0353   -4.2300 H   0  0  0  0  0  0  0  0  0  0  0  0
    6.3241   -3.3576   -0.8509 H   0  0  0  0  0  0  0  0  0  0  0  0
    6.6666   -1.5018    0.4970 H   0  0  0  0  0  0  0  0  0  0  0  0
    6.1142   -6.2570    0.8405 H   0  0  0  0  0  0  0  0  0  0  0  0
    7.2207   -5.1248    0.0864 H   0  0  0  0  0  0  0  0  0  0  0  0
    5.7612   -5.6734   -0.7658 H   0  0  0  0  0  0  0  0  0  0  0  0
    6.3684   -4.8072    2.4684 H   0  0  0  0  0  0  0  0  0  0  0  0
    6.4537   -3.1529    2.0939 H   0  0  0  0  0  0  0  0  0  0  0  0
    4.8902   -2.8365    3.5801 H   0  0  0  0  0  0  0  0  0  0  0  0
    3.2316   -4.6604    6.1587 H   0  0  0  0  0  0  0  0  0  0  0  0
    4.6206   -3.6364    5.9371 H   0  0  0  0  0  0  0  0  0  0  0  0
    1.8085   -2.9569    5.7102 H   0  0  0  0  0  0  0  0  0  0  0  0
    3.1656   -1.8851    5.7274 H   0  0  0  0  0  0  0  0  0  0  0  0
    1.4248   -2.2875    3.5756 H   0  0  0  0  0  0  0  0  0  0  0  0
    2.9263   -1.4428    3.5625 H   0  0  0  0  0  0  0  0  0  0  0  0
    1.4954   -4.3439    4.4662 H   0  0  0  0  0  0  0  0  0  0  0  0
    2.0178   -6.8733    2.5106 H   0  0  0  0  0  0  0  0  0  0  0  0
    4.5565   -6.0700    1.7068 H   0  0  0  0  0  0  0  0  0  0  0  0
    2.9796   -7.2278    4.6718 H   0  0  0  0  0  0  0  0  0  0  0  0
    5.1129   -8.4246    2.8317 H   0  0  0  0  0  0  0  0  0  0  0  0
    3.5649   -9.1651    3.2275 H   0  0  0  0  0  0  0  0  0  0  0  0
    4.7605   -8.8959    4.4859 H   0  0  0  0  0  0  0  0  0  0  0  0
    5.6247   -6.1292    3.8273 H   0  0  0  0  0  0  0  0  0  0  0  0
    4.9776   -6.2052    5.4442 H   0  0  0  0  0  0  0  0  0  0  0  0
  1  2  2  0
  1 32  1  0
  1 33  1  0
  2 14  1  0
  2  3  1  0
  3  4  1  0
  3 34  1  0
  3 35  1  0
  4 24  1  0
  4  5  1  0
  4 36  1  1
  5  6  1  0
  5 37  1  0
  5 38  1  0
  6 12  2  0
  6  7  1  0
  7  8  2  0
  7 39  1  0
  8  9  1  0
  8 40  1  0
  9 10  1  0
  9 11  2  0
 10 41  1  0
 11 15  1  0
 11 12  1  0
 12 13  1  0
 13 14  1  0
 13 16  1  0
 13 42  1  6
 14 15  1  0
 14 43  1  1
 16 17  1  0
 16 18  1  0
 17 44  1  0
 17 45  1  0
 17 46  1  0
 18 19  1  0
 18 47  1  0
 18 48  1  0
 19 24  1  0
 19 20  1  0
 19 49  1  1
 20 25  1  0
 20 31  1  1
 20 21  1  0
 21 22  1  0
 21 50  1  0
 21 51  1  0
 22 23  1  0
 22 52  1  0
 22 53  1  0
 24 23  1  1
 23 54  1  0
 23 55  1  0
 24 25  1  0
 25 26  1  1
 25 27  1  0
 26 56  1  0
 27 28  1  0
 27 29  1  0
 27 57  1  6
 28 58  1  0
 29 30  1  0
 29 31  1  0
 29 59  1  1
 30 60  1  0
 30 61  1  0
 30 62  1  0
 31 63  1  0
 31 64  1  0
M  END
>  <i_m_ct_stereo_status>  (187) 
1

>  <s_m_source_file>  (187) 
/var/tmp/pbs.5076255.sched01/tmp7dp07en1/447ppmqug5.sdf

>  <i_m_source_file_index>  (187) 
37

>  <i_lp_mmshare_version>  (187) 
48012

>  <i_f3d_flags>  (187) 
0

>  <s_epik_input>  (187) 
W0NIM11bQ0BASF0oW0NIMl0xKVtDQEhdKFtPSF0pW0NAXTIoW09IXSlbQ0BdKFtDQEhdM1tDQF0xMjQpKFtDSDJdW0NIMl1bQ0gyXTQpW0NASF01W0NIMl1DKD1bQ0gyXSlbQ0BIXTZbQ0BASF0oTihbQ0gzXSlbQ0gyXTMpYzdjKFtDSDJdNSlbY0hdW2NIXWMoW09IXSljN082

>  <s_epik_cmdline>  (187) 
J2VwaWtfcHl0aG9uJywgJy1waHQnLCAnMi4wJywgJy1waCcsICc3LjAnLCAnLXRuJywgJzgnLCAnLW1hJywgJzIwMCcsICctaW1hZScsICc8aW5maWxlLm1hZT4nLCAnLW9tYWUnLCAnPG91dGZpbGUubWFlPic=

>  <r_lp_tautomer_probability>  (187) 
1

>  <r_epik_Ionization_Penalty>  (187) 
1.4905

>  <r_epik_Ionization_Penalty_Charging>  (187) 
0

>  <r_epik_Ionization_Penalty_Neutral>  (187) 
1.4905

>  <r_epik_State_Penalty>  (187) 
1.59583

>  <r_epik_Charging_Adjusted_Penalty>  (187) 
1.59583

>  <i_epik_Tot_Q>  (187) 
0

>  <i_epik_Tot_abs_Q>  (187) 
0

>  <s_lp_Force_Field>  (187) 
OPLS3e

>  <r_lp_Energy>  (187) 
164.151

>  <b_lp_Chiralities_Consistent>  (187) 
1

>  <s_lp_Variant>  (187) 
57:0-2

>  <s_i_glide_gridfile>  (187) 
pfpi4k_grid

>  <i_i_glide_lignum>  (187) 
37

>  <i_i_glide_rotatable_bonds>  (187) 
3

>  <r_i_docking_score>  (187) 
-2.63238

>  <r_i_glide_ligand_efficiency>  (187) 
-0.0849156

>  <r_i_glide_ligand_efficiency_sa>  (187) 
-0.266752

>  <r_i_glide_ligand_efficiency_ln>  (187) 
-0.593683

>  <r_i_glide_gscore>  (187) 
-2.63238

>  <r_i_glide_lipo>  (187) 
-0.731798

>  <r_i_glide_hbond>  (187) 
-0.0333468

>  <r_i_glide_metal>  (187) 
-0

>  <r_i_glide_rewards>  (187) 
-0.521287

>  <r_i_glide_evdw>  (187) 
-23.3673

>  <r_i_glide_ecoul>  (187) 
-1.18391

>  <r_i_glide_erotb>  (187) 
0

>  <r_i_glide_esite>  (187) 
0

>  <r_i_glide_emodel>  (187) 
-28.3188

>  <r_i_glide_energy>  (187) 
-24.5512

>  <r_i_glide_einternal>  (187) 
0.394952

>  <r_i_glide_intrahb_reward>  (187) 
-0

>  <i_i_glide_confnum>  (187) 
1

>  <i_i_glide_posenum>  (187) 
2

>  <r_i_glide_eff_state_penalty>  (187) 
0

>  <ligand_id>  (187) 
57

>  <original_smiles>  (187) 
C=C1CC2Cc3ccc(O)c4c3C(C1O4)N(C)CC1C34CCCC21C3(O)C(O)C(C)C4

>  <smiles>  (187) 
[H]Oc1c([H])c([H])c2c3c1OC1([H])C(=C([H])[H])C([H])([H])C([H])(C2([H])[H])C24C([H])([H])C([H])([H])C([H])([H])C5(C([H])([H])C([H])(C([H])([H])[H])C([H])(O[H])C52O[H])C4([H])C([H])([H])N(C([H])([H])[H])C31[H]

$$$$
57:1:2
     RDKit          3D

 64 70  0  0  1  0  0  0  0  0999 V2000
    6.1799   -6.0361    2.1602 C   0  0  0  0  0  0  0  0  0  0  0  0
    5.1622   -5.1805    1.9681 C   0  0  0  0  0  0  0  0  0  0  0  0
    4.5378   -4.4177    3.1629 C   0  0  0  0  0  0  0  0  0  0  0  0
    3.0791   -4.7859    3.6583 C   0  0  1  0  0  0  0  0  0  0  0  0
    1.8948   -3.9217    3.0580 C   0  0  0  0  0  0  0  0  0  0  0  0
    2.2472   -2.8828    1.9942 C   0  0  0  0  0  0  0  0  0  0  0  0
    2.3314   -1.4862    2.1827 C   0  0  0  0  0  0  0  0  0  0  0  0
    3.2340   -0.7191    1.4018 C   0  0  0  0  0  0  0  0  0  0  0  0
    4.1676   -1.3573    0.5560 C   0  0  0  0  0  0  0  0  0  0  0  0
    5.1853   -0.6565   -0.0169 O   0  0  0  0  0  0  0  0  0  0  0  0
    4.0779   -2.7607    0.3708 C   0  0  0  0  0  0  0  0  0  0  0  0
    2.9893   -3.4014    0.9160 C   0  0  0  0  0  0  0  0  0  0  0  0
    3.1263   -4.8311    0.4625 C   0  0  1  0  0  0  0  0  0  0  0  0
    4.6524   -4.9422    0.5355 C   0  0  1  0  0  0  0  0  0  0  0  0
    5.0542   -3.6515   -0.0093 O   0  0  0  0  0  0  0  0  0  0  0  0
    2.1525   -5.8575    0.8994 N   0  0  0  0  0  0  0  0  0  0  0  0
    1.1041   -5.9933   -0.1155 C   0  0  0  0  0  0  0  0  0  0  0  0
    2.6809   -7.1614    1.2723 C   0  0  0  0  0  0  0  0  0  0  0  0
    2.8977   -7.3736    2.7892 C   0  0  2  0  0  0  0  0  0  0  0  0
    2.0208   -8.2715    3.7212 C   0  0  1  0  0  0  0  0  0  0  0  0
    2.8594   -9.1109    4.6939 C   0  0  0  0  0  0  0  0  0  0  0  0
    3.8536   -8.2185    5.4757 C   0  0  0  0  0  0  0  0  0  0  0  0
    3.9171   -6.7299    4.9974 C   0  0  0  0  0  0  0  0  0  0  0  0
    2.8431   -6.3235    3.9168 C   0  0  1  0  0  0  0  0  0  0  0  0
    1.4529   -6.9624    4.3147 C   0  0  2  0  0  0  0  0  0  0  0  0
    1.2186   -6.9421    5.7047 O   0  0  0  0  0  0  0  0  0  0  0  0
   -0.0052   -6.9043    3.8018 C   0  0  1  0  0  0  0  0  0  0  0  0
   -0.1795   -6.3721    2.5265 O   0  0  0  0  0  0  0  0  0  0  0  0
   -0.4098   -8.3950    3.6793 C   0  0  1  0  0  0  0  0  0  0  0  0
   -1.7016   -8.7038    2.9021 C   0  0  0  0  0  0  0  0  0  0  0  0
    0.8515   -9.0932    3.1529 C   0  0  0  0  0  0  0  0  0  0  0  0
    6.6387   -6.5574    1.3315 H   0  0  0  0  0  0  0  0  0  0  0  0
    6.5805   -6.2209    3.1452 H   0  0  0  0  0  0  0  0  0  0  0  0
    5.2168   -4.5539    4.0038 H   0  0  0  0  0  0  0  0  0  0  0  0
    4.6273   -3.3453    2.9895 H   0  0  0  0  0  0  0  0  0  0  0  0
    3.1040   -4.3571    4.6607 H   0  0  0  0  0  0  0  0  0  0  0  0
    1.0463   -4.4766    2.7136 H   0  0  0  0  0  0  0  0  0  0  0  0
    1.4829   -3.3455    3.8772 H   0  0  0  0  0  0  0  0  0  0  0  0
    1.7906   -1.0248    2.9933 H   0  0  0  0  0  0  0  0  0  0  0  0
    3.2986    0.3420    1.5823 H   0  0  0  0  0  0  0  0  0  0  0  0
    5.0512    0.2823    0.0246 H   0  0  0  0  0  0  0  0  0  0  0  0
    2.9714   -4.7694   -0.6136 H   0  0  0  0  0  0  0  0  0  0  0  0
    5.0331   -5.7178   -0.1336 H   0  0  0  0  0  0  0  0  0  0  0  0
    0.3425   -6.7160    0.1708 H   0  0  0  0  0  0  0  0  0  0  0  0
    1.4651   -6.2521   -1.0923 H   0  0  0  0  0  0  0  0  0  0  0  0
    0.6274   -5.0599   -0.3410 H   0  0  0  0  0  0  0  0  0  0  0  0
    2.0362   -7.9420    0.8840 H   0  0  0  0  0  0  0  0  0  0  0  0
    3.6137   -7.3333    0.7340 H   0  0  0  0  0  0  0  0  0  0  0  0
    3.8876   -7.8125    2.8309 H   0  0  0  0  0  0  0  0  0  0  0  0
    2.2166   -9.6418    5.3961 H   0  0  0  0  0  0  0  0  0  0  0  0
    3.4052   -9.8858    4.1514 H   0  0  0  0  0  0  0  0  0  0  0  0
    3.5740   -8.2309    6.5323 H   0  0  0  0  0  0  0  0  0  0  0  0
    4.8490   -8.6670    5.4439 H   0  0  0  0  0  0  0  0  0  0  0  0
    3.8601   -6.0870    5.8780 H   0  0  0  0  0  0  0  0  0  0  0  0
    4.9303   -6.6014    4.6224 H   0  0  0  0  0  0  0  0  0  0  0  0
    1.3161   -7.8391    5.9960 H   0  0  0  0  0  0  0  0  0  0  0  0
   -0.6679   -6.3771    4.4915 H   0  0  0  0  0  0  0  0  0  0  0  0
    0.4591   -6.7959    1.9694 H   0  0  0  0  0  0  0  0  0  0  0  0
   -0.5547   -8.7673    4.6948 H   0  0  0  0  0  0  0  0  0  0  0  0
   -1.6358   -8.4205    1.8527 H   0  0  0  0  0  0  0  0  0  0  0  0
   -2.5540   -8.1904    3.3440 H   0  0  0  0  0  0  0  0  0  0  0  0
   -1.9105   -9.7710    2.9331 H   0  0  0  0  0  0  0  0  0  0  0  0
    0.8309   -9.0525    2.0686 H   0  0  0  0  0  0  0  0  0  0  0  0
    0.8834  -10.1546    3.4148 H   0  0  0  0  0  0  0  0  0  0  0  0
  1  2  2  0
  1 32  1  0
  1 33  1  0
  2 14  1  0
  2  3  1  0
  3  4  1  0
  3 34  1  0
  3 35  1  0
  4 24  1  0
  4  5  1  0
  4 36  1  1
  5  6  1  0
  5 37  1  0
  5 38  1  0
  6 12  2  0
  6  7  1  0
  7  8  2  0
  7 39  1  0
  8  9  1  0
  8 40  1  0
  9 10  1  0
  9 11  2  0
 10 41  1  0
 11 15  1  0
 11 12  1  0
 12 13  1  0
 13 14  1  0
 13 16  1  0
 13 42  1  6
 14 15  1  0
 14 43  1  6
 16 17  1  0
 16 18  1  0
 17 44  1  0
 17 45  1  0
 17 46  1  0
 18 19  1  0
 18 47  1  0
 18 48  1  0
 19 24  1  0
 19 20  1  0
 19 49  1  6
 20 25  1  0
 20 31  1  6
 20 21  1  0
 21 22  1  0
 21 50  1  0
 21 51  1  0
 22 23  1  0
 22 52  1  0
 22 53  1  0
 24 23  1  1
 23 54  1  0
 23 55  1  0
 24 25  1  0
 25 26  1  1
 25 27  1  0
 26 56  1  0
 27 28  1  0
 27 29  1  0
 27 57  1  1
 28 58  1  0
 29 30  1  0
 29 31  1  0
 29 59  1  1
 30 60  1  0
 30 61  1  0
 30 62  1  0
 31 63  1  0
 31 64  1  0
M  END
>  <i_m_ct_stereo_status>  (188) 
1

>  <s_m_source_file>  (188) 
/var/tmp/pbs.5076255.sched01/tmp7dp07en1/447ppmqug5.sdf

>  <i_m_source_file_index>  (188) 
37

>  <i_lp_mmshare_version>  (188) 
48012

>  <i_f3d_flags>  (188) 
0

>  <s_epik_input>  (188) 
W0NIM11bQ0BASF0oW0NIMl0xKVtDQEhdKFtPSF0pW0NAXTIoW09IXSlbQ0BdKFtDQEhdM1tDQF0xMjQpKFtDSDJdW0NIMl1bQ0gyXTQpW0NASF01W0NIMl1DKD1bQ0gyXSlbQ0BIXTZbQ0BASF0oTihbQ0gzXSlbQ0gyXTMpYzdjKFtDSDJdNSlbY0hdW2NIXWMoW09IXSljN082

>  <s_epik_cmdline>  (188) 
J2VwaWtfcHl0aG9uJywgJy1waHQnLCAnMi4wJywgJy1waCcsICc3LjAnLCAnLXRuJywgJzgnLCAnLW1hJywgJzIwMCcsICctaW1hZScsICc8aW5maWxlLm1hZT4nLCAnLW9tYWUnLCAnPG91dGZpbGUubWFlPic=

>  <r_lp_tautomer_probability>  (188) 
1

>  <r_epik_Ionization_Penalty>  (188) 
1.4905

>  <r_epik_Ionization_Penalty_Charging>  (188) 
0

>  <r_epik_Ionization_Penalty_Neutral>  (188) 
1.4905

>  <r_epik_State_Penalty>  (188) 
1.59583

>  <r_epik_Charging_Adjusted_Penalty>  (188) 
1.59583

>  <i_epik_Tot_Q>  (188) 
0

>  <i_epik_Tot_abs_Q>  (188) 
0

>  <s_lp_Force_Field>  (188) 
OPLS3e

>  <r_lp_Energy>  (188) 
164.151

>  <b_lp_Chiralities_Consistent>  (188) 
1

>  <s_lp_Variant>  (188) 
57:0-2

>  <s_i_glide_gridfile>  (188) 
pfpi4k_grid

>  <i_i_glide_lignum>  (188) 
37

>  <i_i_glide_rotatable_bonds>  (188) 
3

>  <r_i_docking_score>  (188) 
-2.61911

>  <r_i_glide_ligand_efficiency>  (188) 
-0.0844874

>  <r_i_glide_ligand_efficiency_sa>  (188) 
-0.265407

>  <r_i_glide_ligand_efficiency_ln>  (188) 
-0.59069

>  <r_i_glide_gscore>  (188) 
-2.61911

>  <r_i_glide_lipo>  (188) 
-0.130932

>  <r_i_glide_hbond>  (188) 
-0.16

>  <r_i_glide_metal>  (188) 
-0

>  <r_i_glide_rewards>  (188) 
-0.521287

>  <r_i_glide_evdw>  (188) 
-20.2668

>  <r_i_glide_ecoul>  (188) 
-5.29034

>  <r_i_glide_erotb>  (188) 
0

>  <r_i_glide_esite>  (188) 
0

>  <r_i_glide_emodel>  (188) 
-29.1141

>  <r_i_glide_energy>  (188) 
-25.5571

>  <r_i_glide_einternal>  (188) 
0.889159

>  <r_i_glide_intrahb_reward>  (188) 
-0

>  <i_i_glide_confnum>  (188) 
2

>  <i_i_glide_posenum>  (188) 
20

>  <r_i_glide_eff_state_penalty>  (188) 
0

>  <ligand_id>  (188) 
57

>  <original_smiles>  (188) 
C=C1CC2Cc3ccc(O)c4c3C(C1O4)N(C)CC1C34CCCC21C3(O)C(O)C(C)C4

>  <smiles>  (188) 
[H]Oc1c([H])c([H])c2c3c1OC1([H])C(=C([H])[H])C([H])([H])C([H])(C2([H])[H])C24C([H])([H])C([H])([H])C([H])([H])C5(C([H])([H])C([H])(C([H])([H])[H])C([H])(O[H])C52O[H])C4([H])C([H])([H])N(C([H])([H])[H])C31[H]

$$$$
57:2:0
     RDKit          3D

 64 70  0  0  1  0  0  0  0  0999 V2000
    3.7515   -3.4613    5.0692 C   0  0  0  0  0  0  0  0  0  0  0  0
    3.8943   -4.3621    4.0787 C   0  0  0  0  0  0  0  0  0  0  0  0
    5.2854   -4.6384    3.4505 C   0  0  0  0  0  0  0  0  0  0  0  0
    5.5780   -4.3304    1.9293 C   0  0  1  0  0  0  0  0  0  0  0  0
    5.3363   -5.5447    0.9294 C   0  0  0  0  0  0  0  0  0  0  0  0
    4.8228   -6.8813    1.4522 C   0  0  0  0  0  0  0  0  0  0  0  0
    5.6070   -8.0167    1.6843 C   0  0  0  0  0  0  0  0  0  0  0  0
    5.2390   -8.8922    2.7408 C   0  0  0  0  0  0  0  0  0  0  0  0
    4.2173   -8.5229    3.6874 C   0  0  0  0  0  0  0  0  0  0  0  0
    4.0610   -9.2038    4.8501 O   0  0  0  0  0  0  0  0  0  0  0  0
    3.4483   -7.3561    3.4106 C   0  0  0  0  0  0  0  0  0  0  0  0
    3.6502   -6.7249    2.1811 C   0  0  0  0  0  0  0  0  0  0  0  0
    2.6737   -5.6125    2.2412 C   0  0  1  0  0  0  0  0  0  0  0  0
    2.6891   -5.2297    3.7065 C   0  0  1  0  0  0  0  0  0  0  0  0
    2.7586   -6.5539    4.3159 O   0  0  0  0  0  0  0  0  0  0  0  0
    2.1218   -4.7704    1.1300 N   0  0  2  0  0  0  0  0  0  0  0  0
    1.3677   -5.6023    0.1499 C   0  0  0  0  0  0  0  0  0  0  0  0
    2.8603   -3.7743    0.3282 C   0  0  0  0  0  0  0  0  0  0  0  0
    3.7137   -2.7044    1.0017 C   0  0  2  0  0  0  0  0  0  0  0  0
    4.2586   -1.5088    0.1532 C   0  0  1  0  0  0  0  0  0  0  0  0
    4.3399   -0.2135    0.9632 C   0  0  0  0  0  0  0  0  0  0  0  0
    5.2034   -0.4042    2.2172 C   0  0  0  0  0  0  0  0  0  0  0  0
    5.5354   -1.8769    2.5432 C   0  0  0  0  0  0  0  0  0  0  0  0
    5.1540   -2.9149    1.4371 C   0  0  1  0  0  0  0  0  0  0  0  0
    5.5582   -2.2922    0.0350 C   0  0  2  0  0  0  0  0  0  0  0  0
    6.7340   -1.5467    0.0413 O   0  0  0  0  0  0  0  0  0  0  0  0
    5.5922   -2.8091   -1.4286 C   0  0  1  0  0  0  0  0  0  0  0  0
    5.7166   -4.1613   -1.6222 O   0  0  0  0  0  0  0  0  0  0  0  0
    4.4467   -2.1799   -2.2388 C   0  0  1  0  0  0  0  0  0  0  0  0
    3.5512   -3.1183   -3.0864 C   0  0  0  0  0  0  0  0  0  0  0  0
    3.7083   -1.2659   -1.2575 C   0  0  0  0  0  0  0  0  0  0  0  0
    2.8067   -3.3217    5.5735 H   0  0  0  0  0  0  0  0  0  0  0  0
    4.5918   -2.8870    5.4250 H   0  0  0  0  0  0  0  0  0  0  0  0
    5.9802   -4.0539    4.0372 H   0  0  0  0  0  0  0  0  0  0  0  0
    5.5926   -5.6567    3.6916 H   0  0  0  0  0  0  0  0  0  0  0  0
    6.6692   -4.2876    1.9315 H   0  0  0  0  0  0  0  0  0  0  0  0
    4.7177   -5.3751    0.0766 H   0  0  0  0  0  0  0  0  0  0  0  0
    6.3017   -5.7700    0.5065 H   0  0  0  0  0  0  0  0  0  0  0  0
    6.5364   -8.1579    1.1769 H   0  0  0  0  0  0  0  0  0  0  0  0
    5.8431   -9.7540    2.9570 H   0  0  0  0  0  0  0  0  0  0  0  0
    1.7605   -6.2016    2.3368 H   0  0  0  0  0  0  0  0  0  0  0  0
    1.7664   -4.7656    4.0723 H   0  0  0  0  0  0  0  0  0  0  0  0
    2.0625   -6.2615   -0.3166 H   0  0  0  0  0  0  0  0  0  0  0  0
    0.9386   -5.0584   -0.6945 H   0  0  0  0  0  0  0  0  0  0  0  0
    0.5599   -6.2048    0.5678 H   0  0  0  0  0  0  0  0  0  0  0  0
    3.3242   -4.1973   -0.5229 H   0  0  0  0  0  0  0  0  0  0  0  0
    2.0648   -3.2088   -0.1434 H   0  0  0  0  0  0  0  0  0  0  0  0
    3.1789   -2.2652    1.8224 H   0  0  0  0  0  0  0  0  0  0  0  0
    4.7999    0.5464    0.3540 H   0  0  0  0  0  0  0  0  0  0  0  0
    3.3504    0.1496    1.2316 H   0  0  0  0  0  0  0  0  0  0  0  0
    6.1612    0.0970    2.0860 H   0  0  0  0  0  0  0  0  0  0  0  0
    4.7512    0.1025    3.0723 H   0  0  0  0  0  0  0  0  0  0  0  0
    6.5981   -1.9400    2.7511 H   0  0  0  0  0  0  0  0  0  0  0  0
    5.0197   -2.0507    3.4722 H   0  0  0  0  0  0  0  0  0  0  0  0
    6.7236   -1.0361    0.8374 H   0  0  0  0  0  0  0  0  0  0  0  0
    6.5067   -2.4650   -1.9295 H   0  0  0  0  0  0  0  0  0  0  0  0
    4.9210   -4.6120   -1.3155 H   0  0  0  0  0  0  0  0  0  0  0  0
    4.9122   -1.5215   -2.9685 H   0  0  0  0  0  0  0  0  0  0  0  0
    2.9663   -3.8288   -2.5141 H   0  0  0  0  0  0  0  0  0  0  0  0
    4.1399   -3.6961   -3.7946 H   0  0  0  0  0  0  0  0  0  0  0  0
    2.8334   -2.5404   -3.6659 H   0  0  0  0  0  0  0  0  0  0  0  0
    2.6166   -1.4523   -1.3176 H   0  0  0  0  0  0  0  0  0  0  0  0
    3.8720   -0.2492   -1.5912 H   0  0  0  0  0  0  0  0  0  0  0  0
    1.4480   -4.2066    1.5992 H   0  0  0  0  0  0  0  0  0  0  0  0
  1  2  2  0
  1 32  1  0
  1 33  1  0
  2 14  1  0
  2  3  1  0
  3  4  1  0
  3 34  1  0
  3 35  1  0
  4 24  1  0
  4  5  1  0
  4 36  1  1
  5  6  1  0
  5 37  1  0
  5 38  1  0
  6 12  2  0
  6  7  1  0
  7  8  2  0
  7 39  1  0
  8  9  1  0
  8 40  1  0
  9 10  1  0
  9 11  2  0
 11 15  1  0
 11 12  1  0
 12 13  1  0
 13 14  1  0
 13 16  1  0
 13 41  1  1
 14 15  1  0
 14 42  1  1
 16 17  1  0
 16 18  1  0
 16 64  1  1
 17 43  1  0
 17 44  1  0
 17 45  1  0
 18 19  1  0
 18 46  1  0
 18 47  1  0
 19 24  1  0
 19 20  1  0
 19 48  1  1
 20 25  1  0
 20 31  1  6
 20 21  1  0
 21 22  1  0
 21 49  1  0
 21 50  1  0
 22 23  1  0
 22 51  1  0
 22 52  1  0
 24 23  1  1
 23 53  1  0
 23 54  1  0
 24 25  1  0
 25 26  1  1
 25 27  1  0
 26 55  1  0
 27 28  1  0
 27 29  1  0
 27 56  1  6
 28 57  1  0
 29 30  1  0
 29 31  1  0
 29 58  1  6
 30 59  1  0
 30 60  1  0
 30 61  1  0
 31 62  1  0
 31 63  1  0
M  CHG  2  10  -1  16   1
M  END
>  <i_m_ct_stereo_status>  (189) 
1

>  <s_m_source_file>  (189) 
/var/tmp/pbs.5076255.sched01/tmp7dp07en1/447ppmqug5.sdf

>  <i_m_source_file_index>  (189) 
38

>  <i_lp_mmshare_version>  (189) 
48012

>  <i_f3d_flags>  (189) 
0

>  <s_epik_input>  (189) 
W0NIM11bQ0BASF0oW0NIMl0xKVtDQEhdKFtPSF0pW0NAXTIoW09IXSlbQ0BdKFtDQEhdM1tDQF0xMjQpKFtDSDJdW0NIMl1bQ0gyXTQpW0NASF01W0NIMl1DKD1bQ0gyXSlbQ0BIXTZbQ0BASF0oTihbQ0gzXSlbQ0gyXTMpYzdjKFtDSDJdNSlbY0hdW2NIXWMoW09IXSljN082

>  <s_epik_cmdline>  (189) 
J2VwaWtfcHl0aG9uJywgJy1waHQnLCAnMi4wJywgJy1waCcsICc3LjAnLCAnLXRuJywgJzgnLCAnLW1hJywgJzIwMCcsICctaW1hZScsICc8aW5maWxlLm1hZT4nLCAnLW9tYWUnLCAnPG91dGZpbGUubWFlPic=

>  <r_epik_Ionization_Penalty>  (189) 
1.97807

>  <r_epik_Ionization_Penalty_Charging>  (189) 
1.97807

>  <r_epik_Ionization_Penalty_Neutral>  (189) 
4.101e-07

>  <r_epik_State_Penalty>  (189) 
2.10543

>  <r_epik_Charging_Adjusted_Penalty>  (189) 
4.08351

>  <i_epik_Tot_Q>  (189) 
0

>  <i_epik_Tot_abs_Q>  (189) 
2

>  <s_lp_Force_Field>  (189) 
OPLS3e

>  <r_lp_Energy>  (189) 
169.442

>  <b_lp_Chiralities_Consistent>  (189) 
1

>  <s_lp_Variant>  (189) 
57:0-3

>  <s_i_glide_gridfile>  (189) 
pfpi4k_grid

>  <i_i_glide_lignum>  (189) 
38

>  <i_i_glide_rotatable_bonds>  (189) 
2

>  <r_i_docking_score>  (189) 
-2.6067

>  <r_i_glide_ligand_efficiency>  (189) 
-0.084087

>  <r_i_glide_ligand_efficiency_sa>  (189) 
-0.264149

>  <r_i_glide_ligand_efficiency_ln>  (189) 
-0.58789

>  <r_i_glide_gscore>  (189) 
-2.6067

>  <r_i_glide_lipo>  (189) 
-0.732939

>  <r_i_glide_hbond>  (189) 
0

>  <r_i_glide_metal>  (189) 
-0

>  <r_i_glide_rewards>  (189) 
-0.521287

>  <r_i_glide_evdw>  (189) 
-14.8659

>  <r_i_glide_ecoul>  (189) 
-3.77158

>  <r_i_glide_erotb>  (189) 
0

>  <r_i_glide_esite>  (189) 
-0.0434416

>  <r_i_glide_emodel>  (189) 
-19.4539

>  <r_i_glide_energy>  (189) 
-18.6374

>  <r_i_glide_einternal>  (189) 
0.037247

>  <r_i_glide_intrahb_reward>  (189) 
-0

>  <i_i_glide_confnum>  (189) 
2

>  <i_i_glide_posenum>  (189) 
1

>  <r_i_glide_eff_state_penalty>  (189) 
0

>  <ligand_id>  (189) 
57

>  <original_smiles>  (189) 
C=C1CC2Cc3ccc(O)c4c3C(C1O4)N(C)CC1C34CCCC21C3(O)C(O)C(C)C4

>  <smiles>  (189) 
[H]OC1([H])C([H])(C([H])([H])[H])C([H])([H])C23C([H])([H])C([H])([H])C([H])([H])C4(C5([H])C([H])([H])C(=C([H])[H])C6([H])Oc7c([O-])c([H])c([H])c(c7C6([H])[N+]([H])(C([H])([H])[H])C([H])([H])C24[H])C5([H])[H])C13O[H]

$$$$
57:2:1
     RDKit          3D

 64 70  0  0  1  0  0  0  0  0999 V2000
    5.8060   -4.5841    3.9866 C   0  0  0  0  0  0  0  0  0  0  0  0
    4.6930   -4.6006    3.2502 C   0  0  0  0  0  0  0  0  0  0  0  0
    4.6116   -5.5139    1.9900 C   0  0  0  0  0  0  0  0  0  0  0  0
    4.3538   -4.9205    0.5590 C   0  0  1  0  0  0  0  0  0  0  0  0
    2.8473   -4.7882    0.1477 C   0  0  0  0  0  0  0  0  0  0  0  0
    1.8439   -5.2524    1.1184 C   0  0  0  0  0  0  0  0  0  0  0  0
    1.0774   -6.4285    1.0680 C   0  0  0  0  0  0  0  0  0  0  0  0
    0.5820   -6.9886    2.3134 C   0  0  0  0  0  0  0  0  0  0  0  0
    0.9761   -6.4251    3.5120 C   0  0  0  0  0  0  0  0  0  0  0  0
    0.7273   -7.0889    4.6940 O   0  0  0  0  0  0  0  0  0  0  0  0
    1.7103   -5.2287    3.5376 C   0  0  0  0  0  0  0  0  0  0  0  0
    1.8791   -4.5591    2.3124 C   0  0  0  0  0  0  0  0  0  0  0  0
    2.5978   -3.3099    2.7212 C   0  0  1  0  0  0  0  0  0  0  0  0
    3.4865   -3.8325    3.8159 C   0  0  1  0  0  0  0  0  0  0  0  0
    2.5475   -4.7036    4.5023 O   0  0  0  0  0  0  0  0  0  0  0  0
    2.7668   -1.9604    2.0125 N   0  0  2  0  0  0  0  0  0  0  0  0
    1.4649   -1.2227    1.8559 C   0  0  0  0  0  0  0  0  0  0  0  0
    3.5298   -1.7950    0.7220 C   0  0  0  0  0  0  0  0  0  0  0  0
    4.9495   -2.3347    0.5875 C   0  0  2  0  0  0  0  0  0  0  0  0
    5.7835   -1.8607   -0.6198 C   0  0  1  0  0  0  0  0  0  0  0  0
    7.2951   -1.7700   -0.2626 C   0  0  0  0  0  0  0  0  0  0  0  0
    7.8550   -3.0975    0.2560 C   0  0  0  0  0  0  0  0  0  0  0  0
    6.7608   -4.1303    0.6050 C   0  0  0  0  0  0  0  0  0  0  0  0
    5.3046   -3.7527    0.1200 C   0  0  1  0  0  0  0  0  0  0  0  0
    5.3628   -3.1179   -1.3359 C   0  0  2  0  0  0  0  0  0  0  0  0
    6.3696   -3.5612   -2.1689 O   0  0  0  0  0  0  0  0  0  0  0  0
    4.3386   -2.8018   -2.4494 C   0  0  1  0  0  0  0  0  0  0  0  0
    3.0849   -3.4431   -2.4468 O   0  0  0  0  0  0  0  0  0  0  0  0
    4.3786   -1.2865   -2.6191 C   0  0  1  0  0  0  0  0  0  0  0  0
    3.0448   -0.6293   -2.7016 C   0  0  0  0  0  0  0  0  0  0  0  0
    5.2648   -0.7203   -1.4941 C   0  0  0  0  0  0  0  0  0  0  0  0
    5.8414   -4.0084    4.9092 H   0  0  0  0  0  0  0  0  0  0  0  0
    6.6385   -5.1781    3.6826 H   0  0  0  0  0  0  0  0  0  0  0  0
    5.5545   -6.0553    1.9601 H   0  0  0  0  0  0  0  0  0  0  0  0
    3.8993   -6.3148    2.1955 H   0  0  0  0  0  0  0  0  0  0  0  0
    4.6949   -5.7501   -0.0688 H   0  0  0  0  0  0  0  0  0  0  0  0
    2.5150   -3.8479   -0.2329 H   0  0  0  0  0  0  0  0  0  0  0  0
    2.7439   -5.4673   -0.7113 H   0  0  0  0  0  0  0  0  0  0  0  0
    0.9657   -6.9885    0.1331 H   0  0  0  0  0  0  0  0  0  0  0  0
    0.0471   -7.9192    2.2535 H   0  0  0  0  0  0  0  0  0  0  0  0
    1.8501   -2.9057    3.3819 H   0  0  0  0  0  0  0  0  0  0  0  0
    3.8253   -3.0545    4.4932 H   0  0  0  0  0  0  0  0  0  0  0  0
    0.8503   -1.8397    1.2173 H   0  0  0  0  0  0  0  0  0  0  0  0
    1.5941   -0.2532    1.3705 H   0  0  0  0  0  0  0  0  0  0  0  0
    0.9131   -1.0915    2.7751 H   0  0  0  0  0  0  0  0  0  0  0  0
    2.9014   -1.9799   -0.1393 H   0  0  0  0  0  0  0  0  0  0  0  0
    3.6199   -0.7249    0.6738 H   0  0  0  0  0  0  0  0  0  0  0  0
    5.5277   -2.1013    1.4721 H   0  0  0  0  0  0  0  0  0  0  0  0
    7.9516   -1.6197   -1.1118 H   0  0  0  0  0  0  0  0  0  0  0  0
    7.4816   -0.9613    0.4482 H   0  0  0  0  0  0  0  0  0  0  0  0
    8.5049   -3.5088   -0.5160 H   0  0  0  0  0  0  0  0  0  0  0  0
    8.5236   -2.9198    1.0878 H   0  0  0  0  0  0  0  0  0  0  0  0
    7.0686   -5.0988    0.2208 H   0  0  0  0  0  0  0  0  0  0  0  0
    6.8329   -4.1845    1.6842 H   0  0  0  0  0  0  0  0  0  0  0  0
    6.0239   -4.4039   -2.4021 H   0  0  0  0  0  0  0  0  0  0  0  0
    4.6906   -3.1082   -3.4464 H   0  0  0  0  0  0  0  0  0  0  0  0
    3.2275   -4.3838   -2.5234 H   0  0  0  0  0  0  0  0  0  0  0  0
    4.8471   -1.0303   -3.5735 H   0  0  0  0  0  0  0  0  0  0  0  0
    2.6720   -0.7038   -1.7004 H   0  0  0  0  0  0  0  0  0  0  0  0
    2.3622   -1.0865   -3.4341 H   0  0  0  0  0  0  0  0  0  0  0  0
    3.2101    0.4238   -2.9623 H   0  0  0  0  0  0  0  0  0  0  0  0
    4.8098    0.0594   -0.8803 H   0  0  0  0  0  0  0  0  0  0  0  0
    6.0647   -0.2780   -2.0638 H   0  0  0  0  0  0  0  0  0  0  0  0
    3.2774   -1.3777    2.6790 H   0  0  0  0  0  0  0  0  0  0  0  0
  1  2  2  0
  1 32  1  0
  1 33  1  0
  2 14  1  0
  2  3  1  0
  3  4  1  0
  3 34  1  0
  3 35  1  0
  4 24  1  0
  4  5  1  0
  4 36  1  6
  5  6  1  0
  5 37  1  0
  5 38  1  0
  6 12  2  0
  6  7  1  0
  7  8  2  0
  7 39  1  0
  8  9  1  0
  8 40  1  0
  9 10  1  0
  9 11  2  0
 11 15  1  0
 11 12  1  0
 12 13  1  0
 13 14  1  0
 13 16  1  0
 13 41  1  1
 14 15  1  0
 14 42  1  1
 16 17  1  0
 16 18  1  0
 16 64  1  1
 17 43  1  0
 17 44  1  0
 17 45  1  0
 18 19  1  0
 18 46  1  0
 18 47  1  0
 19 24  1  0
 19 20  1  0
 19 48  1  1
 20 25  1  0
 20 31  1  6
 20 21  1  0
 21 22  1  0
 21 49  1  0
 21 50  1  0
 22 23  1  0
 22 51  1  0
 22 52  1  0
 24 23  1  1
 23 53  1  0
 23 54  1  0
 24 25  1  0
 25 26  1  6
 25 27  1  0
 26 55  1  0
 27 28  1  0
 27 29  1  0
 27 56  1  6
 28 57  1  0
 29 30  1  0
 29 31  1  0
 29 58  1  6
 30 59  1  0
 30 60  1  0
 30 61  1  0
 31 62  1  0
 31 63  1  0
M  CHG  2  10  -1  16   1
M  END
>  <i_m_ct_stereo_status>  (190) 
1

>  <s_m_source_file>  (190) 
/var/tmp/pbs.5076255.sched01/tmp7dp07en1/447ppmqug5.sdf

>  <i_m_source_file_index>  (190) 
38

>  <i_lp_mmshare_version>  (190) 
48012

>  <i_f3d_flags>  (190) 
0

>  <s_epik_input>  (190) 
W0NIM11bQ0BASF0oW0NIMl0xKVtDQEhdKFtPSF0pW0NAXTIoW09IXSlbQ0BdKFtDQEhdM1tDQF0xMjQpKFtDSDJdW0NIMl1bQ0gyXTQpW0NASF01W0NIMl1DKD1bQ0gyXSlbQ0BIXTZbQ0BASF0oTihbQ0gzXSlbQ0gyXTMpYzdjKFtDSDJdNSlbY0hdW2NIXWMoW09IXSljN082

>  <s_epik_cmdline>  (190) 
J2VwaWtfcHl0aG9uJywgJy1waHQnLCAnMi4wJywgJy1waCcsICc3LjAnLCAnLXRuJywgJzgnLCAnLW1hJywgJzIwMCcsICctaW1hZScsICc8aW5maWxlLm1hZT4nLCAnLW9tYWUnLCAnPG91dGZpbGUubWFlPic=

>  <r_epik_Ionization_Penalty>  (190) 
1.97807

>  <r_epik_Ionization_Penalty_Charging>  (190) 
1.97807

>  <r_epik_Ionization_Penalty_Neutral>  (190) 
4.101e-07

>  <r_epik_State_Penalty>  (190) 
2.10543

>  <r_epik_Charging_Adjusted_Penalty>  (190) 
4.08351

>  <i_epik_Tot_Q>  (190) 
0

>  <i_epik_Tot_abs_Q>  (190) 
2

>  <s_lp_Force_Field>  (190) 
OPLS3e

>  <r_lp_Energy>  (190) 
169.442

>  <b_lp_Chiralities_Consistent>  (190) 
1

>  <s_lp_Variant>  (190) 
57:0-3

>  <s_i_glide_gridfile>  (190) 
pfpi4k_grid

>  <i_i_glide_lignum>  (190) 
38

>  <i_i_glide_rotatable_bonds>  (190) 
2

>  <r_i_docking_score>  (190) 
-2.44924

>  <r_i_glide_ligand_efficiency>  (190) 
-0.0790077

>  <r_i_glide_ligand_efficiency_sa>  (190) 
-0.248193

>  <r_i_glide_ligand_efficiency_ln>  (190) 
-0.552379

>  <r_i_glide_gscore>  (190) 
-2.44924

>  <r_i_glide_lipo>  (190) 
-0.55008

>  <r_i_glide_hbond>  (190) 
0

>  <r_i_glide_metal>  (190) 
-0

>  <r_i_glide_rewards>  (190) 
-0.521287

>  <r_i_glide_evdw>  (190) 
-7.37926

>  <r_i_glide_ecoul>  (190) 
-6.60072

>  <r_i_glide_erotb>  (190) 
0

>  <r_i_glide_esite>  (190) 
-0.0188025

>  <r_i_glide_emodel>  (190) 
-12.3268

>  <r_i_glide_energy>  (190) 
-13.98

>  <r_i_glide_einternal>  (190) 
0.875186

>  <r_i_glide_intrahb_reward>  (190) 
-0

>  <i_i_glide_confnum>  (190) 
2

>  <i_i_glide_posenum>  (190) 
2

>  <r_i_glide_eff_state_penalty>  (190) 
0

>  <ligand_id>  (190) 
57

>  <original_smiles>  (190) 
C=C1CC2Cc3ccc(O)c4c3C(C1O4)N(C)CC1C34CCCC21C3(O)C(O)C(C)C4

>  <smiles>  (190) 
[H]OC1([H])C([H])(C([H])([H])[H])C([H])([H])C23C([H])([H])C([H])([H])C([H])([H])C4(C5([H])C([H])([H])C(=C([H])[H])C6([H])Oc7c([O-])c([H])c([H])c(c7C6([H])[N+]([H])(C([H])([H])[H])C([H])([H])C24[H])C5([H])[H])C13O[H]

$$$$
57:2:2
     RDKit          3D

 64 70  0  0  1  0  0  0  0  0999 V2000
    3.1138   -4.4091    5.3284 C   0  0  0  0  0  0  0  0  0  0  0  0
    4.1041   -4.8518    4.5350 C   0  0  0  0  0  0  0  0  0  0  0  0
    5.3721   -3.9883    4.2966 C   0  0  0  0  0  0  0  0  0  0  0  0
    5.7161   -3.4657    2.8413 C   0  0  1  0  0  0  0  0  0  0  0  0
    6.7092   -4.3857    1.9944 C   0  0  0  0  0  0  0  0  0  0  0  0
    7.1659   -5.7246    2.5550 C   0  0  0  0  0  0  0  0  0  0  0  0
    8.4249   -5.9802    3.1284 C   0  0  0  0  0  0  0  0  0  0  0  0
    8.5285   -6.9386    4.1871 C   0  0  0  0  0  0  0  0  0  0  0  0
    7.3632   -7.4695    4.7681 C   0  0  0  0  0  0  0  0  0  0  0  0
    7.4391   -8.1833    5.9488 O   0  0  0  0  0  0  0  0  0  0  0  0
    6.0963   -7.1998    4.1841 C   0  0  0  0  0  0  0  0  0  0  0  0
    6.0964   -6.5217    2.9496 C   0  0  0  0  0  0  0  0  0  0  0  0
    4.6364   -6.4607    2.6182 C   0  0  1  0  0  0  0  0  0  0  0  0
    4.0210   -6.2905    4.0018 C   0  0  1  0  0  0  0  0  0  0  0  0
    4.8495   -7.2007    4.7788 O   0  0  0  0  0  0  0  0  0  0  0  0
    3.9446   -6.1863    1.3034 N   0  0  2  0  0  0  0  0  0  0  0  0
    4.3266   -7.2057    0.2969 C   0  0  0  0  0  0  0  0  0  0  0  0
    3.9711   -4.8750    0.5887 C   0  0  0  0  0  0  0  0  0  0  0  0
    3.6077   -3.5646    1.2962 C   0  0  2  0  0  0  0  0  0  0  0  0
    3.3942   -2.2509    0.4655 C   0  0  1  0  0  0  0  0  0  0  0  0
    2.3425   -1.3325    1.1053 C   0  0  0  0  0  0  0  0  0  0  0  0
    2.6938   -0.9587    2.5477 C   0  0  0  0  0  0  0  0  0  0  0  0
    3.8521   -1.7991    3.1304 C   0  0  0  0  0  0  0  0  0  0  0  0
    4.5901   -2.7274    2.0946 C   0  0  1  0  0  0  0  0  0  0  0  0
    4.8492   -1.8865    0.7757 C   0  0  2  0  0  0  0  0  0  0  0  0
    5.1085   -0.5195    0.9997 O   0  0  0  0  0  0  0  0  0  0  0  0
    5.6396   -2.0982   -0.5529 C   0  0  1  0  0  0  0  0  0  0  0  0
    6.7897   -2.8974   -0.5612 O   0  0  0  0  0  0  0  0  0  0  0  0
    4.6278   -2.4078   -1.6886 C   0  0  1  0  0  0  0  0  0  0  0  0
    4.9318   -3.6193   -2.6010 C   0  0  0  0  0  0  0  0  0  0  0  0
    3.2194   -2.3858   -1.0546 C   0  0  0  0  0  0  0  0  0  0  0  0
    2.2573   -5.0283    5.5584 H   0  0  0  0  0  0  0  0  0  0  0  0
    3.1619   -3.4354    5.7980 H   0  0  0  0  0  0  0  0  0  0  0  0
    5.2850   -3.1200    4.9456 H   0  0  0  0  0  0  0  0  0  0  0  0
    6.2208   -4.5030    4.7427 H   0  0  0  0  0  0  0  0  0  0  0  0
    6.2874   -2.5693    3.0246 H   0  0  0  0  0  0  0  0  0  0  0  0
    6.4280   -4.6307    1.0012 H   0  0  0  0  0  0  0  0  0  0  0  0
    7.6251   -3.8383    1.8322 H   0  0  0  0  0  0  0  0  0  0  0  0
    9.2760   -5.3826    2.8852 H   0  0  0  0  0  0  0  0  0  0  0  0
    9.4913   -7.1078    4.6528 H   0  0  0  0  0  0  0  0  0  0  0  0
    4.4380   -7.5323    2.5750 H   0  0  0  0  0  0  0  0  0  0  0  0
    2.9923   -6.6534    4.0644 H   0  0  0  0  0  0  0  0  0  0  0  0
    5.3890   -7.1497    0.1152 H   0  0  0  0  0  0  0  0  0  0  0  0
    3.8743   -7.0188   -0.6649 H   0  0  0  0  0  0  0  0  0  0  0  0
    4.0859   -8.2304    0.5718 H   0  0  0  0  0  0  0  0  0  0  0  0
    4.8274   -4.7686   -0.0392 H   0  0  0  0  0  0  0  0  0  0  0  0
    3.1957   -4.9991   -0.1560 H   0  0  0  0  0  0  0  0  0  0  0  0
    2.7324   -3.7200    1.9136 H   0  0  0  0  0  0  0  0  0  0  0  0
    2.2146   -0.4152    0.5296 H   0  0  0  0  0  0  0  0  0  0  0  0
    1.3915   -1.8573    1.1171 H   0  0  0  0  0  0  0  0  0  0  0  0
    2.9568    0.0989    2.5759 H   0  0  0  0  0  0  0  0  0  0  0  0
    1.8014   -1.0373    3.1705 H   0  0  0  0  0  0  0  0  0  0  0  0
    4.5479   -1.1311    3.6457 H   0  0  0  0  0  0  0  0  0  0  0  0
    3.3769   -2.3733    3.9071 H   0  0  0  0  0  0  0  0  0  0  0  0
    4.2826   -0.1222    1.2268 H   0  0  0  0  0  0  0  0  0  0  0  0
    6.0877   -1.1474   -0.8649 H   0  0  0  0  0  0  0  0  0  0  0  0
    6.5371   -3.7648   -0.2911 H   0  0  0  0  0  0  0  0  0  0  0  0
    4.6611   -1.5499   -2.3626 H   0  0  0  0  0  0  0  0  0  0  0  0
    4.9014   -4.5797   -2.0969 H   0  0  0  0  0  0  0  0  0  0  0  0
    5.9157   -3.5297   -3.0631 H   0  0  0  0  0  0  0  0  0  0  0  0
    4.2034   -3.6737   -3.4075 H   0  0  0  0  0  0  0  0  0  0  0  0
    2.6311   -3.2609   -1.3336 H   0  0  0  0  0  0  0  0  0  0  0  0
    2.6844   -1.5351   -1.4745 H   0  0  0  0  0  0  0  0  0  0  0  0
    2.9745   -6.3669    1.4784 H   0  0  0  0  0  0  0  0  0  0  0  0
  1  2  2  0
  1 32  1  0
  1 33  1  0
  2 14  1  0
  2  3  1  0
  3  4  1  0
  3 34  1  0
  3 35  1  0
  4 24  1  0
  4  5  1  0
  4 36  1  1
  5  6  1  0
  5 37  1  0
  5 38  1  0
  6 12  2  0
  6  7  1  0
  7  8  2  0
  7 39  1  0
  8  9  1  0
  8 40  1  0
  9 10  1  0
  9 11  2  0
 11 15  1  0
 11 12  1  0
 12 13  1  0
 13 14  1  0
 13 16  1  0
 13 41  1  6
 14 15  1  0
 14 42  1  6
 16 17  1  0
 16 18  1  0
 16 64  1  1
 17 43  1  0
 17 44  1  0
 17 45  1  0
 18 19  1  0
 18 46  1  0
 18 47  1  0
 19 24  1  0
 19 20  1  0
 19 48  1  1
 20 25  1  0
 20 31  1  6
 20 21  1  0
 21 22  1  0
 21 49  1  0
 21 50  1  0
 22 23  1  0
 22 51  1  0
 22 52  1  0
 24 23  1  1
 23 53  1  0
 23 54  1  0
 24 25  1  0
 25 26  1  1
 25 27  1  0
 26 55  1  0
 27 28  1  0
 27 29  1  0
 27 56  1  6
 28 57  1  0
 29 30  1  0
 29 31  1  0
 29 58  1  6
 30 59  1  0
 30 60  1  0
 30 61  1  0
 31 62  1  0
 31 63  1  0
M  CHG  2  10  -1  16   1
M  END
>  <i_m_ct_stereo_status>  (191) 
1

>  <s_m_source_file>  (191) 
/var/tmp/pbs.5076255.sched01/tmp7dp07en1/447ppmqug5.sdf

>  <i_m_source_file_index>  (191) 
38

>  <i_lp_mmshare_version>  (191) 
48012

>  <i_f3d_flags>  (191) 
0

>  <s_epik_input>  (191) 
W0NIM11bQ0BASF0oW0NIMl0xKVtDQEhdKFtPSF0pW0NAXTIoW09IXSlbQ0BdKFtDQEhdM1tDQF0xMjQpKFtDSDJdW0NIMl1bQ0gyXTQpW0NASF01W0NIMl1DKD1bQ0gyXSlbQ0BIXTZbQ0BASF0oTihbQ0gzXSlbQ0gyXTMpYzdjKFtDSDJdNSlbY0hdW2NIXWMoW09IXSljN082

>  <s_epik_cmdline>  (191) 
J2VwaWtfcHl0aG9uJywgJy1waHQnLCAnMi4wJywgJy1waCcsICc3LjAnLCAnLXRuJywgJzgnLCAnLW1hJywgJzIwMCcsICctaW1hZScsICc8aW5maWxlLm1hZT4nLCAnLW9tYWUnLCAnPG91dGZpbGUubWFlPic=

>  <r_epik_Ionization_Penalty>  (191) 
1.97807

>  <r_epik_Ionization_Penalty_Charging>  (191) 
1.97807

>  <r_epik_Ionization_Penalty_Neutral>  (191) 
4.101e-07

>  <r_epik_State_Penalty>  (191) 
2.10543

>  <r_epik_Charging_Adjusted_Penalty>  (191) 
4.08351

>  <i_epik_Tot_Q>  (191) 
0

>  <i_epik_Tot_abs_Q>  (191) 
2

>  <s_lp_Force_Field>  (191) 
OPLS3e

>  <r_lp_Energy>  (191) 
169.442

>  <b_lp_Chiralities_Consistent>  (191) 
1

>  <s_lp_Variant>  (191) 
57:0-3

>  <s_i_glide_gridfile>  (191) 
pfpi4k_grid

>  <i_i_glide_lignum>  (191) 
38

>  <i_i_glide_rotatable_bonds>  (191) 
2

>  <r_i_docking_score>  (191) 
-2.02658

>  <r_i_glide_ligand_efficiency>  (191) 
-0.0653736

>  <r_i_glide_ligand_efficiency_sa>  (191) 
-0.205363

>  <r_i_glide_ligand_efficiency_ln>  (191) 
-0.457056

>  <r_i_glide_gscore>  (191) 
-2.02658

>  <r_i_glide_lipo>  (191) 
-0.391332

>  <r_i_glide_hbond>  (191) 
0

>  <r_i_glide_metal>  (191) 
-0

>  <r_i_glide_rewards>  (191) 
-0.521287

>  <r_i_glide_evdw>  (191) 
-14.0759

>  <r_i_glide_ecoul>  (191) 
-2.73444

>  <r_i_glide_erotb>  (191) 
0

>  <r_i_glide_esite>  (191) 
0

>  <r_i_glide_emodel>  (191) 
-16.3983

>  <r_i_glide_energy>  (191) 
-16.8103

>  <r_i_glide_einternal>  (191) 
0.460609

>  <r_i_glide_intrahb_reward>  (191) 
-0

>  <i_i_glide_confnum>  (191) 
2

>  <i_i_glide_posenum>  (191) 
37

>  <r_i_glide_eff_state_penalty>  (191) 
0

>  <ligand_id>  (191) 
57

>  <original_smiles>  (191) 
C=C1CC2Cc3ccc(O)c4c3C(C1O4)N(C)CC1C34CCCC21C3(O)C(O)C(C)C4

>  <smiles>  (191) 
[H]OC1([H])C([H])(C([H])([H])[H])C([H])([H])C23C([H])([H])C([H])([H])C([H])([H])C4(C5([H])C([H])([H])C(=C([H])[H])C6([H])Oc7c([O-])c([H])c([H])c(c7C6([H])[N+]([H])(C([H])([H])[H])C([H])([H])C24[H])C5([H])[H])C13O[H]

$$$$
58:0:0
     RDKit          3D

 55 60  0  0  1  0  0  0  0  0999 V2000
    1.1007    2.9289    2.9594 C   0  0  0  0  0  0  0  0  0  0  0  0
    1.6812    1.7352    3.7346 C   0  0  2  0  0  0  0  0  0  0  0  0
    2.9330    2.1404    4.4999 C   0  0  0  0  0  0  0  0  0  0  0  0
    3.4098    3.2719    4.4857 O   0  0  0  0  0  0  0  0  0  0  0  0
    3.5288    1.0370    5.3336 C   0  0  0  0  0  0  0  0  0  0  0  0
    3.9220   -0.1049    4.4408 C   0  0  2  0  0  0  0  0  0  0  0  0
    4.6820   -1.1543    5.0862 O   0  0  0  0  0  0  0  0  0  0  0  0
    5.3760   -0.3391    4.1009 C   0  0  1  0  0  0  0  0  0  0  0  0
    5.7877   -1.0410    2.8524 C   0  0  0  0  0  0  0  0  0  0  0  0
    4.6505   -1.1168    1.8355 C   0  0  2  0  0  0  0  0  0  0  0  0
    3.3457   -1.6692    2.4757 C   0  0  1  0  0  0  0  0  0  0  0  0
    3.3963   -3.1027    3.0771 C   0  0  0  0  0  0  0  0  0  0  0  0
    4.3526   -4.1620    2.4798 C   0  0  0  0  0  0  0  0  0  0  0  0
    4.4327   -4.2786    0.9519 C   0  0  1  0  0  0  0  0  0  0  0  0
    3.0545   -4.4963    0.2625 C   0  0  0  0  0  0  0  0  0  0  0  0
    2.7455   -3.3617   -0.6827 C   0  0  0  0  0  0  0  0  0  0  0  0
    3.7928   -2.7252   -1.2343 C   0  0  0  0  0  0  0  0  0  0  0  0
    4.0486   -1.3587   -0.6707 C   0  0  0  0  0  0  0  0  0  0  0  0
    5.0683   -1.6768    0.4430 C   0  0  1  0  0  0  0  0  0  0  0  0
    6.1590   -0.9919    0.0814 F   0  0  0  0  0  0  0  0  0  0  0  0
    5.3696   -3.2155    0.2669 C   0  0  1  0  0  0  0  0  0  0  0  0
    6.8634   -3.5762    0.3674 C   0  0  0  0  0  0  0  0  0  0  0  0
    4.9871   -3.3777   -1.0758 O   0  0  0  0  0  0  0  0  0  0  0  0
    2.7868   -0.6371    3.5458 C   0  0  2  0  0  0  0  0  0  0  0  0
    1.9405    0.4835    2.8522 C   0  0  1  0  0  0  0  0  0  0  0  0
    0.5819   -0.0797    2.4019 C   0  0  0  0  0  0  0  0  0  0  0  0
    0.9512    3.7930    3.6047 H   0  0  0  0  0  0  0  0  0  0  0  0
    0.1296    2.6998    2.5278 H   0  0  0  0  0  0  0  0  0  0  0  0
    1.7616    3.2382    2.1475 H   0  0  0  0  0  0  0  0  0  0  0  0
    0.9577    1.4615    4.5058 H   0  0  0  0  0  0  0  0  0  0  0  0
    4.4170    1.4134    5.8413 H   0  0  0  0  0  0  0  0  0  0  0  0
    2.8160    0.7128    6.0883 H   0  0  0  0  0  0  0  0  0  0  0  0
    6.1216    0.2947    4.5767 H   0  0  0  0  0  0  0  0  0  0  0  0
    6.6273   -0.5013    2.4405 H   0  0  0  0  0  0  0  0  0  0  0  0
    6.1059   -2.0453    3.1135 H   0  0  0  0  0  0  0  0  0  0  0  0
    4.4485   -0.0662    1.6151 H   0  0  0  0  0  0  0  0  0  0  0  0
    2.6324   -1.7430    1.6655 H   0  0  0  0  0  0  0  0  0  0  0  0
    3.6214   -3.0632    4.1438 H   0  0  0  0  0  0  0  0  0  0  0  0
    2.3740   -3.4969    3.0481 H   0  0  0  0  0  0  0  0  0  0  0  0
    5.3480   -4.0504    2.9000 H   0  0  0  0  0  0  0  0  0  0  0  0
    4.0082   -5.1210    2.8611 H   0  0  0  0  0  0  0  0  0  0  0  0
    4.9400   -5.2275    0.8006 H   0  0  0  0  0  0  0  0  0  0  0  0
    3.0945   -5.4186   -0.3206 H   0  0  0  0  0  0  0  0  0  0  0  0
    2.2449   -4.6347    0.9792 H   0  0  0  0  0  0  0  0  0  0  0  0
    1.8607   -2.8046   -0.4298 H   0  0  0  0  0  0  0  0  0  0  0  0
    4.5291   -0.7743   -1.4763 H   0  0  0  0  0  0  0  0  0  0  0  0
    3.1606   -0.8216   -0.3573 H   0  0  0  0  0  0  0  0  0  0  0  0
    7.2444   -3.4536    1.3775 H   0  0  0  0  0  0  0  0  0  0  0  0
    7.4657   -2.9711   -0.3045 H   0  0  0  0  0  0  0  0  0  0  0  0
    7.0284   -4.6186    0.0705 H   0  0  0  0  0  0  0  0  0  0  0  0
    2.0978   -1.1763    4.1974 H   0  0  0  0  0  0  0  0  0  0  0  0
    2.4636    0.8252    1.9548 H   0  0  0  0  0  0  0  0  0  0  0  0
   -0.0423   -0.3609    3.2556 H   0  0  0  0  0  0  0  0  0  0  0  0
    0.6785   -0.9682    1.7709 H   0  0  0  0  0  0  0  0  0  0  0  0
    0.0142    0.6324    1.8001 H   0  0  0  0  0  0  0  0  0  0  0  0
  1  2  1  0
  1 27  1  0
  1 28  1  0
  1 29  1  0
  2 25  1  0
  2  3  1  0
  2 30  1  1
  3  4  2  0
  3  5  1  0
  5  6  1  0
  5 31  1  0
  5 32  1  0
  6  8  1  0
  6 24  1  0
  6  7  1  1
  7  8  1  0
  8  9  1  0
  8 33  1  1
  9 10  1  0
  9 34  1  0
  9 35  1  0
 10 19  1  0
 10 11  1  0
 10 36  1  6
 11 12  1  0
 11 24  1  0
 11 37  1  6
 12 13  1  0
 12 38  1  0
 12 39  1  0
 13 14  1  0
 13 40  1  0
 13 41  1  0
 14 21  1  0
 14 15  1  0
 14 42  1  1
 15 16  1  0
 15 43  1  0
 15 44  1  0
 16 17  2  0
 16 45  1  0
 17 23  1  0
 17 18  1  0
 18 19  1  0
 18 46  1  0
 18 47  1  0
 19 20  1  6
 19 21  1  0
 21 22  1  6
 21 23  1  0
 22 48  1  0
 22 49  1  0
 22 50  1  0
 24 25  1  0
 24 51  1  1
 25 26  1  0
 25 52  1  6
 26 53  1  0
 26 54  1  0
 26 55  1  0
M  END
>  <i_m_ct_stereo_status>  (192) 
1

>  <s_m_source_file>  (192) 
/var/tmp/pbs.5076255.sched01/tmp7dp07en1/447ppmqug5.sdf

>  <i_m_source_file_index>  (192) 
39

>  <i_lp_mmshare_version>  (192) 
48012

>  <i_f3d_flags>  (192) 
0

>  <s_epik_input>  (192) 
Tz1DKFtDSDJdMSlbQ0BASF0oW0NIM10pW0NASF0oW0NIM10pW0NASF0yW0NAQEhdKFtDQEhdM1tDSDJdW0NAQEhdKFtDQEBdMTI0KU80KVtDSDJdW0NIMl1bQ0BASF01W0NAXTYoW0NIM10pW0NAQF0zKEYpW0NIMl1DKE82KT1bQ0hdW0NIMl01

>  <s_epik_cmdline>  (192) 
J2VwaWtfcHl0aG9uJywgJy1waHQnLCAnMi4wJywgJy1waCcsICc3LjAnLCAnLXRuJywgJzgnLCAnLW1hJywgJzIwMCcsICctaW1hZScsICc8aW5maWxlLm1hZT4nLCAnLW9tYWUnLCAnPG91dGZpbGUubWFlPic=

>  <r_lp_tautomer_probability>  (192) 
1

>  <r_epik_Ionization_Penalty>  (192) 
7.66156e-12

>  <r_epik_Ionization_Penalty_Charging>  (192) 
0

>  <r_epik_Ionization_Penalty_Neutral>  (192) 
7.66156e-12

>  <r_epik_State_Penalty>  (192) 
-0

>  <r_epik_Charging_Adjusted_Penalty>  (192) 
0

>  <i_epik_Tot_Q>  (192) 
0

>  <i_epik_Tot_abs_Q>  (192) 
0

>  <s_lp_Force_Field>  (192) 
OPLS3e

>  <r_lp_Energy>  (192) 
84.6374

>  <b_lp_Chiralities_Consistent>  (192) 
1

>  <s_lp_Variant>  (192) 
58:0-1

>  <s_i_glide_gridfile>  (192) 
pfpi4k_grid

>  <i_i_glide_lignum>  (192) 
39

>  <i_i_glide_rotatable_bonds>  (192) 
0

>  <r_i_docking_score>  (192) 
-2.78877

>  <r_i_glide_ligand_efficiency>  (192) 
-0.10726

>  <r_i_glide_ligand_efficiency_sa>  (192) 
-0.317759

>  <r_i_glide_ligand_efficiency_ln>  (192) 
-0.654934

>  <r_i_glide_gscore>  (192) 
-2.78877

>  <r_i_glide_lipo>  (192) 
-0.494479

>  <r_i_glide_hbond>  (192) 
0

>  <r_i_glide_metal>  (192) 
-0

>  <r_i_glide_rewards>  (192) 
-0.951394

>  <r_i_glide_evdw>  (192) 
-23.9208

>  <r_i_glide_ecoul>  (192) 
-0.933566

>  <r_i_glide_erotb>  (192) 
0

>  <r_i_glide_esite>  (192) 
-0.00682141

>  <r_i_glide_emodel>  (192) 
-28.8503

>  <r_i_glide_energy>  (192) 
-24.8544

>  <r_i_glide_einternal>  (192) 
0

>  <r_i_glide_intrahb_reward>  (192) 
-0

>  <i_i_glide_confnum>  (192) 
2

>  <i_i_glide_posenum>  (192) 
7

>  <r_i_glide_eff_state_penalty>  (192) 
0

>  <ligand_id>  (192) 
58

>  <original_smiles>  (192) 
CC1C(=O)CC23OC2CC2C(CCC4CC=C5CC2(F)C4(C)O5)C3C1C

>  <smiles>  (192) 
[H]C1=C2OC3(C([H])([H])[H])C([H])(C1([H])[H])C([H])([H])C([H])([H])C1([H])C([H])(C([H])([H])C4([H])OC45C([H])([H])C(=O)C([H])(C([H])([H])[H])C([H])(C([H])([H])[H])C15[H])C3(F)C2([H])[H]

$$$$
58:0:1
     RDKit          3D

 55 60  0  0  1  0  0  0  0  0999 V2000
    2.8630   -9.5238    1.8713 C   0  0  0  0  0  0  0  0  0  0  0  0
    3.0243   -8.3115    2.8127 C   0  0  2  0  0  0  0  0  0  0  0  0
    1.6580   -7.7578    3.2245 C   0  0  0  0  0  0  0  0  0  0  0  0
    0.5908   -8.1617    2.7968 O   0  0  0  0  0  0  0  0  0  0  0  0
    1.7326   -6.6105    4.2145 C   0  0  0  0  0  0  0  0  0  0  0  0
    2.4858   -5.4565    3.5807 C   0  0  2  0  0  0  0  0  0  0  0  0
    2.4597   -4.2502    4.3358 O   0  0  0  0  0  0  0  0  0  0  0  0
    1.7332   -4.2399    3.1110 C   0  0  1  0  0  0  0  0  0  0  0  0
    2.2913   -3.3396    2.0229 C   0  0  0  0  0  0  0  0  0  0  0  0
    3.3851   -4.0611    1.2239 C   0  0  2  0  0  0  0  0  0  0  0  0
    4.4678   -4.6439    2.1717 C   0  0  1  0  0  0  0  0  0  0  0  0
    5.1930   -3.6166    3.0790 C   0  0  0  0  0  0  0  0  0  0  0  0
    5.3912   -2.1656    2.5961 C   0  0  0  0  0  0  0  0  0  0  0  0
    5.8629   -1.9335    1.1592 C   0  0  1  0  0  0  0  0  0  0  0  0
    7.1696   -2.7020    0.7807 C   0  0  0  0  0  0  0  0  0  0  0  0
    6.9097   -3.6783   -0.3359 C   0  0  0  0  0  0  0  0  0  0  0  0
    5.9333   -3.3665   -1.1843 C   0  0  0  0  0  0  0  0  0  0  0  0
    4.6886   -4.1857   -1.0431 C   0  0  0  0  0  0  0  0  0  0  0  0
    3.8764   -3.3205   -0.0525 C   0  0  1  0  0  0  0  0  0  0  0  0
    2.7597   -3.0623   -0.7435 F   0  0  0  0  0  0  0  0  0  0  0  0
    4.7213   -2.0030    0.0905 C   0  0  1  0  0  0  0  0  0  0  0  0
    3.8962   -0.7140    0.0489 C   0  0  0  0  0  0  0  0  0  0  0  0
    5.4885   -2.0735   -1.0969 O   0  0  0  0  0  0  0  0  0  0  0  0
    3.8779   -5.8298    3.0277 C   0  0  2  0  0  0  0  0  0  0  0  0
    3.9297   -7.1885    2.2380 C   0  0  1  0  0  0  0  0  0  0  0  0
    5.3889   -7.7077    2.1653 C   0  0  0  0  0  0  0  0  0  0  0  0
    2.2102  -10.2766    2.3110 H   0  0  0  0  0  0  0  0  0  0  0  0
    3.8129  -10.0212    1.6831 H   0  0  0  0  0  0  0  0  0  0  0  0
    2.4350   -9.2417    0.9094 H   0  0  0  0  0  0  0  0  0  0  0  0
    3.4761   -8.6713    3.7372 H   0  0  0  0  0  0  0  0  0  0  0  0
    0.7252   -6.2898    4.4582 H   0  0  0  0  0  0  0  0  0  0  0  0
    2.2243   -6.9293    5.1294 H   0  0  0  0  0  0  0  0  0  0  0  0
    0.6644   -4.2031    3.2489 H   0  0  0  0  0  0  0  0  0  0  0  0
    1.4861   -3.0530    1.3622 H   0  0  0  0  0  0  0  0  0  0  0  0
    2.6013   -2.4018    2.4653 H   0  0  0  0  0  0  0  0  0  0  0  0
    2.8871   -4.9339    0.7974 H   0  0  0  0  0  0  0  0  0  0  0  0
    5.2476   -5.0425    1.5300 H   0  0  0  0  0  0  0  0  0  0  0  0
    4.7075   -3.5569    4.0551 H   0  0  0  0  0  0  0  0  0  0  0  0
    6.1633   -4.0655    3.3030 H   0  0  0  0  0  0  0  0  0  0  0  0
    4.5029   -1.5708    2.8005 H   0  0  0  0  0  0  0  0  0  0  0  0
    6.1538   -1.7259    3.2429 H   0  0  0  0  0  0  0  0  0  0  0  0
    6.1857   -0.8945    1.1658 H   0  0  0  0  0  0  0  0  0  0  0  0
    7.9250   -1.9991    0.4254 H   0  0  0  0  0  0  0  0  0  0  0  0
    7.5830   -3.2515    1.6221 H   0  0  0  0  0  0  0  0  0  0  0  0
    7.0819   -4.7116   -0.0647 H   0  0  0  0  0  0  0  0  0  0  0  0
    4.2106   -4.2131   -2.0201 H   0  0  0  0  0  0  0  0  0  0  0  0
    4.8595   -5.2166   -0.7169 H   0  0  0  0  0  0  0  0  0  0  0  0
    3.2514   -0.5913    0.9179 H   0  0  0  0  0  0  0  0  0  0  0  0
    3.2729   -0.6891   -0.8443 H   0  0  0  0  0  0  0  0  0  0  0  0
    4.5621    0.1466   -0.0108 H   0  0  0  0  0  0  0  0  0  0  0  0
    4.5183   -5.9725    3.9036 H   0  0  0  0  0  0  0  0  0  0  0  0
    3.5970   -7.0052    1.2129 H   0  0  0  0  0  0  0  0  0  0  0  0
    5.7526   -7.9937    3.1555 H   0  0  0  0  0  0  0  0  0  0  0  0
    6.0844   -6.9699    1.7703 H   0  0  0  0  0  0  0  0  0  0  0  0
    5.4801   -8.5817    1.5191 H   0  0  0  0  0  0  0  0  0  0  0  0
  1  2  1  0
  1 27  1  0
  1 28  1  0
  1 29  1  0
  2 25  1  0
  2  3  1  0
  2 30  1  1
  3  4  2  0
  3  5  1  0
  5  6  1  0
  5 31  1  0
  5 32  1  0
  6  8  1  0
  6 24  1  0
  6  7  1  1
  7  8  1  0
  8  9  1  0
  8 33  1  1
  9 10  1  0
  9 34  1  0
  9 35  1  0
 10 19  1  0
 10 11  1  0
 10 36  1  6
 11 12  1  0
 11 24  1  0
 11 37  1  6
 12 13  1  0
 12 38  1  0
 12 39  1  0
 13 14  1  0
 13 40  1  0
 13 41  1  0
 14 21  1  0
 14 15  1  0
 14 42  1  1
 15 16  1  0
 15 43  1  0
 15 44  1  0
 16 17  2  0
 16 45  1  0
 17 23  1  0
 17 18  1  0
 18 19  1  0
 18 46  1  0
 18 47  1  0
 19 20  1  6
 19 21  1  0
 21 22  1  6
 21 23  1  0
 22 48  1  0
 22 49  1  0
 22 50  1  0
 24 25  1  0
 24 51  1  1
 25 26  1  0
 25 52  1  6
 26 53  1  0
 26 54  1  0
 26 55  1  0
M  END
>  <i_m_ct_stereo_status>  (193) 
1

>  <s_m_source_file>  (193) 
/var/tmp/pbs.5076255.sched01/tmp7dp07en1/447ppmqug5.sdf

>  <i_m_source_file_index>  (193) 
39

>  <i_lp_mmshare_version>  (193) 
48012

>  <i_f3d_flags>  (193) 
0

>  <s_epik_input>  (193) 
Tz1DKFtDSDJdMSlbQ0BASF0oW0NIM10pW0NASF0oW0NIM10pW0NASF0yW0NAQEhdKFtDQEhdM1tDSDJdW0NAQEhdKFtDQEBdMTI0KU80KVtDSDJdW0NIMl1bQ0BASF01W0NAXTYoW0NIM10pW0NAQF0zKEYpW0NIMl1DKE82KT1bQ0hdW0NIMl01

>  <s_epik_cmdline>  (193) 
J2VwaWtfcHl0aG9uJywgJy1waHQnLCAnMi4wJywgJy1waCcsICc3LjAnLCAnLXRuJywgJzgnLCAnLW1hJywgJzIwMCcsICctaW1hZScsICc8aW5maWxlLm1hZT4nLCAnLW9tYWUnLCAnPG91dGZpbGUubWFlPic=

>  <r_lp_tautomer_probability>  (193) 
1

>  <r_epik_Ionization_Penalty>  (193) 
7.66156e-12

>  <r_epik_Ionization_Penalty_Charging>  (193) 
0

>  <r_epik_Ionization_Penalty_Neutral>  (193) 
7.66156e-12

>  <r_epik_State_Penalty>  (193) 
-0

>  <r_epik_Charging_Adjusted_Penalty>  (193) 
0

>  <i_epik_Tot_Q>  (193) 
0

>  <i_epik_Tot_abs_Q>  (193) 
0

>  <s_lp_Force_Field>  (193) 
OPLS3e

>  <r_lp_Energy>  (193) 
84.6374

>  <b_lp_Chiralities_Consistent>  (193) 
1

>  <s_lp_Variant>  (193) 
58:0-1

>  <s_i_glide_gridfile>  (193) 
pfpi4k_grid

>  <i_i_glide_lignum>  (193) 
39

>  <i_i_glide_rotatable_bonds>  (193) 
0

>  <r_i_docking_score>  (193) 
-2.68739

>  <r_i_glide_ligand_efficiency>  (193) 
-0.103361

>  <r_i_glide_ligand_efficiency_sa>  (193) 
-0.306207

>  <r_i_glide_ligand_efficiency_ln>  (193) 
-0.631124

>  <r_i_glide_gscore>  (193) 
-2.68739

>  <r_i_glide_lipo>  (193) 
-0.615687

>  <r_i_glide_hbond>  (193) 
0

>  <r_i_glide_metal>  (193) 
-0

>  <r_i_glide_rewards>  (193) 
-0.951394

>  <r_i_glide_evdw>  (193) 
-19.2734

>  <r_i_glide_ecoul>  (193) 
-0.791319

>  <r_i_glide_erotb>  (193) 
0

>  <r_i_glide_esite>  (193) 
-0.0379373

>  <r_i_glide_emodel>  (193) 
-23.8456

>  <r_i_glide_energy>  (193) 
-20.0647

>  <r_i_glide_einternal>  (193) 
0

>  <r_i_glide_intrahb_reward>  (193) 
-0

>  <i_i_glide_confnum>  (193) 
2

>  <i_i_glide_posenum>  (193) 
2

>  <r_i_glide_eff_state_penalty>  (193) 
0

>  <ligand_id>  (193) 
58

>  <original_smiles>  (193) 
CC1C(=O)CC23OC2CC2C(CCC4CC=C5CC2(F)C4(C)O5)C3C1C

>  <smiles>  (193) 
[H]C1=C2OC3(C([H])([H])[H])C([H])(C1([H])[H])C([H])([H])C([H])([H])C1([H])C([H])(C([H])([H])C4([H])OC45C([H])([H])C(=O)C([H])(C([H])([H])[H])C([H])(C([H])([H])[H])C15[H])C3(F)C2([H])[H]

$$$$
58:0:2
     RDKit          3D

 55 60  0  0  1  0  0  0  0  0999 V2000
    1.8577    3.3412    2.8442 C   0  0  0  0  0  0  0  0  0  0  0  0
    2.1688    1.9705    3.4359 C   0  0  2  0  0  0  0  0  0  0  0  0
    3.3454    2.0726    4.3834 C   0  0  0  0  0  0  0  0  0  0  0  0
    3.8872    3.1408    4.6504 O   0  0  0  0  0  0  0  0  0  0  0  0
    3.7263    0.7703    5.0369 C   0  0  0  0  0  0  0  0  0  0  0  0
    4.0394   -0.2693    3.9975 C   0  0  2  0  0  0  0  0  0  0  0  0
    4.6055   -1.4809    4.5129 O   0  0  0  0  0  0  0  0  0  0  0  0
    5.4891   -0.6312    3.7596 C   0  0  1  0  0  0  0  0  0  0  0  0
    5.9568   -1.1835    2.4545 C   0  0  0  0  0  0  0  0  0  0  0  0
    4.9268   -0.9607    1.3385 C   0  0  2  0  0  0  0  0  0  0  0  0
    3.5133   -1.4057    1.7649 C   0  0  1  0  0  0  0  0  0  0  0  0
    3.3257   -2.9045    2.1229 C   0  0  0  0  0  0  0  0  0  0  0  0
    4.2249   -3.9749    1.4682 C   0  0  0  0  0  0  0  0  0  0  0  0
    4.4609   -3.8567   -0.0325 C   0  0  1  0  0  0  0  0  0  0  0  0
    3.1409   -3.7151   -0.8202 C   0  0  0  0  0  0  0  0  0  0  0  0
    3.0854   -2.5121   -1.7317 C   0  0  0  0  0  0  0  0  0  0  0  0
    4.2968   -1.9743   -2.0410 C   0  0  0  0  0  0  0  0  0  0  0  0
    4.6416   -0.7809   -1.2425 C   0  0  0  0  0  0  0  0  0  0  0  0
    5.4275   -1.3731   -0.0770 C   0  0  1  0  0  0  0  0  0  0  0  0
    6.6038   -0.7956   -0.1374 F   0  0  0  0  0  0  0  0  0  0  0  0
    5.5871   -2.8699   -0.4748 C   0  0  1  0  0  0  0  0  0  0  0  0
    7.0090   -3.3959   -0.2585 C   0  0  0  0  0  0  0  0  0  0  0  0
    5.3690   -2.8038   -1.8805 O   0  0  0  0  0  0  0  0  0  0  0  0
    2.9662   -0.4837    2.9127 C   0  0  2  0  0  0  0  0  0  0  0  0
    2.3589    0.8602    2.3726 C   0  0  1  0  0  0  0  0  0  0  0  0
    0.9875    0.5861    1.7408 C   0  0  0  0  0  0  0  0  0  0  0  0
    1.7159    4.1195    3.5987 H   0  0  0  0  0  0  0  0  0  0  0  0
    0.9007    3.2397    2.3494 H   0  0  0  0  0  0  0  0  0  0  0  0
    2.5931    3.6783    2.1125 H   0  0  0  0  0  0  0  0  0  0  0  0
    1.3303    1.6819    4.0654 H   0  0  0  0  0  0  0  0  0  0  0  0
    4.6002    0.9542    5.6689 H   0  0  0  0  0  0  0  0  0  0  0  0
    2.8996    0.4481    5.6665 H   0  0  0  0  0  0  0  0  0  0  0  0
    6.2557   -0.1792    4.3896 H   0  0  0  0  0  0  0  0  0  0  0  0
    6.8951   -0.6811    2.2162 H   0  0  0  0  0  0  0  0  0  0  0  0
    6.1856   -2.2413    2.5748 H   0  0  0  0  0  0  0  0  0  0  0  0
    4.8874    0.1292    1.2676 H   0  0  0  0  0  0  0  0  0  0  0  0
    2.8913   -1.2579    0.8924 H   0  0  0  0  0  0  0  0  0  0  0  0
    3.4478   -3.0574    3.1875 H   0  0  0  0  0  0  0  0  0  0  0  0
    2.2819   -3.1500    1.9306 H   0  0  0  0  0  0  0  0  0  0  0  0
    5.1826   -4.0818    1.9728 H   0  0  0  0  0  0  0  0  0  0  0  0
    3.7203   -4.9320    1.6156 H   0  0  0  0  0  0  0  0  0  0  0  0
    4.8402   -4.8314   -0.3378 H   0  0  0  0  0  0  0  0  0  0  0  0
    3.1923   -4.5559   -1.4911 H   0  0  0  0  0  0  0  0  0  0  0  0
    2.2269   -3.8626   -0.2459 H   0  0  0  0  0  0  0  0  0  0  0  0
    2.2385   -1.8745   -1.5617 H   0  0  0  0  0  0  0  0  0  0  0  0
    5.2367   -0.1175   -1.8751 H   0  0  0  0  0  0  0  0  0  0  0  0
    3.7726   -0.2968   -0.8204 H   0  0  0  0  0  0  0  0  0  0  0  0
    7.2932   -3.4326    0.7931 H   0  0  0  0  0  0  0  0  0  0  0  0
    7.7362   -2.8051   -0.8271 H   0  0  0  0  0  0  0  0  0  0  0  0
    7.0536   -4.4094   -0.6390 H   0  0  0  0  0  0  0  0  0  0  0  0
    2.1569   -1.0124    3.4168 H   0  0  0  0  0  0  0  0  0  0  0  0
    3.0076    1.2485    1.5865 H   0  0  0  0  0  0  0  0  0  0  0  0
    0.2393    0.2369    2.4538 H   0  0  0  0  0  0  0  0  0  0  0  0
    1.1198   -0.1978    1.0236 H   0  0  0  0  0  0  0  0  0  0  0  0
    0.5753    1.4302    1.1878 H   0  0  0  0  0  0  0  0  0  0  0  0
  1  2  1  0
  1 27  1  0
  1 28  1  0
  1 29  1  0
  2 25  1  0
  2  3  1  0
  2 30  1  1
  3  4  2  0
  3  5  1  0
  5  6  1  0
  5 31  1  0
  5 32  1  0
  6  8  1  0
  6 24  1  0
  6  7  1  1
  7  8  1  0
  8  9  1  0
  8 33  1  1
  9 10  1  0
  9 34  1  0
  9 35  1  0
 10 19  1  0
 10 11  1  0
 10 36  1  6
 11 12  1  0
 11 24  1  0
 11 37  1  6
 12 13  1  0
 12 38  1  0
 12 39  1  0
 13 14  1  0
 13 40  1  0
 13 41  1  0
 14 21  1  0
 14 15  1  0
 14 42  1  6
 15 16  1  0
 15 43  1  0
 15 44  1  0
 16 17  2  0
 16 45  1  0
 17 23  1  0
 17 18  1  0
 18 19  1  0
 18 46  1  0
 18 47  1  0
 19 20  1  6
 19 21  1  0
 21 22  1  6
 21 23  1  0
 22 48  1  0
 22 49  1  0
 22 50  1  0
 24 25  1  0
 24 51  1  1
 25 26  1  0
 25 52  1  6
 26 53  1  0
 26 54  1  0
 26 55  1  0
M  END
>  <i_m_ct_stereo_status>  (194) 
1

>  <s_m_source_file>  (194) 
/var/tmp/pbs.5076255.sched01/tmp7dp07en1/447ppmqug5.sdf

>  <i_m_source_file_index>  (194) 
39

>  <i_lp_mmshare_version>  (194) 
48012

>  <i_f3d_flags>  (194) 
0

>  <s_epik_input>  (194) 
Tz1DKFtDSDJdMSlbQ0BASF0oW0NIM10pW0NASF0oW0NIM10pW0NASF0yW0NAQEhdKFtDQEhdM1tDSDJdW0NAQEhdKFtDQEBdMTI0KU80KVtDSDJdW0NIMl1bQ0BASF01W0NAXTYoW0NIM10pW0NAQF0zKEYpW0NIMl1DKE82KT1bQ0hdW0NIMl01

>  <s_epik_cmdline>  (194) 
J2VwaWtfcHl0aG9uJywgJy1waHQnLCAnMi4wJywgJy1waCcsICc3LjAnLCAnLXRuJywgJzgnLCAnLW1hJywgJzIwMCcsICctaW1hZScsICc8aW5maWxlLm1hZT4nLCAnLW9tYWUnLCAnPG91dGZpbGUubWFlPic=

>  <r_lp_tautomer_probability>  (194) 
1

>  <r_epik_Ionization_Penalty>  (194) 
7.66156e-12

>  <r_epik_Ionization_Penalty_Charging>  (194) 
0

>  <r_epik_Ionization_Penalty_Neutral>  (194) 
7.66156e-12

>  <r_epik_State_Penalty>  (194) 
-0

>  <r_epik_Charging_Adjusted_Penalty>  (194) 
0

>  <i_epik_Tot_Q>  (194) 
0

>  <i_epik_Tot_abs_Q>  (194) 
0

>  <s_lp_Force_Field>  (194) 
OPLS3e

>  <r_lp_Energy>  (194) 
84.6374

>  <b_lp_Chiralities_Consistent>  (194) 
1

>  <s_lp_Variant>  (194) 
58:0-1

>  <s_i_glide_gridfile>  (194) 
pfpi4k_grid

>  <i_i_glide_lignum>  (194) 
39

>  <i_i_glide_rotatable_bonds>  (194) 
0

>  <r_i_docking_score>  (194) 
-2.61222

>  <r_i_glide_ligand_efficiency>  (194) 
-0.10047

>  <r_i_glide_ligand_efficiency_sa>  (194) 
-0.297642

>  <r_i_glide_ligand_efficiency_ln>  (194) 
-0.613471

>  <r_i_glide_gscore>  (194) 
-2.61222

>  <r_i_glide_lipo>  (194) 
-0.529298

>  <r_i_glide_hbond>  (194) 
0

>  <r_i_glide_metal>  (194) 
-0

>  <r_i_glide_rewards>  (194) 
-0.951394

>  <r_i_glide_evdw>  (194) 
-12.3254

>  <r_i_glide_ecoul>  (194) 
-3.07222

>  <r_i_glide_erotb>  (194) 
0

>  <r_i_glide_esite>  (194) 
-0.0544236

>  <r_i_glide_emodel>  (194) 
-18.7177

>  <r_i_glide_energy>  (194) 
-15.3976

>  <r_i_glide_einternal>  (194) 
0

>  <r_i_glide_intrahb_reward>  (194) 
-0

>  <i_i_glide_confnum>  (194) 
1

>  <i_i_glide_posenum>  (194) 
1

>  <r_i_glide_eff_state_penalty>  (194) 
0

>  <ligand_id>  (194) 
58

>  <original_smiles>  (194) 
CC1C(=O)CC23OC2CC2C(CCC4CC=C5CC2(F)C4(C)O5)C3C1C

>  <smiles>  (194) 
[H]C1=C2OC3(C([H])([H])[H])C([H])(C1([H])[H])C([H])([H])C([H])([H])C1([H])C([H])(C([H])([H])C4([H])OC45C([H])([H])C(=O)C([H])(C([H])([H])[H])C([H])(C([H])([H])[H])C15[H])C3(F)C2([H])[H]

$$$$
59:0:0
     RDKit          3D

 14 15  0  0  1  0  0  0  0  0999 V2000
    3.1259   -0.7026   -3.5395 C   0  0  0  0  0  0  0  0  0  0  0  0
    2.6353   -1.9968   -3.8290 C   0  0  0  0  0  0  0  0  0  0  0  0
    3.2578   -3.1101   -3.3253 C   0  0  0  0  0  0  0  0  0  0  0  0
    4.3456   -2.9448   -2.5224 N   0  0  0  0  0  0  0  0  0  0  0  0
    5.1313   -3.8514   -1.8873 C   0  0  0  0  0  0  0  0  0  0  0  0
    6.1044   -3.2213   -1.2232 N   0  0  0  0  0  0  0  0  0  0  0  0
    5.9424   -1.8560   -1.4120 N   0  0  0  0  0  0  0  0  0  0  0  0
    4.8729   -1.6859   -2.1931 C   0  0  0  0  0  0  0  0  0  0  0  0
    4.2273   -0.5446   -2.7339 C   0  0  0  0  0  0  0  0  0  0  0  0
    2.6191    0.1758   -3.9314 H   0  0  0  0  0  0  0  0  0  0  0  0
    1.7379   -2.1186   -4.4236 H   0  0  0  0  0  0  0  0  0  0  0  0
    2.9088   -4.1213   -3.5147 H   0  0  0  0  0  0  0  0  0  0  0  0
    5.0060   -4.9233   -1.9299 H   0  0  0  0  0  0  0  0  0  0  0  0
    4.6034    0.4437   -2.4976 H   0  0  0  0  0  0  0  0  0  0  0  0
  1  9  2  0
  1  2  1  0
  1 10  1  0
  2  3  2  0
  2 11  1  0
  3  4  1  0
  3 12  1  0
  4  8  1  0
  4  5  1  0
  5  6  2  0
  5 13  1  0
  6  7  1  0
  7  8  2  0
  8  9  1  0
  9 14  1  0
M  END
>  <i_m_ct_stereo_status>  (195) 
1

>  <s_m_source_file>  (195) 
/var/tmp/pbs.5076255.sched01/tmp7dp07en1/447ppmqug5.sdf

>  <i_m_source_file_index>  (195) 
40

>  <i_lp_mmshare_version>  (195) 
48012

>  <i_f3d_flags>  (195) 
0

>  <s_epik_input>  (195) 
W2NIXTFbY0hdW2NIXVtjSF1jKG4xMilubltjSF0y

>  <s_epik_cmdline>  (195) 
J2VwaWtfcHl0aG9uJywgJy1waHQnLCAnMi4wJywgJy1waCcsICc3LjAnLCAnLXRuJywgJzgnLCAnLW1hJywgJzIwMCcsICctaW1hZScsICc8aW5maWxlLm1hZT4nLCAnLW9tYWUnLCAnPG91dGZpbGUubWFlPic=

>  <r_lp_tautomer_probability>  (195) 
1

>  <r_epik_Ionization_Penalty>  (195) 
2.55829e-05

>  <r_epik_Ionization_Penalty_Charging>  (195) 
0

>  <r_epik_Ionization_Penalty_Neutral>  (195) 
2.55829e-05

>  <r_epik_State_Penalty>  (195) 
-0

>  <r_epik_Charging_Adjusted_Penalty>  (195) 
0

>  <i_epik_Tot_Q>  (195) 
0

>  <i_epik_Tot_abs_Q>  (195) 
0

>  <s_lp_Force_Field>  (195) 
OPLS3e

>  <r_lp_Energy>  (195) 
11.907

>  <b_lp_Chiralities_Consistent>  (195) 
1

>  <s_lp_Variant>  (195) 
59:0-1

>  <s_i_glide_gridfile>  (195) 
pfpi4k_grid

>  <i_i_glide_lignum>  (195) 
40

>  <i_i_glide_rotatable_bonds>  (195) 
0

>  <r_i_docking_score>  (195) 
-4.54238

>  <r_i_glide_ligand_efficiency>  (195) 
-0.504708

>  <r_i_glide_ligand_efficiency_sa>  (195) 
-1.04984

>  <r_i_glide_ligand_efficiency_ln>  (195) 
-1.42072

>  <r_i_glide_gscore>  (195) 
-4.54238

>  <r_i_glide_lipo>  (195) 
-0.625607

>  <r_i_glide_hbond>  (195) 
0

>  <r_i_glide_metal>  (195) 
-0

>  <r_i_glide_rewards>  (195) 
-2.26968

>  <r_i_glide_evdw>  (195) 
-14.6151

>  <r_i_glide_ecoul>  (195) 
-5.51098

>  <r_i_glide_erotb>  (195) 
0

>  <r_i_glide_esite>  (195) 
-0.089688

>  <r_i_glide_emodel>  (195) 
-26.5548

>  <r_i_glide_energy>  (195) 
-20.1261

>  <r_i_glide_einternal>  (195) 
0

>  <r_i_glide_intrahb_reward>  (195) 
-0

>  <i_i_glide_confnum>  (195) 
1

>  <i_i_glide_posenum>  (195) 
10

>  <r_i_glide_eff_state_penalty>  (195) 
0

>  <ligand_id>  (195) 
59

>  <original_smiles>  (195) 
c1ccn2cnnc2c1

>  <smiles>  (195) 
[H]c1c([H])c([H])n2c([H])nnc2c1[H]

$$$$
59:0:1
     RDKit          3D

 14 15  0  0  1  0  0  0  0  0999 V2000
    0.0661   -9.8745    3.2059 C   0  0  0  0  0  0  0  0  0  0  0  0
    1.4681  -10.0789    3.2033 C   0  0  0  0  0  0  0  0  0  0  0  0
    2.3023   -9.1606    2.6089 C   0  0  0  0  0  0  0  0  0  0  0  0
    1.7490   -8.0603    2.0266 N   0  0  0  0  0  0  0  0  0  0  0  0
    2.3304   -7.0126    1.3856 C   0  0  0  0  0  0  0  0  0  0  0  0
    1.3926   -6.1683    0.9546 N   0  0  0  0  0  0  0  0  0  0  0  0
    0.1535   -6.6558    1.3475 N   0  0  0  0  0  0  0  0  0  0  0  0
    0.3651   -7.8092    1.9928 C   0  0  0  0  0  0  0  0  0  0  0  0
   -0.4870   -8.7609    2.6125 C   0  0  0  0  0  0  0  0  0  0  0  0
   -0.5869  -10.6062    3.6774 H   0  0  0  0  0  0  0  0  0  0  0  0
    1.8911  -10.9633    3.6696 H   0  0  0  0  0  0  0  0  0  0  0  0
    3.3825   -9.2651    2.5750 H   0  0  0  0  0  0  0  0  0  0  0  0
    3.3901   -6.8854    1.2257 H   0  0  0  0  0  0  0  0  0  0  0  0
   -1.5614   -8.6171    2.6019 H   0  0  0  0  0  0  0  0  0  0  0  0
  1  9  2  0
  1  2  1  0
  1 10  1  0
  2  3  2  0
  2 11  1  0
  3  4  1  0
  3 12  1  0
  4  8  1  0
  4  5  1  0
  5  6  2  0
  5 13  1  0
  6  7  1  0
  7  8  2  0
  8  9  1  0
  9 14  1  0
M  END
>  <i_m_ct_stereo_status>  (196) 
1

>  <s_m_source_file>  (196) 
/var/tmp/pbs.5076255.sched01/tmp7dp07en1/447ppmqug5.sdf

>  <i_m_source_file_index>  (196) 
40

>  <i_lp_mmshare_version>  (196) 
48012

>  <i_f3d_flags>  (196) 
0

>  <s_epik_input>  (196) 
W2NIXTFbY0hdW2NIXVtjSF1jKG4xMilubltjSF0y

>  <s_epik_cmdline>  (196) 
J2VwaWtfcHl0aG9uJywgJy1waHQnLCAnMi4wJywgJy1waCcsICc3LjAnLCAnLXRuJywgJzgnLCAnLW1hJywgJzIwMCcsICctaW1hZScsICc8aW5maWxlLm1hZT4nLCAnLW9tYWUnLCAnPG91dGZpbGUubWFlPic=

>  <r_lp_tautomer_probability>  (196) 
1

>  <r_epik_Ionization_Penalty>  (196) 
2.55829e-05

>  <r_epik_Ionization_Penalty_Charging>  (196) 
0

>  <r_epik_Ionization_Penalty_Neutral>  (196) 
2.55829e-05

>  <r_epik_State_Penalty>  (196) 
-0

>  <r_epik_Charging_Adjusted_Penalty>  (196) 
0

>  <i_epik_Tot_Q>  (196) 
0

>  <i_epik_Tot_abs_Q>  (196) 
0

>  <s_lp_Force_Field>  (196) 
OPLS3e

>  <r_lp_Energy>  (196) 
11.907

>  <b_lp_Chiralities_Consistent>  (196) 
1

>  <s_lp_Variant>  (196) 
59:0-1

>  <s_i_glide_gridfile>  (196) 
pfpi4k_grid

>  <i_i_glide_lignum>  (196) 
40

>  <i_i_glide_rotatable_bonds>  (196) 
0

>  <r_i_docking_score>  (196) 
-3.92898

>  <r_i_glide_ligand_efficiency>  (196) 
-0.436553

>  <r_i_glide_ligand_efficiency_sa>  (196) 
-0.908066

>  <r_i_glide_ligand_efficiency_ln>  (196) 
-1.22887

>  <r_i_glide_gscore>  (196) 
-3.92898

>  <r_i_glide_lipo>  (196) 
-0.0908679

>  <r_i_glide_hbond>  (196) 
0

>  <r_i_glide_metal>  (196) 
-0

>  <r_i_glide_rewards>  (196) 
-2.25

>  <r_i_glide_evdw>  (196) 
-13.1348

>  <r_i_glide_ecoul>  (196) 
-4.3503

>  <r_i_glide_erotb>  (196) 
0

>  <r_i_glide_esite>  (196) 
-0.278823

>  <r_i_glide_emodel>  (196) 
-23.0479

>  <r_i_glide_energy>  (196) 
-17.4851

>  <r_i_glide_einternal>  (196) 
0

>  <r_i_glide_intrahb_reward>  (196) 
-0

>  <i_i_glide_confnum>  (196) 
1

>  <i_i_glide_posenum>  (196) 
11

>  <r_i_glide_eff_state_penalty>  (196) 
0

>  <ligand_id>  (196) 
59

>  <original_smiles>  (196) 
c1ccn2cnnc2c1

>  <smiles>  (196) 
[H]c1c([H])c([H])n2c([H])nnc2c1[H]

$$$$
59:0:2
     RDKit          3D

 14 15  0  0  1  0  0  0  0  0999 V2000
   -1.0914    2.5215    3.2886 C   0  0  0  0  0  0  0  0  0  0  0  0
   -0.2260    1.7153    2.5089 C   0  0  0  0  0  0  0  0  0  0  0  0
    0.0566    0.4254    2.8921 C   0  0  0  0  0  0  0  0  0  0  0  0
   -0.5197   -0.0604    4.0287 N   0  0  0  0  0  0  0  0  0  0  0  0
   -0.4291   -1.2821    4.6173 C   0  0  0  0  0  0  0  0  0  0  0  0
   -1.1956   -1.3194    5.7076 N   0  0  0  0  0  0  0  0  0  0  0  0
   -1.7865   -0.0720    5.8615 N   0  0  0  0  0  0  0  0  0  0  0  0
   -1.3888    0.6920    4.8400 C   0  0  0  0  0  0  0  0  0  0  0  0
   -1.6662    2.0275    4.4395 C   0  0  0  0  0  0  0  0  0  0  0  0
   -1.2967    3.5391    2.9671 H   0  0  0  0  0  0  0  0  0  0  0  0
    0.2157    2.1176    1.6013 H   0  0  0  0  0  0  0  0  0  0  0  0
    0.7027   -0.2384    2.3248 H   0  0  0  0  0  0  0  0  0  0  0  0
    0.1582   -2.1091    4.2484 H   0  0  0  0  0  0  0  0  0  0  0  0
   -2.3363    2.6342    5.0383 H   0  0  0  0  0  0  0  0  0  0  0  0
  1  9  2  0
  1  2  1  0
  1 10  1  0
  2  3  2  0
  2 11  1  0
  3  4  1  0
  3 12  1  0
  4  8  1  0
  4  5  1  0
  5  6  2  0
  5 13  1  0
  6  7  1  0
  7  8  2  0
  8  9  1  0
  9 14  1  0
M  END
>  <i_m_ct_stereo_status>  (197) 
1

>  <s_m_source_file>  (197) 
/var/tmp/pbs.5076255.sched01/tmp7dp07en1/447ppmqug5.sdf

>  <i_m_source_file_index>  (197) 
40

>  <i_lp_mmshare_version>  (197) 
48012

>  <i_f3d_flags>  (197) 
0

>  <s_epik_input>  (197) 
W2NIXTFbY0hdW2NIXVtjSF1jKG4xMilubltjSF0y

>  <s_epik_cmdline>  (197) 
J2VwaWtfcHl0aG9uJywgJy1waHQnLCAnMi4wJywgJy1waCcsICc3LjAnLCAnLXRuJywgJzgnLCAnLW1hJywgJzIwMCcsICctaW1hZScsICc8aW5maWxlLm1hZT4nLCAnLW9tYWUnLCAnPG91dGZpbGUubWFlPic=

>  <r_lp_tautomer_probability>  (197) 
1

>  <r_epik_Ionization_Penalty>  (197) 
2.55829e-05

>  <r_epik_Ionization_Penalty_Charging>  (197) 
0

>  <r_epik_Ionization_Penalty_Neutral>  (197) 
2.55829e-05

>  <r_epik_State_Penalty>  (197) 
-0

>  <r_epik_Charging_Adjusted_Penalty>  (197) 
0

>  <i_epik_Tot_Q>  (197) 
0

>  <i_epik_Tot_abs_Q>  (197) 
0

>  <s_lp_Force_Field>  (197) 
OPLS3e

>  <r_lp_Energy>  (197) 
11.907

>  <b_lp_Chiralities_Consistent>  (197) 
1

>  <s_lp_Variant>  (197) 
59:0-1

>  <s_i_glide_gridfile>  (197) 
pfpi4k_grid

>  <i_i_glide_lignum>  (197) 
40

>  <i_i_glide_rotatable_bonds>  (197) 
0

>  <r_i_docking_score>  (197) 
-3.89848

>  <r_i_glide_ligand_efficiency>  (197) 
-0.433165

>  <r_i_glide_ligand_efficiency_sa>  (197) 
-0.901019

>  <r_i_glide_ligand_efficiency_ln>  (197) 
-1.21933

>  <r_i_glide_gscore>  (197) 
-3.89848

>  <r_i_glide_lipo>  (197) 
0

>  <r_i_glide_hbond>  (197) 
0

>  <r_i_glide_metal>  (197) 
-0

>  <r_i_glide_rewards>  (197) 
-2.25

>  <r_i_glide_evdw>  (197) 
-12.2314

>  <r_i_glide_ecoul>  (197) 
-5.444

>  <r_i_glide_erotb>  (197) 
0

>  <r_i_glide_esite>  (197) 
-0.220316

>  <r_i_glide_emodel>  (197) 
-23.1943

>  <r_i_glide_energy>  (197) 
-17.6754

>  <r_i_glide_einternal>  (197) 
0

>  <r_i_glide_intrahb_reward>  (197) 
-0

>  <i_i_glide_confnum>  (197) 
1

>  <i_i_glide_posenum>  (197) 
19

>  <r_i_glide_eff_state_penalty>  (197) 
0

>  <ligand_id>  (197) 
59

>  <original_smiles>  (197) 
c1ccn2cnnc2c1

>  <smiles>  (197) 
[H]c1c([H])c([H])n2c([H])nnc2c1[H]

$$$$
60:0:0
     RDKit          3D

 43 47  0  0  1  0  0  0  0  0999 V2000
   -2.1669    4.4569    2.8950 C   0  0  0  0  0  0  0  0  0  0  0  0
   -1.2438    3.8799    3.6821 C   0  0  0  0  0  0  0  0  0  0  0  0
    0.2590    4.3302    3.8225 C   0  0  0  0  0  0  0  0  0  0  0  0
    0.8749    3.0211    4.3663 C   0  0  2  0  0  0  0  0  0  0  0  0
    0.8458    2.1425    3.0587 C   0  0  0  0  0  0  0  0  0  0  0  0
    1.7057    2.1338    2.1799 O   0  0  0  0  0  0  0  0  0  0  0  0
   -0.3097    1.3602    2.9687 O   0  0  0  0  0  0  0  0  0  0  0  0
   -1.1471    1.2304    4.1296 C   0  0  1  0  0  0  0  0  0  0  0  0
   -1.4843    2.6977    4.6535 C   0  0  1  0  0  0  0  0  0  0  0  0
   -0.3172    3.2543    5.4191 C   0  0  2  0  0  0  0  0  0  0  0  0
    0.8131    3.2427    6.4969 C   0  0  1  0  0  0  0  0  0  0  0  0
    0.5626    2.8050    7.8372 O   0  0  0  0  0  0  0  0  0  0  0  0
   -0.1938    3.7217    8.6085 C   0  0  0  0  0  0  0  0  0  0  0  0
    1.5625    2.2737    5.6401 C   0  0  2  0  0  0  0  0  0  0  0  0
    2.9626    2.4546    5.6472 O   0  0  0  0  0  0  0  0  0  0  0  0
    1.3286    0.7164    6.0677 C   0  0  2  0  0  0  0  0  0  0  0  0
    1.5977   -0.3644    4.9828 C   0  0  0  0  0  0  0  0  0  0  0  0
    0.2203   -0.9871    4.5236 C   0  0  1  0  0  0  0  0  0  0  0  0
    0.1124   -2.4631    4.9816 C   0  0  0  0  0  0  0  0  0  0  0  0
   -0.8985   -0.0361    5.0915 C   0  0  2  0  0  0  0  0  0  0  0  0
   -2.1439   -0.6747    5.3280 O   0  0  0  0  0  0  0  0  0  0  0  0
   -0.1239    0.2696    6.4150 C   0  0  0  0  0  0  0  0  0  0  0  0
   -0.5852    0.1462    7.5473 O   0  0  0  0  0  0  0  0  0  0  0  0
   -3.1853    4.0940    2.8668 H   0  0  0  0  0  0  0  0  0  0  0  0
   -1.8961    5.2848    2.2530 H   0  0  0  0  0  0  0  0  0  0  0  0
    0.6898    4.6520    2.8809 H   0  0  0  0  0  0  0  0  0  0  0  0
    0.3838    5.2046    4.4673 H   0  0  0  0  0  0  0  0  0  0  0  0
   -0.2525    1.2326    4.5816 H   0  0  0  0  0  0  0  0  0  0  0  0
   -2.4570    2.7885    5.1502 H   0  0  0  0  0  0  0  0  0  0  0  0
   -0.7242    2.6161    6.1815 H   0  0  0  0  0  0  0  0  0  0  0  0
    1.3332    4.2058    6.5081 H   0  0  0  0  0  0  0  0  0  0  0  0
   -0.3160    3.3220    9.6144 H   0  0  0  0  0  0  0  0  0  0  0  0
   -1.1873    3.8770    8.1862 H   0  0  0  0  0  0  0  0  0  0  0  0
    0.3121    4.6840    8.6867 H   0  0  0  0  0  0  0  0  0  0  0  0
    3.2947    2.0789    4.8458 H   0  0  0  0  0  0  0  0  0  0  0  0
    1.9421    0.5076    6.9433 H   0  0  0  0  0  0  0  0  0  0  0  0
    2.1575    0.0365    4.1394 H   0  0  0  0  0  0  0  0  0  0  0  0
    2.2407   -1.1361    5.4114 H   0  0  0  0  0  0  0  0  0  0  0  0
    0.1868   -1.0115    3.4326 H   0  0  0  0  0  0  0  0  0  0  0  0
    0.1404   -2.5747    6.0677 H   0  0  0  0  0  0  0  0  0  0  0  0
    0.9324   -3.0539    4.5713 H   0  0  0  0  0  0  0  0  0  0  0  0
   -0.8109   -2.9167    4.6247 H   0  0  0  0  0  0  0  0  0  0  0  0
   -2.6389   -0.6514    4.5208 H   0  0  0  0  0  0  0  0  0  0  0  0
  1  2  2  0
  1 24  1  0
  1 25  1  0
  2  9  1  0
  2  3  1  0
  4  3  1  6
  3 26  1  0
  3 27  1  0
  4 10  1  0
  4 14  1  0
  4  5  1  0
  5  6  2  0
  5  7  1  0
  7  8  1  0
  8 20  1  0
  8  9  1  0
  8 28  1  6
  9 10  1  0
  9 29  1  1
 10 11  1  0
 10 30  1  6
 11 12  1  0
 11 14  1  0
 11 31  1  1
 12 13  1  0
 13 32  1  0
 13 33  1  0
 13 34  1  0
 14 15  1  6
 14 16  1  0
 15 35  1  0
 16 22  1  0
 16 17  1  0
 16 36  1  1
 17 18  1  0
 17 37  1  0
 17 38  1  0
 18 19  1  0
 18 20  1  0
 18 39  1  6
 19 40  1  0
 19 41  1  0
 19 42  1  0
 20 21  1  1
 20 22  1  0
 21 43  1  0
 22 23  2  0
M  END
>  <i_m_ct_stereo_status>  (198) 
1

>  <s_m_source_file>  (198) 
/var/tmp/pbs.5076255.sched01/tmp7dp07en1/447ppmqug5.sdf

>  <i_m_source_file_index>  (198) 
41

>  <i_lp_mmshare_version>  (198) 
48012

>  <i_f3d_flags>  (198) 
0

>  <s_epik_input>  (198) 
W0NIMl09QyhbQ0gyXTEpW0NASF0oW0NIXTJbQ0BdMTM0KVtDQEhdKE9DMz1PKVtDQEBdNShbT0hdKVtDQEhdKFtDSDNdKVtDSDJdW0NASF0oQzU9TylbQ0BdNChbT0hdKVtDQEBIXTJPW0NIM10=

>  <s_epik_cmdline>  (198) 
J2VwaWtfcHl0aG9uJywgJy1waHQnLCAnMi4wJywgJy1waCcsICc3LjAnLCAnLXRuJywgJzgnLCAnLW1hJywgJzIwMCcsICctaW1hZScsICc8aW5maWxlLm1hZT4nLCAnLW9tYWUnLCAnPG91dGZpbGUubWFlPic=

>  <r_lp_tautomer_probability>  (198) 
1

>  <r_epik_Ionization_Penalty>  (198) 
4.98055e-07

>  <r_epik_Ionization_Penalty_Charging>  (198) 
0

>  <r_epik_Ionization_Penalty_Neutral>  (198) 
4.98055e-07

>  <r_epik_State_Penalty>  (198) 
-0

>  <r_epik_Charging_Adjusted_Penalty>  (198) 
0

>  <i_epik_Tot_Q>  (198) 
0

>  <i_epik_Tot_abs_Q>  (198) 
0

>  <s_epik_Chemistry_Notes>  (198) 
This compound has an ester and may undergo hydrolysis at high or low pH.

>  <s_lp_Force_Field>  (198) 
OPLS3e

>  <r_lp_Energy>  (198) 
253.993

>  <b_lp_Chiralities_Consistent>  (198) 
1

>  <s_lp_Variant>  (198) 
60:0-1

>  <s_i_glide_gridfile>  (198) 
pfpi4k_grid

>  <i_i_glide_lignum>  (198) 
41

>  <i_i_glide_rotatable_bonds>  (198) 
3

>  <r_i_docking_score>  (198) 
-2.94249

>  <r_i_glide_ligand_efficiency>  (198) 
-0.127934

>  <r_i_glide_ligand_efficiency_sa>  (198) 
-0.363828

>  <r_i_glide_ligand_efficiency_ln>  (198) 
-0.711521

>  <r_i_glide_gscore>  (198) 
-2.94249

>  <r_i_glide_lipo>  (198) 
-0.0130043

>  <r_i_glide_hbond>  (198) 
-0.0528458

>  <r_i_glide_metal>  (198) 
-0

>  <r_i_glide_rewards>  (198) 
-1.22497

>  <r_i_glide_evdw>  (198) 
-16.9899

>  <r_i_glide_ecoul>  (198) 
-4.79557

>  <r_i_glide_erotb>  (198) 
0

>  <r_i_glide_esite>  (198) 
-0.0828333

>  <r_i_glide_emodel>  (198) 
-25.8342

>  <r_i_glide_energy>  (198) 
-21.7855

>  <r_i_glide_einternal>  (198) 
1.23497

>  <r_i_glide_intrahb_reward>  (198) 
-0

>  <i_i_glide_confnum>  (198) 
1

>  <i_i_glide_posenum>  (198) 
20

>  <r_i_glide_eff_state_penalty>  (198) 
0

>  <ligand_id>  (198) 
60

>  <original_smiles>  (198) 
C=C1CC23C(=O)OC4C1C2C(OC)C3(O)C1CC(C)C4(O)C1=O

>  <smiles>  (198) 
[H]OC12C(=O)C([H])(C([H])([H])C1([H])C([H])([H])[H])C1(O[H])C([H])(OC([H])([H])[H])C3([H])C4([H])C(=C([H])[H])C([H])([H])C31C(=O)OC42[H]

$$$$
60:0:1
     RDKit          3D

 43 47  0  0  1  0  0  0  0  0999 V2000
   -2.1678    4.4926    2.8923 C   0  0  0  0  0  0  0  0  0  0  0  0
   -1.2471    3.9086    3.6779 C   0  0  0  0  0  0  0  0  0  0  0  0
    0.2575    4.3498    3.8162 C   0  0  0  0  0  0  0  0  0  0  0  0
    0.8712    3.0344    4.3463 C   0  0  2  0  0  0  0  0  0  0  0  0
    0.8367    2.1629    3.0342 C   0  0  0  0  0  0  0  0  0  0  0  0
    1.6936    2.1508    2.1520 O   0  0  0  0  0  0  0  0  0  0  0  0
   -0.3228    1.3895    2.9407 O   0  0  0  0  0  0  0  0  0  0  0  0
   -1.1594    1.2550    4.1008 C   0  0  1  0  0  0  0  0  0  0  0  0
   -1.4904    2.7189    4.6394 C   0  0  1  0  0  0  0  0  0  0  0  0
   -0.3190    3.2645    5.4061 C   0  0  2  0  0  0  0  0  0  0  0  0
    0.8099    3.2422    6.4849 C   0  0  1  0  0  0  0  0  0  0  0  0
    0.5602    2.7921    7.8214 O   0  0  0  0  0  0  0  0  0  0  0  0
   -0.1927    3.7036    8.6026 C   0  0  0  0  0  0  0  0  0  0  0  0
    1.5537    2.2776    5.6152 C   0  0  2  0  0  0  0  0  0  0  0  0
    2.9562    2.4368    5.6238 O   0  0  0  0  0  0  0  0  0  0  0  0
    1.3154    0.7181    6.0290 C   0  0  2  0  0  0  0  0  0  0  0  0
    1.5810   -0.3536    4.9339 C   0  0  0  0  0  0  0  0  0  0  0  0
    0.2013   -0.9688    4.4722 C   0  0  1  0  0  0  0  0  0  0  0  0
    0.0878   -2.4484    4.9166 C   0  0  0  0  0  0  0  0  0  0  0  0
   -0.9144   -0.0212    5.0497 C   0  0  2  0  0  0  0  0  0  0  0  0
   -2.1578   -0.6578    5.2855 O   0  0  0  0  0  0  0  0  0  0  0  0
   -0.1346    0.2714    6.3755 C   0  0  0  0  0  0  0  0  0  0  0  0
   -0.5863    0.1445    7.5113 O   0  0  0  0  0  0  0  0  0  0  0  0
   -3.1875    4.1339    2.8631 H   0  0  0  0  0  0  0  0  0  0  0  0
   -1.8940    5.3250    2.2572 H   0  0  0  0  0  0  0  0  0  0  0  0
    0.6882    4.6802    2.8753 H   0  0  0  0  0  0  0  0  0  0  0  0
    0.3851    5.2200    4.4676 H   0  0  0  0  0  0  0  0  0  0  0  0
   -0.2659    1.2518    4.5524 H   0  0  0  0  0  0  0  0  0  0  0  0
   -2.4627    2.8095    5.1357 H   0  0  0  0  0  0  0  0  0  0  0  0
   -0.7290    2.6213    6.1634 H   0  0  0  0  0  0  0  0  0  0  0  0
    1.3266    4.2073    6.5081 H   0  0  0  0  0  0  0  0  0  0  0  0
   -0.3153    3.2945    9.6047 H   0  0  0  0  0  0  0  0  0  0  0  0
   -1.1855    3.8667    8.1811 H   0  0  0  0  0  0  0  0  0  0  0  0
    0.3184    4.6628    8.6882 H   0  0  0  0  0  0  0  0  0  0  0  0
    3.1380    3.3159    5.3310 H   0  0  0  0  0  0  0  0  0  0  0  0
    1.9367    0.5023    6.9004 H   0  0  0  0  0  0  0  0  0  0  0  0
    2.1444    0.0523    4.0934 H   0  0  0  0  0  0  0  0  0  0  0  0
    2.2212   -1.1311    5.3557 H   0  0  0  0  0  0  0  0  0  0  0  0
    0.1648   -0.9836    3.3821 H   0  0  0  0  0  0  0  0  0  0  0  0
    0.1156   -2.5715    6.0014 H   0  0  0  0  0  0  0  0  0  0  0  0
    0.9039   -3.0399    4.4995 H   0  0  0  0  0  0  0  0  0  0  0  0
   -0.8380   -2.8940    4.5563 H   0  0  0  0  0  0  0  0  0  0  0  0
   -2.6631   -0.6084    4.4854 H   0  0  0  0  0  0  0  0  0  0  0  0
  1  2  2  0
  1 24  1  0
  1 25  1  0
  2  9  1  0
  2  3  1  0
  4  3  1  6
  3 26  1  0
  3 27  1  0
  4 10  1  0
  4 14  1  0
  4  5  1  0
  5  6  2  0
  5  7  1  0
  7  8  1  0
  8 20  1  0
  8  9  1  0
  8 28  1  6
  9 10  1  0
  9 29  1  1
 10 11  1  0
 10 30  1  6
 11 12  1  0
 11 14  1  0
 11 31  1  1
 12 13  1  0
 13 32  1  0
 13 33  1  0
 13 34  1  0
 14 15  1  6
 14 16  1  0
 15 35  1  0
 16 22  1  0
 16 17  1  0
 16 36  1  1
 17 18  1  0
 17 37  1  0
 17 38  1  0
 18 19  1  0
 18 20  1  0
 18 39  1  6
 19 40  1  0
 19 41  1  0
 19 42  1  0
 20 21  1  1
 20 22  1  0
 21 43  1  0
 22 23  2  0
M  END
>  <i_m_ct_stereo_status>  (199) 
1

>  <s_m_source_file>  (199) 
/var/tmp/pbs.5076255.sched01/tmp7dp07en1/447ppmqug5.sdf

>  <i_m_source_file_index>  (199) 
41

>  <i_lp_mmshare_version>  (199) 
48012

>  <i_f3d_flags>  (199) 
0

>  <s_epik_input>  (199) 
W0NIMl09QyhbQ0gyXTEpW0NASF0oW0NIXTJbQ0BdMTM0KVtDQEhdKE9DMz1PKVtDQEBdNShbT0hdKVtDQEhdKFtDSDNdKVtDSDJdW0NASF0oQzU9TylbQ0BdNChbT0hdKVtDQEBIXTJPW0NIM10=

>  <s_epik_cmdline>  (199) 
J2VwaWtfcHl0aG9uJywgJy1waHQnLCAnMi4wJywgJy1waCcsICc3LjAnLCAnLXRuJywgJzgnLCAnLW1hJywgJzIwMCcsICctaW1hZScsICc8aW5maWxlLm1hZT4nLCAnLW9tYWUnLCAnPG91dGZpbGUubWFlPic=

>  <r_lp_tautomer_probability>  (199) 
1

>  <r_epik_Ionization_Penalty>  (199) 
4.98055e-07

>  <r_epik_Ionization_Penalty_Charging>  (199) 
0

>  <r_epik_Ionization_Penalty_Neutral>  (199) 
4.98055e-07

>  <r_epik_State_Penalty>  (199) 
-0

>  <r_epik_Charging_Adjusted_Penalty>  (199) 
0

>  <i_epik_Tot_Q>  (199) 
0

>  <i_epik_Tot_abs_Q>  (199) 
0

>  <s_epik_Chemistry_Notes>  (199) 
This compound has an ester and may undergo hydrolysis at high or low pH.

>  <s_lp_Force_Field>  (199) 
OPLS3e

>  <r_lp_Energy>  (199) 
253.993

>  <b_lp_Chiralities_Consistent>  (199) 
1

>  <s_lp_Variant>  (199) 
60:0-1

>  <s_i_glide_gridfile>  (199) 
pfpi4k_grid

>  <i_i_glide_lignum>  (199) 
41

>  <i_i_glide_rotatable_bonds>  (199) 
3

>  <r_i_docking_score>  (199) 
-2.91309

>  <r_i_glide_ligand_efficiency>  (199) 
-0.126656

>  <r_i_glide_ligand_efficiency_sa>  (199) 
-0.360193

>  <r_i_glide_ligand_efficiency_ln>  (199) 
-0.704411

>  <r_i_glide_gscore>  (199) 
-2.91309

>  <r_i_glide_lipo>  (199) 
-0.0185966

>  <r_i_glide_hbond>  (199) 
-0.0535839

>  <r_i_glide_metal>  (199) 
-0

>  <r_i_glide_rewards>  (199) 
-1.22497

>  <r_i_glide_evdw>  (199) 
-17.0616

>  <r_i_glide_ecoul>  (199) 
-4.51949

>  <r_i_glide_erotb>  (199) 
0

>  <r_i_glide_esite>  (199) 
-0.0849265

>  <r_i_glide_emodel>  (199) 
-25.913

>  <r_i_glide_energy>  (199) 
-21.5811

>  <r_i_glide_einternal>  (199) 
0.539993

>  <r_i_glide_intrahb_reward>  (199) 
-0

>  <i_i_glide_confnum>  (199) 
1

>  <i_i_glide_posenum>  (199) 
24

>  <r_i_glide_eff_state_penalty>  (199) 
0

>  <ligand_id>  (199) 
60

>  <original_smiles>  (199) 
C=C1CC23C(=O)OC4C1C2C(OC)C3(O)C1CC(C)C4(O)C1=O

>  <smiles>  (199) 
[H]OC12C(=O)C([H])(C([H])([H])C1([H])C([H])([H])[H])C1(O[H])C([H])(OC([H])([H])[H])C3([H])C4([H])C(=C([H])[H])C([H])([H])C31C(=O)OC42[H]

$$$$
60:0:2
     RDKit          3D

 43 47  0  0  1  0  0  0  0  0999 V2000
    2.7713    0.1428    1.4169 C   0  0  0  0  0  0  0  0  0  0  0  0
    2.5643    0.8705    2.5246 C   0  0  0  0  0  0  0  0  0  0  0  0
    3.3254    0.6821    3.8850 C   0  0  0  0  0  0  0  0  0  0  0  0
    2.3191    1.3740    4.8348 C   0  0  2  0  0  0  0  0  0  0  0  0
    1.1965    0.2694    4.8668 C   0  0  0  0  0  0  0  0  0  0  0  0
    1.1956   -0.7371    5.5736 O   0  0  0  0  0  0  0  0  0  0  0  0
    0.1920    0.5042    3.9263 O   0  0  0  0  0  0  0  0  0  0  0  0
    0.1424    1.7824    3.2702 C   0  0  1  0  0  0  0  0  0  0  0  0
    1.5899    2.0698    2.6648 C   0  0  1  0  0  0  0  0  0  0  0  0
    2.5244    2.5432    3.7418 C   0  0  2  0  0  0  0  0  0  0  0  0
    2.9703    3.4216    4.9550 C   0  0  1  0  0  0  0  0  0  0  0  0
    2.7780    4.8419    4.9687 O   0  0  0  0  0  0  0  0  0  0  0  0
    3.6964    5.5527    4.1563 C   0  0  0  0  0  0  0  0  0  0  0  0
    2.0171    2.6435    5.8071 C   0  0  2  0  0  0  0  0  0  0  0  0
    2.4619    2.4121    7.1271 O   0  0  0  0  0  0  0  0  0  0  0  0
    0.5722    3.3761    5.9927 C   0  0  2  0  0  0  0  0  0  0  0  0
   -0.6348    2.4762    6.3859 C   0  0  0  0  0  0  0  0  0  0  0  0
   -1.6101    2.3535    5.1477 C   0  0  1  0  0  0  0  0  0  0  0  0
   -2.9495    3.0719    5.4401 C   0  0  0  0  0  0  0  0  0  0  0  0
   -0.8136    2.9130    3.9065 C   0  0  2  0  0  0  0  0  0  0  0  0
   -1.6266    3.4624    2.8841 O   0  0  0  0  0  0  0  0  0  0  0  0
   -0.0844    4.0213    4.7356 C   0  0  0  0  0  0  0  0  0  0  0  0
   -0.1020    5.2252    4.4861 O   0  0  0  0  0  0  0  0  0  0  0  0
    2.2055    0.3329    0.5166 H   0  0  0  0  0  0  0  0  0  0  0  0
    3.5016   -0.6519    1.3973 H   0  0  0  0  0  0  0  0  0  0  0  0
    3.4923   -0.3808    4.0921 H   0  0  0  0  0  0  0  0  0  0  0  0
    4.3222    1.1357    3.8671 H   0  0  0  0  0  0  0  0  0  0  0  0
    0.4255    2.0850    4.1820 H   0  0  0  0  0  0  0  0  0  0  0  0
    1.5793    2.6785    1.7546 H   0  0  0  0  0  0  0  0  0  0  0  0
    1.9937    3.4655    3.5749 H   0  0  0  0  0  0  0  0  0  0  0  0
    4.0030    3.1852    5.2268 H   0  0  0  0  0  0  0  0  0  0  0  0
    3.4935    6.6202    4.2336 H   0  0  0  0  0  0  0  0  0  0  0  0
    3.6144    5.2655    3.1067 H   0  0  0  0  0  0  0  0  0  0  0  0
    4.7179    5.3839    4.4946 H   0  0  0  0  0  0  0  0  0  0  0  0
    3.3296    2.0499    7.0683 H   0  0  0  0  0  0  0  0  0  0  0  0
    0.6834    4.1723    6.7309 H   0  0  0  0  0  0  0  0  0  0  0  0
   -0.3080    1.5010    6.7465 H   0  0  0  0  0  0  0  0  0  0  0  0
   -1.1482    2.9355    7.2341 H   0  0  0  0  0  0  0  0  0  0  0  0
   -1.8679    1.3019    4.9982 H   0  0  0  0  0  0  0  0  0  0  0  0
   -2.8165    4.1374    5.6137 H   0  0  0  0  0  0  0  0  0  0  0  0
   -3.4262    2.6581    6.3312 H   0  0  0  0  0  0  0  0  0  0  0  0
   -3.6493    2.9437    4.6109 H   0  0  0  0  0  0  0  0  0  0  0  0
   -1.0505    3.7724    2.1877 H   0  0  0  0  0  0  0  0  0  0  0  0
  1  2  2  0
  1 24  1  0
  1 25  1  0
  2  9  1  0
  2  3  1  0
  4  3  1  1
  3 26  1  0
  3 27  1  0
  4 10  1  0
  4 14  1  0
  4  5  1  0
  5  6  2  0
  5  7  1  0
  7  8  1  0
  8 20  1  0
  8  9  1  0
  8 28  1  6
  9 10  1  0
  9 29  1  6
 10 11  1  0
 10 30  1  6
 11 12  1  0
 11 14  1  0
 11 31  1  1
 12 13  1  0
 13 32  1  0
 13 33  1  0
 13 34  1  0
 14 15  1  1
 14 16  1  0
 15 35  1  0
 16 22  1  0
 16 17  1  0
 16 36  1  1
 17 18  1  0
 17 37  1  0
 17 38  1  0
 18 19  1  0
 18 20  1  0
 18 39  1  6
 19 40  1  0
 19 41  1  0
 19 42  1  0
 20 21  1  6
 20 22  1  0
 21 43  1  0
 22 23  2  0
M  END
>  <i_m_ct_stereo_status>  (200) 
1

>  <s_m_source_file>  (200) 
/var/tmp/pbs.5076255.sched01/tmp7dp07en1/447ppmqug5.sdf

>  <i_m_source_file_index>  (200) 
41

>  <i_lp_mmshare_version>  (200) 
48012

>  <i_f3d_flags>  (200) 
0

>  <s_epik_input>  (200) 
W0NIMl09QyhbQ0gyXTEpW0NASF0oW0NIXTJbQ0BdMTM0KVtDQEhdKE9DMz1PKVtDQEBdNShbT0hdKVtDQEhdKFtDSDNdKVtDSDJdW0NASF0oQzU9TylbQ0BdNChbT0hdKVtDQEBIXTJPW0NIM10=

>  <s_epik_cmdline>  (200) 
J2VwaWtfcHl0aG9uJywgJy1waHQnLCAnMi4wJywgJy1waCcsICc3LjAnLCAnLXRuJywgJzgnLCAnLW1hJywgJzIwMCcsICctaW1hZScsICc8aW5maWxlLm1hZT4nLCAnLW9tYWUnLCAnPG91dGZpbGUubWFlPic=

>  <r_lp_tautomer_probability>  (200) 
1

>  <r_epik_Ionization_Penalty>  (200) 
4.98055e-07

>  <r_epik_Ionization_Penalty_Charging>  (200) 
0

>  <r_epik_Ionization_Penalty_Neutral>  (200) 
4.98055e-07

>  <r_epik_State_Penalty>  (200) 
-0

>  <r_epik_Charging_Adjusted_Penalty>  (200) 
0

>  <i_epik_Tot_Q>  (200) 
0

>  <i_epik_Tot_abs_Q>  (200) 
0

>  <s_epik_Chemistry_Notes>  (200) 
This compound has an ester and may undergo hydrolysis at high or low pH.

>  <s_lp_Force_Field>  (200) 
OPLS3e

>  <r_lp_Energy>  (200) 
253.993

>  <b_lp_Chiralities_Consistent>  (200) 
1

>  <s_lp_Variant>  (200) 
60:0-1

>  <s_i_glide_gridfile>  (200) 
pfpi4k_grid

>  <i_i_glide_lignum>  (200) 
41

>  <i_i_glide_rotatable_bonds>  (200) 
3

>  <r_i_docking_score>  (200) 
-2.77527

>  <r_i_glide_ligand_efficiency>  (200) 
-0.120664

>  <r_i_glide_ligand_efficiency_sa>  (200) 
-0.343152

>  <r_i_glide_ligand_efficiency_ln>  (200) 
-0.671085

>  <r_i_glide_gscore>  (200) 
-2.77527

>  <r_i_glide_lipo>  (200) 
-0.0107551

>  <r_i_glide_hbond>  (200) 
0

>  <r_i_glide_metal>  (200) 
-0

>  <r_i_glide_rewards>  (200) 
-1.22497

>  <r_i_glide_evdw>  (200) 
-16.9588

>  <r_i_glide_ecoul>  (200) 
-4.38554

>  <r_i_glide_erotb>  (200) 
0

>  <r_i_glide_esite>  (200) 
-0.0337653

>  <r_i_glide_emodel>  (200) 
-25.0999

>  <r_i_glide_energy>  (200) 
-21.3444

>  <r_i_glide_einternal>  (200) 
1.64038

>  <r_i_glide_intrahb_reward>  (200) 
-0

>  <i_i_glide_confnum>  (200) 
1

>  <i_i_glide_posenum>  (200) 
1

>  <r_i_glide_eff_state_penalty>  (200) 
0

>  <ligand_id>  (200) 
60

>  <original_smiles>  (200) 
C=C1CC23C(=O)OC4C1C2C(OC)C3(O)C1CC(C)C4(O)C1=O

>  <smiles>  (200) 
[H]OC12C(=O)C([H])(C([H])([H])C1([H])C([H])([H])[H])C1(O[H])C([H])(OC([H])([H])[H])C3([H])C4([H])C(=C([H])[H])C([H])([H])C31C(=O)OC42[H]

$$$$
62:0:0
     RDKit          3D

 74 79  0  0  1  0  0  0  0  0999 V2000
   -0.6654   -8.9318    2.6530 C   0  0  0  0  0  0  0  0  0  0  0  0
    0.2283   -8.2972    3.7320 C   0  0  2  0  0  0  0  0  0  0  0  0
   -0.4665   -7.0495    4.3118 C   0  0  0  0  0  0  0  0  0  0  0  0
    0.4795   -6.2831    5.2370 C   0  0  0  0  0  0  0  0  0  0  0  0
    1.7977   -5.9347    4.4558 C   0  0  2  0  0  0  0  0  0  0  0  0
    2.3559   -7.1126    3.9890 O   0  0  0  0  0  0  0  0  0  0  0  0
    1.5365   -7.9141    3.1158 C   0  0  0  0  0  0  0  0  0  0  0  0
    2.6427   -5.2797    5.4006 O   0  0  0  0  0  0  0  0  0  0  0  0
    2.2601   -3.9075    5.5014 C   0  0  1  0  0  0  0  0  0  0  0  0
    3.2692   -2.9976    6.2566 C   0  0  0  0  0  0  0  0  0  0  0  0
    1.9810   -3.5875    3.9987 C   0  0  1  0  0  0  0  0  0  0  0  0
    3.1166   -2.8015    3.2949 C   0  0  1  0  0  0  0  0  0  0  0  0
    4.5020   -3.5897    3.3797 C   0  0  0  0  0  0  0  0  0  0  0  0
    2.7339   -2.3386    1.8849 C   0  0  0  0  0  0  0  0  0  0  0  0
    3.4130   -1.0323    2.1210 C   0  0  1  0  0  0  0  0  0  0  0  0
    2.7980    0.2148    1.5605 C   0  0  0  0  0  0  0  0  0  0  0  0
    1.3711    0.5230    2.0761 C   0  0  0  0  0  0  0  0  0  0  0  0
    0.9544   -0.0775    3.4515 C   0  0  1  0  0  0  0  0  0  0  0  0
    2.1760   -0.4452    4.3342 C   0  0  2  0  0  0  0  0  0  0  0  0
    2.8174    0.8074    4.9779 C   0  0  0  0  0  0  0  0  0  0  0  0
    1.7888    1.6219    5.7767 C   0  0  0  0  0  0  0  0  0  0  0  0
    0.5968    1.9566    4.9099 C   0  0  0  0  0  0  0  0  0  0  0  0
    0.2384    3.2763    4.7224 C   0  0  0  0  0  0  0  0  0  0  0  0
   -0.8755    3.6160    3.8366 C   0  0  0  0  0  0  0  0  0  0  0  0
   -1.2377    4.8143    3.7097 O   0  0  0  0  0  0  0  0  0  0  0  0
   -1.5675    2.5642    3.1190 C   0  0  0  0  0  0  0  0  0  0  0  0
   -1.2081    1.2654    3.3009 C   0  0  0  0  0  0  0  0  0  0  0  0
   -0.1034    0.7819    4.2414 C   0  0  1  0  0  0  0  0  0  0  0  0
   -0.8136   -0.0900    5.3173 C   0  0  0  0  0  0  0  0  0  0  0  0
    3.2473   -1.2977    3.6134 C   0  0  1  0  0  0  0  0  0  0  0  0
    1.5987   -4.9197    3.3055 C   0  0  1  0  0  0  0  0  0  0  0  0
    2.3902   -5.2589    1.9763 C   0  0  0  0  0  0  0  0  0  0  0  0
   -0.9035   -8.2373    1.8419 H   0  0  0  0  0  0  0  0  0  0  0  0
   -1.6061   -9.2669    3.0989 H   0  0  0  0  0  0  0  0  0  0  0  0
   -0.1640   -9.7898    2.2075 H   0  0  0  0  0  0  0  0  0  0  0  0
    0.4359   -9.0020    4.5223 H   0  0  0  0  0  0  0  0  0  0  0  0
   -0.8458   -6.4024    3.5209 H   0  0  0  0  0  0  0  0  0  0  0  0
   -1.3540   -7.3511    4.8726 H   0  0  0  0  0  0  0  0  0  0  0  0
   -0.0160   -5.3726    5.5653 H   0  0  0  0  0  0  0  0  0  0  0  0
    0.7250   -6.8681    6.1280 H   0  0  0  0  0  0  0  0  0  0  0  0
    2.1203   -8.7362    2.7170 H   0  0  0  0  0  0  0  0  0  0  0  0
    1.1554   -7.4058    2.2327 H   0  0  0  0  0  0  0  0  0  0  0  0
    1.3516   -3.8643    6.0838 H   0  0  0  0  0  0  0  0  0  0  0  0
    2.8601   -2.0484    6.4893 H   0  0  0  0  0  0  0  0  0  0  0  0
    4.1448   -2.7157    5.6748 H   0  0  0  0  0  0  0  0  0  0  0  0
    3.6712   -3.4695    7.1279 H   0  0  0  0  0  0  0  0  0  0  0  0
    1.0465   -2.9733    4.0078 H   0  0  0  0  0  0  0  0  0  0  0  0
    5.1062   -3.4070    2.4985 H   0  0  0  0  0  0  0  0  0  0  0  0
    4.4301   -4.6537    3.6037 H   0  0  0  0  0  0  0  0  0  0  0  0
    5.1731   -3.3784    4.1974 H   0  0  0  0  0  0  0  0  0  0  0  0
    3.2206   -2.8510    1.0505 H   0  0  0  0  0  0  0  0  0  0  0  0
    1.6505   -2.2756    1.7130 H   0  0  0  0  0  0  0  0  0  0  0  0
    4.4569   -1.1520    1.8277 H   0  0  0  0  0  0  0  0  0  0  0  0
    3.4466    1.0413    1.8427 H   0  0  0  0  0  0  0  0  0  0  0  0
    2.8053    0.1481    0.4831 H   0  0  0  0  0  0  0  0  0  0  0  0
    1.2891    1.6094    2.0979 H   0  0  0  0  0  0  0  0  0  0  0  0
    0.6440    0.1803    1.3311 H   0  0  0  0  0  0  0  0  0  0  0  0
    0.4632   -1.0207    3.2161 H   0  0  0  0  0  0  0  0  0  0  0  0
    1.7423   -1.0096    5.1365 H   0  0  0  0  0  0  0  0  0  0  0  0
    3.6380    0.5191    5.6377 H   0  0  0  0  0  0  0  0  0  0  0  0
    3.2574    1.4341    4.2040 H   0  0  0  0  0  0  0  0  0  0  0  0
    1.4606    1.0523    6.6522 H   0  0  0  0  0  0  0  0  0  0  0  0
    2.2641    2.5225    6.1667 H   0  0  0  0  0  0  0  0  0  0  0  0
    0.7820    4.0559    5.2003 H   0  0  0  0  0  0  0  0  0  0  0  0
   -2.3703    2.8108    2.4479 H   0  0  0  0  0  0  0  0  0  0  0  0
   -1.7496    0.5239    2.7555 H   0  0  0  0  0  0  0  0  0  0  0  0
   -1.5565    0.4935    5.8592 H   0  0  0  0  0  0  0  0  0  0  0  0
   -0.1344   -0.4963    6.0661 H   0  0  0  0  0  0  0  0  0  0  0  0
   -1.3351   -0.9393    4.8720 H   0  0  0  0  0  0  0  0  0  0  0  0
    4.2183   -1.1668    4.0993 H   0  0  0  0  0  0  0  0  0  0  0  0
    0.5622   -4.9026    3.0544 H   0  0  0  0  0  0  0  0  0  0  0  0
    3.4714   -5.3553    2.0984 H   0  0  0  0  0  0  0  0  0  0  0  0
    2.1001   -4.5805    1.2219 H   0  0  0  0  0  0  0  0  0  0  0  0
    2.3059   -6.1683    1.4601 H   0  0  0  0  0  0  0  0  0  0  0  0
  1  2  1  0
  1 33  1  0
  1 34  1  0
  1 35  1  0
  2  7  1  0
  2  3  1  0
  2 36  1  1
  3  4  1  0
  3 37  1  0
  3 38  1  0
  4  5  1  0
  4 39  1  0
  4 40  1  0
  5 31  1  0
  5  6  1  6
  5  8  1  0
  6  7  1  0
  7 41  1  0
  7 42  1  0
  8  9  1  0
  9 10  1  0
  9 11  1  0
  9 43  1  1
 10 44  1  0
 10 45  1  0
 10 46  1  0
 11 12  1  0
 11 31  1  0
 11 47  1  1
 12 30  1  0
 12 13  1  6
 12 14  1  0
 13 48  1  0
 13 49  1  0
 13 50  1  0
 14 15  1  0
 14 51  1  0
 14 52  1  0
 15 30  1  0
 15 16  1  0
 15 53  1  1
 16 17  1  0
 16 54  1  0
 16 55  1  0
 17 18  1  0
 17 56  1  0
 17 57  1  0
 18 28  1  0
 18 19  1  0
 18 58  1  6
 19 20  1  0
 19 30  1  0
 19 59  1  1
 20 21  1  0
 20 60  1  0
 20 61  1  0
 21 22  1  0
 21 62  1  0
 21 63  1  0
 22 28  1  0
 22 23  2  0
 23 24  1  0
 23 64  1  0
 24 25  2  0
 24 26  1  0
 26 27  2  0
 26 65  1  0
 27 28  1  0
 27 66  1  0
 28 29  1  1
 29 67  1  0
 29 68  1  0
 29 69  1  0
 30 70  1  1
 31 32  1  0
 31 71  1  6
 32 72  1  0
 32 73  1  0
 32 74  1  0
M  END
>  <i_m_ct_stereo_status>  (201) 
1

>  <s_m_source_file>  (201) 
/var/tmp/pbs.5076255.sched01/tmp7dp07en1/447ppmqug5.sdf

>  <i_m_source_file_index>  (201) 
44

>  <i_lp_mmshare_version>  (201) 
48012

>  <i_f3d_flags>  (201) 
0

>  <s_epik_input>  (201) 
TzFbQ0gyXVtDQEhdKFtDSDNdKVtDSDJdW0NIMl1bQ0BAXTEyT1tDQEBIXShbQ0gzXSlbQ0BIXShbQ0BIXTJbQ0gzXSlbQ0BAXTMoW0NIM10pW0NIMl1bQ0BASF0oW0NIMl1bQ0gyXTQpW0NASF0zW0NASF0oW0NASF00W0NAQF01NltDSDNdKVtDSDJdW0NIMl1DNT1bQ0hdQyg9TylbQ0hdPVtDSF02

>  <s_epik_cmdline>  (201) 
J2VwaWtfcHl0aG9uJywgJy1waHQnLCAnMi4wJywgJy1waCcsICc3LjAnLCAnLXRuJywgJzgnLCAnLW1hJywgJzIwMCcsICctaW1hZScsICc8aW5maWxlLm1hZT4nLCAnLW9tYWUnLCAnPG91dGZpbGUubWFlPic=

>  <r_lp_tautomer_probability>  (201) 
1

>  <r_epik_Ionization_Penalty>  (201) 
2.82232e-12

>  <r_epik_Ionization_Penalty_Charging>  (201) 
0

>  <r_epik_Ionization_Penalty_Neutral>  (201) 
2.82232e-12

>  <r_epik_State_Penalty>  (201) 
-0

>  <r_epik_Charging_Adjusted_Penalty>  (201) 
0

>  <i_epik_Tot_Q>  (201) 
0

>  <i_epik_Tot_abs_Q>  (201) 
0

>  <s_lp_Force_Field>  (201) 
OPLS3e

>  <r_lp_Energy>  (201) 
55.6656

>  <b_lp_Chiralities_Consistent>  (201) 
1

>  <s_lp_Variant>  (201) 
62:0-1

>  <s_i_glide_gridfile>  (201) 
pfpi4k_grid

>  <i_i_glide_lignum>  (201) 
44

>  <i_i_glide_rotatable_bonds>  (201) 
1

>  <r_i_docking_score>  (201) 
-1.25924

>  <r_i_glide_ligand_efficiency>  (201) 
-0.0393511

>  <r_i_glide_ligand_efficiency_sa>  (201) 
-0.124932

>  <r_i_glide_ligand_efficiency_ln>  (201) 
-0.281977

>  <r_i_glide_gscore>  (201) 
-1.25924

>  <r_i_glide_lipo>  (201) 
-0.0202514

>  <r_i_glide_hbond>  (201) 
-0.154655

>  <r_i_glide_metal>  (201) 
-0

>  <r_i_glide_rewards>  (201) 
-0.41835

>  <r_i_glide_evdw>  (201) 
-22.7213

>  <r_i_glide_ecoul>  (201) 
-3.38658

>  <r_i_glide_erotb>  (201) 
0.103694

>  <r_i_glide_esite>  (201) 
-0.0764607

>  <r_i_glide_emodel>  (201) 
-21.8442

>  <r_i_glide_energy>  (201) 
-26.1078

>  <r_i_glide_einternal>  (201) 
0.00279791

>  <r_i_glide_intrahb_reward>  (201) 
-0

>  <i_i_glide_confnum>  (201) 
4

>  <i_i_glide_posenum>  (201) 
1

>  <r_i_glide_eff_state_penalty>  (201) 
0

>  <ligand_id>  (201) 
62

>  <original_smiles>  (201) 
CC1CCC2(OC1)OC(C)C(C1(C)CC3CCC4C(CCC5=CC(=O)C=CC54C)C31)C2C

>  <smiles>  (201) 
[H]C1=C([H])C2(C([H])([H])[H])C(=C([H])C1=O)C([H])([H])C([H])([H])C1([H])C2([H])C([H])([H])C([H])([H])C2([H])C([H])([H])C(C([H])([H])[H])(C3([H])C([H])(C([H])([H])[H])OC4(OC([H])([H])C([H])(C([H])([H])[H])C([H])([H])C4([H])[H])C3([H])C([H])([H])[H])C21[H]

$$$$
62:0:1
     RDKit          3D

 74 79  0  0  1  0  0  0  0  0999 V2000
    2.3163   -0.3184   -4.7428 C   0  0  0  0  0  0  0  0  0  0  0  0
    3.0328   -1.5486   -4.1576 C   0  0  2  0  0  0  0  0  0  0  0  0
    2.1984   -2.2147   -3.0676 C   0  0  0  0  0  0  0  0  0  0  0  0
    2.9939   -3.2637   -2.3042 C   0  0  0  0  0  0  0  0  0  0  0  0
    4.3083   -2.6419   -1.7462 C   0  0  2  0  0  0  0  0  0  0  0  0
    5.0046   -2.0914   -2.8149 O   0  0  0  0  0  0  0  0  0  0  0  0
    4.3303   -1.0829   -3.5975 C   0  0  0  0  0  0  0  0  0  0  0  0
    5.0233   -3.6875   -1.1198 O   0  0  0  0  0  0  0  0  0  0  0  0
    4.4807   -3.8899    0.1859 C   0  0  1  0  0  0  0  0  0  0  0  0
    5.3153   -4.8004    1.1079 C   0  0  0  0  0  0  0  0  0  0  0  0
    4.2582   -2.4330    0.6507 C   0  0  1  0  0  0  0  0  0  0  0  0
    5.3634   -1.8890    1.5964 C   0  0  1  0  0  0  0  0  0  0  0  0
    6.8115   -2.0151    0.9483 C   0  0  0  0  0  0  0  0  0  0  0  0
    5.0489   -0.4800    2.1411 C   0  0  0  0  0  0  0  0  0  0  0  0
    5.5476   -0.8819    3.4848 C   0  0  1  0  0  0  0  0  0  0  0  0
    4.8529   -0.3570    4.6980 C   0  0  0  0  0  0  0  0  0  0  0  0
    3.3576   -0.7649    4.8018 C   0  0  0  0  0  0  0  0  0  0  0  0
    2.9023   -2.0490    4.0470 C   0  0  1  0  0  0  0  0  0  0  0  0
    4.0802   -3.0128    3.7375 C   0  0  2  0  0  0  0  0  0  0  0  0
    4.5154   -3.8020    4.9936 C   0  0  0  0  0  0  0  0  0  0  0  0
    3.3378   -4.5595    5.6202 C   0  0  0  0  0  0  0  0  0  0  0  0
    2.1875   -3.6137    5.9097 C   0  0  0  0  0  0  0  0  0  0  0  0
    1.6984   -3.4951    7.1728 C   0  0  0  0  0  0  0  0  0  0  0  0
    0.6260   -2.5376    7.4816 C   0  0  0  0  0  0  0  0  0  0  0  0
    0.1465   -2.4550    8.6221 O   0  0  0  0  0  0  0  0  0  0  0  0
    0.1284   -1.6798    6.4082 C   0  0  0  0  0  0  0  0  0  0  0  0
    0.6146   -1.7953    5.1558 C   0  0  0  0  0  0  0  0  0  0  0  0
    1.6908   -2.7943    4.7150 C   0  0  1  0  0  0  0  0  0  0  0  0
    1.0042   -3.7335    3.6935 C   0  0  0  0  0  0  0  0  0  0  0  0
    5.2984   -2.3250    3.0743 C   0  0  1  0  0  0  0  0  0  0  0  0
    4.0620   -1.6129   -0.6320 C   0  0  1  0  0  0  0  0  0  0  0  0
    4.9898   -0.3388   -0.7615 C   0  0  0  0  0  0  0  0  0  0  0  0
    2.0886    0.4503   -3.9978 H   0  0  0  0  0  0  0  0  0  0  0  0
    1.3729   -0.6380   -5.1670 H   0  0  0  0  0  0  0  0  0  0  0  0
    2.9224    0.1501   -5.5164 H   0  0  0  0  0  0  0  0  0  0  0  0
    3.2877   -2.2703   -4.9103 H   0  0  0  0  0  0  0  0  0  0  0  0
    1.8520   -1.4700   -2.3694 H   0  0  0  0  0  0  0  0  0  0  0  0
    1.3247   -2.6739   -3.5039 H   0  0  0  0  0  0  0  0  0  0  0  0
    2.3771   -3.6371   -1.4899 H   0  0  0  0  0  0  0  0  0  0  0  0
    3.2461   -4.0771   -2.9774 H   0  0  0  0  0  0  0  0  0  0  0  0
    5.0018   -0.6742   -4.3316 H   0  0  0  0  0  0  0  0  0  0  0  0
    3.9408   -0.2079   -3.0422 H   0  0  0  0  0  0  0  0  0  0  0  0
    3.5354   -4.4093    0.0744 H   0  0  0  0  0  0  0  0  0  0  0  0
    4.7990   -5.0721    1.9991 H   0  0  0  0  0  0  0  0  0  0  0  0
    6.2077   -4.3187    1.5482 H   0  0  0  0  0  0  0  0  0  0  0  0
    5.7189   -5.6533    0.6054 H   0  0  0  0  0  0  0  0  0  0  0  0
    3.2767   -2.4098    1.1556 H   0  0  0  0  0  0  0  0  0  0  0  0
    7.4598   -1.2130    1.2711 H   0  0  0  0  0  0  0  0  0  0  0  0
    6.8476   -2.1433   -0.1412 H   0  0  0  0  0  0  0  0  0  0  0  0
    7.4014   -2.9123    1.1469 H   0  0  0  0  0  0  0  0  0  0  0  0
    5.6664    0.3140    1.7437 H   0  0  0  0  0  0  0  0  0  0  0  0
    3.9827   -0.2139    2.0879 H   0  0  0  0  0  0  0  0  0  0  0  0
    6.5729   -0.6507    3.4770 H   0  0  0  0  0  0  0  0  0  0  0  0
    5.3732   -0.7689    5.5583 H   0  0  0  0  0  0  0  0  0  0  0  0
    4.9579    0.7266    4.7484 H   0  0  0  0  0  0  0  0  0  0  0  0
    3.1547   -0.8622    5.8674 H   0  0  0  0  0  0  0  0  0  0  0  0
    2.7395    0.0668    4.4493 H   0  0  0  0  0  0  0  0  0  0  0  0
    2.5440   -1.6962    3.0805 H   0  0  0  0  0  0  0  0  0  0  0  0
    3.6674   -3.7409    3.0568 H   0  0  0  0  0  0  0  0  0  0  0  0
    5.3075   -4.5118    4.7448 H   0  0  0  0  0  0  0  0  0  0  0  0
    4.9415   -3.1193    5.7260 H   0  0  0  0  0  0  0  0  0  0  0  0
    3.0029   -5.3552    4.9495 H   0  0  0  0  0  0  0  0  0  0  0  0
    3.6686   -5.0588    6.5310 H   0  0  0  0  0  0  0  0  0  0  0  0
    2.1050   -4.0814    7.9741 H   0  0  0  0  0  0  0  0  0  0  0  0
   -0.6359   -0.9522    6.6324 H   0  0  0  0  0  0  0  0  0  0  0  0
    0.2123   -1.1469    4.3991 H   0  0  0  0  0  0  0  0  0  0  0  0
    0.1545   -4.2470    4.1385 H   0  0  0  0  0  0  0  0  0  0  0  0
    1.6576   -4.5069    3.2904 H   0  0  0  0  0  0  0  0  0  0  0  0
    0.6200   -3.1641    2.8522 H   0  0  0  0  0  0  0  0  0  0  0  0
    6.1919   -2.9159    3.2416 H   0  0  0  0  0  0  0  0  0  0  0  0
    3.0612   -1.2277   -0.7019 H   0  0  0  0  0  0  0  0  0  0  0  0
    6.0735   -0.5180   -0.7273 H   0  0  0  0  0  0  0  0  0  0  0  0
    4.6487    0.3842   -0.0394 H   0  0  0  0  0  0  0  0  0  0  0  0
    5.0674    0.1621   -1.6106 H   0  0  0  0  0  0  0  0  0  0  0  0
  1  2  1  0
  1 33  1  0
  1 34  1  0
  1 35  1  0
  2  7  1  0
  2  3  1  0
  2 36  1  6
  3  4  1  0
  3 37  1  0
  3 38  1  0
  4  5  1  0
  4 39  1  0
  4 40  1  0
  5 31  1  0
  5  6  1  6
  5  8  1  0
  6  7  1  0
  7 41  1  0
  7 42  1  0
  8  9  1  0
  9 10  1  0
  9 11  1  0
  9 43  1  6
 10 44  1  0
 10 45  1  0
 10 46  1  0
 11 12  1  0
 11 31  1  0
 11 47  1  1
 12 30  1  0
 12 13  1  6
 12 14  1  0
 13 48  1  0
 13 49  1  0
 13 50  1  0
 14 15  1  0
 14 51  1  0
 14 52  1  0
 15 30  1  0
 15 16  1  0
 15 53  1  1
 16 17  1  0
 16 54  1  0
 16 55  1  0
 17 18  1  0
 17 56  1  0
 17 57  1  0
 18 28  1  0
 18 19  1  0
 18 58  1  6
 19 20  1  0
 19 30  1  0
 19 59  1  6
 20 21  1  0
 20 60  1  0
 20 61  1  0
 21 22  1  0
 21 62  1  0
 21 63  1  0
 22 28  1  0
 22 23  2  0
 23 24  1  0
 23 64  1  0
 24 25  2  0
 24 26  1  0
 26 27  2  0
 26 65  1  0
 27 28  1  0
 27 66  1  0
 28 29  1  6
 29 67  1  0
 29 68  1  0
 29 69  1  0
 30 70  1  6
 31 32  1  0
 31 71  1  6
 32 72  1  0
 32 73  1  0
 32 74  1  0
M  END
>  <i_m_ct_stereo_status>  (202) 
1

>  <s_m_source_file>  (202) 
/var/tmp/pbs.5076255.sched01/tmp7dp07en1/447ppmqug5.sdf

>  <i_m_source_file_index>  (202) 
44

>  <i_lp_mmshare_version>  (202) 
48012

>  <i_f3d_flags>  (202) 
0

>  <s_epik_input>  (202) 
TzFbQ0gyXVtDQEhdKFtDSDNdKVtDSDJdW0NIMl1bQ0BAXTEyT1tDQEBIXShbQ0gzXSlbQ0BIXShbQ0BIXTJbQ0gzXSlbQ0BAXTMoW0NIM10pW0NIMl1bQ0BASF0oW0NIMl1bQ0gyXTQpW0NASF0zW0NASF0oW0NASF00W0NAQF01NltDSDNdKVtDSDJdW0NIMl1DNT1bQ0hdQyg9TylbQ0hdPVtDSF02

>  <s_epik_cmdline>  (202) 
J2VwaWtfcHl0aG9uJywgJy1waHQnLCAnMi4wJywgJy1waCcsICc3LjAnLCAnLXRuJywgJzgnLCAnLW1hJywgJzIwMCcsICctaW1hZScsICc8aW5maWxlLm1hZT4nLCAnLW9tYWUnLCAnPG91dGZpbGUubWFlPic=

>  <r_lp_tautomer_probability>  (202) 
1

>  <r_epik_Ionization_Penalty>  (202) 
2.82232e-12

>  <r_epik_Ionization_Penalty_Charging>  (202) 
0

>  <r_epik_Ionization_Penalty_Neutral>  (202) 
2.82232e-12

>  <r_epik_State_Penalty>  (202) 
-0

>  <r_epik_Charging_Adjusted_Penalty>  (202) 
0

>  <i_epik_Tot_Q>  (202) 
0

>  <i_epik_Tot_abs_Q>  (202) 
0

>  <s_lp_Force_Field>  (202) 
OPLS3e

>  <r_lp_Energy>  (202) 
55.6656

>  <b_lp_Chiralities_Consistent>  (202) 
1

>  <s_lp_Variant>  (202) 
62:0-1

>  <s_i_glide_gridfile>  (202) 
pfpi4k_grid

>  <i_i_glide_lignum>  (202) 
44

>  <i_i_glide_rotatable_bonds>  (202) 
1

>  <r_i_docking_score>  (202) 
-0.932737

>  <r_i_glide_ligand_efficiency>  (202) 
-0.029148

>  <r_i_glide_ligand_efficiency_sa>  (202) 
-0.0925392

>  <r_i_glide_ligand_efficiency_ln>  (202) 
-0.208865

>  <r_i_glide_gscore>  (202) 
-0.932737

>  <r_i_glide_lipo>  (202) 
-0.822279

>  <r_i_glide_hbond>  (202) 
-0.114382

>  <r_i_glide_metal>  (202) 
-0

>  <r_i_glide_rewards>  (202) 
-0.41835

>  <r_i_glide_evdw>  (202) 
-11.0895

>  <r_i_glide_ecoul>  (202) 
-2.65386

>  <r_i_glide_erotb>  (202) 
0.103694

>  <r_i_glide_esite>  (202) 
-0.0388682

>  <r_i_glide_emodel>  (202) 
-8.02278

>  <r_i_glide_energy>  (202) 
-13.7433

>  <r_i_glide_einternal>  (202) 
0.1479

>  <r_i_glide_intrahb_reward>  (202) 
-0

>  <i_i_glide_confnum>  (202) 
4

>  <i_i_glide_posenum>  (202) 
14

>  <r_i_glide_eff_state_penalty>  (202) 
0

>  <ligand_id>  (202) 
62

>  <original_smiles>  (202) 
CC1CCC2(OC1)OC(C)C(C1(C)CC3CCC4C(CCC5=CC(=O)C=CC54C)C31)C2C

>  <smiles>  (202) 
[H]C1=C([H])C2(C([H])([H])[H])C(=C([H])C1=O)C([H])([H])C([H])([H])C1([H])C2([H])C([H])([H])C([H])([H])C2([H])C([H])([H])C(C([H])([H])[H])(C3([H])C([H])(C([H])([H])[H])OC4(OC([H])([H])C([H])(C([H])([H])[H])C([H])([H])C4([H])[H])C3([H])C([H])([H])[H])C21[H]

$$$$
62:0:2
     RDKit          3D

 74 79  0  0  1  0  0  0  0  0999 V2000
    0.2663   -1.2283    5.4403 C   0  0  0  0  0  0  0  0  0  0  0  0
    0.7729   -2.1482    6.5646 C   0  0  2  0  0  0  0  0  0  0  0  0
    2.1402   -2.7420    6.1611 C   0  0  0  0  0  0  0  0  0  0  0  0
    2.5821   -3.7936    7.1808 C   0  0  0  0  0  0  0  0  0  0  0  0
    1.4496   -4.8740    7.3416 C   0  0  2  0  0  0  0  0  0  0  0  0
    0.2760   -4.2188    7.7037 O   0  0  0  0  0  0  0  0  0  0  0  0
   -0.2229   -3.2328    6.8081 C   0  0  0  0  0  0  0  0  0  0  0  0
    1.9026   -5.7865    8.3306 O   0  0  0  0  0  0  0  0  0  0  0  0
    2.8098   -6.7281    7.7347 C   0  0  1  0  0  0  0  0  0  0  0  0
    3.1490   -7.9598    8.5995 C   0  0  0  0  0  0  0  0  0  0  0  0
    2.1023   -6.9667    6.3763 C   0  0  1  0  0  0  0  0  0  0  0  0
    1.3024   -8.2902    6.3460 C   0  0  1  0  0  0  0  0  0  0  0  0
    0.2436   -8.4031    7.5062 C   0  0  0  0  0  0  0  0  0  0  0  0
    0.7340   -8.6156    4.9533 C   0  0  0  0  0  0  0  0  0  0  0  0
    1.0943  -10.0549    5.1098 C   0  0  1  0  0  0  0  0  0  0  0  0
    1.6026  -10.8190    3.9191 C   0  0  0  0  0  0  0  0  0  0  0  0
    2.9027  -10.2533    3.2847 C   0  0  0  0  0  0  0  0  0  0  0  0
    3.8316   -9.4014    4.2042 C   0  0  1  0  0  0  0  0  0  0  0  0
    3.6020   -9.6715    5.7242 C   0  0  2  0  0  0  0  0  0  0  0  0
    4.2541  -11.0124    6.1566 C   0  0  0  0  0  0  0  0  0  0  0  0
    5.7480  -11.0518    5.8063 C   0  0  0  0  0  0  0  0  0  0  0  0
    5.9586  -10.7755    4.3314 C   0  0  0  0  0  0  0  0  0  0  0  0
    6.5981  -11.6751    3.5516 C   0  0  0  0  0  0  0  0  0  0  0  0
    6.7700  -11.4581    2.1086 C   0  0  0  0  0  0  0  0  0  0  0  0
    7.3972  -12.2548    1.3998 O   0  0  0  0  0  0  0  0  0  0  0  0
    6.1819  -10.2456    1.5274 C   0  0  0  0  0  0  0  0  0  0  0  0
    5.5376   -9.3485    2.3033 C   0  0  0  0  0  0  0  0  0  0  0  0
    5.3575   -9.4580    3.8139 C   0  0  1  0  0  0  0  0  0  0  0  0
    6.1243   -8.2521    4.4214 C   0  0  0  0  0  0  0  0  0  0  0  0
    2.1126   -9.5994    6.1613 C   0  0  1  0  0  0  0  0  0  0  0  0
    1.2048   -5.7375    6.0595 C   0  0  1  0  0  0  0  0  0  0  0  0
   -0.2750   -6.0250    5.7075 C   0  0  0  0  0  0  0  0  0  0  0  0
    0.1600   -1.7633    4.4913 H   0  0  0  0  0  0  0  0  0  0  0  0
    0.9587   -0.3979    5.2763 H   0  0  0  0  0  0  0  0  0  0  0  0
   -0.7126   -0.8204    5.6948 H   0  0  0  0  0  0  0  0  0  0  0  0
    0.8906   -1.5669    7.4886 H   0  0  0  0  0  0  0  0  0  0  0  0
    2.1018   -3.1638    5.1563 H   0  0  0  0  0  0  0  0  0  0  0  0
    2.8944   -1.9544    6.1123 H   0  0  0  0  0  0  0  0  0  0  0  0
    3.4933   -4.2628    6.8276 H   0  0  0  0  0  0  0  0  0  0  0  0
    2.7918   -3.3482    8.1511 H   0  0  0  0  0  0  0  0  0  0  0  0
   -1.1822   -2.8902    7.1389 H   0  0  0  0  0  0  0  0  0  0  0  0
   -0.3764   -3.5676    5.7994 H   0  0  0  0  0  0  0  0  0  0  0  0
    3.7537   -6.1959    7.5771 H   0  0  0  0  0  0  0  0  0  0  0  0
    3.9722   -8.4945    8.1929 H   0  0  0  0  0  0  0  0  0  0  0  0
    2.3611   -8.6946    8.6217 H   0  0  0  0  0  0  0  0  0  0  0  0
    3.3231   -7.6894    9.6105 H   0  0  0  0  0  0  0  0  0  0  0  0
    2.9064   -7.0048    5.6071 H   0  0  0  0  0  0  0  0  0  0  0  0
   -0.6126   -8.9618    7.2156 H   0  0  0  0  0  0  0  0  0  0  0  0
   -0.0654   -7.4443    7.9359 H   0  0  0  0  0  0  0  0  0  0  0  0
    0.5451   -8.8497    8.4283 H   0  0  0  0  0  0  0  0  0  0  0  0
   -0.3557   -8.5020    4.8384 H   0  0  0  0  0  0  0  0  0  0  0  0
    1.2504   -8.0999    4.1271 H   0  0  0  0  0  0  0  0  0  0  0  0
    0.2605  -10.5726    5.5897 H   0  0  0  0  0  0  0  0  0  0  0  0
    1.8121  -11.8485    4.2561 H   0  0  0  0  0  0  0  0  0  0  0  0
    0.8130  -10.8960    3.1632 H   0  0  0  0  0  0  0  0  0  0  0  0
    3.4396  -11.1092    2.9018 H   0  0  0  0  0  0  0  0  0  0  0  0
    2.6383   -9.6389    2.4124 H   0  0  0  0  0  0  0  0  0  0  0  0
    3.5278   -8.3773    4.0398 H   0  0  0  0  0  0  0  0  0  0  0  0
    4.1504   -8.8966    6.2327 H   0  0  0  0  0  0  0  0  0  0  0  0
    4.1243  -11.1599    7.2223 H   0  0  0  0  0  0  0  0  0  0  0  0
    3.7383  -11.8431    5.6749 H   0  0  0  0  0  0  0  0  0  0  0  0
    6.2957  -10.3196    6.4127 H   0  0  0  0  0  0  0  0  0  0  0  0
    6.1552  -12.0310    6.0848 H   0  0  0  0  0  0  0  0  0  0  0  0
    6.9846  -12.5842    3.9659 H   0  0  0  0  0  0  0  0  0  0  0  0
    6.2735  -10.0901    0.4717 H   0  0  0  0  0  0  0  0  0  0  0  0
    5.1242   -8.4818    1.8145 H   0  0  0  0  0  0  0  0  0  0  0  0
    7.1783   -8.2835    4.1478 H   0  0  0  0  0  0  0  0  0  0  0  0
    6.0865   -8.2157    5.5069 H   0  0  0  0  0  0  0  0  0  0  0  0
    5.7280   -7.3021    4.0588 H   0  0  0  0  0  0  0  0  0  0  0  0
    1.9864  -10.2113    7.0760 H   0  0  0  0  0  0  0  0  0  0  0  0
    1.6577   -5.2031    5.2227 H   0  0  0  0  0  0  0  0  0  0  0  0
   -0.7905   -6.5087    6.5151 H   0  0  0  0  0  0  0  0  0  0  0  0
   -0.3229   -6.5136    4.8100 H   0  0  0  0  0  0  0  0  0  0  0  0
   -0.9709   -5.2660    5.6044 H   0  0  0  0  0  0  0  0  0  0  0  0
  1  2  1  0
  1 33  1  0
  1 34  1  0
  1 35  1  0
  2  7  1  0
  2  3  1  0
  2 36  1  1
  3  4  1  0
  3 37  1  0
  3 38  1  0
  4  5  1  0
  4 39  1  0
  4 40  1  0
  5 31  1  0
  5  6  1  1
  5  8  1  0
  6  7  1  0
  7 41  1  0
  7 42  1  0
  8  9  1  0
  9 10  1  0
  9 11  1  0
  9 43  1  6
 10 44  1  0
 10 45  1  0
 10 46  1  0
 11 12  1  0
 11 31  1  0
 11 47  1  6
 12 30  1  0
 12 13  1  1
 12 14  1  0
 13 48  1  0
 13 49  1  0
 13 50  1  0
 14 15  1  0
 14 51  1  0
 14 52  1  0
 15 30  1  0
 15 16  1  0
 15 53  1  1
 16 17  1  0
 16 54  1  0
 16 55  1  0
 17 18  1  0
 17 56  1  0
 17 57  1  0
 18 28  1  0
 18 19  1  0
 18 58  1  1
 19 20  1  0
 19 30  1  0
 19 59  1  1
 20 21  1  0
 20 60  1  0
 20 61  1  0
 21 22  1  0
 21 62  1  0
 21 63  1  0
 22 28  1  0
 22 23  2  0
 23 24  1  0
 23 64  1  0
 24 25  2  0
 24 26  1  0
 26 27  2  0
 26 65  1  0
 27 28  1  0
 27 66  1  0
 28 29  1  1
 29 67  1  0
 29 68  1  0
 29 69  1  0
 30 70  1  1
 31 32  1  0
 31 71  1  6
 32 72  1  0
 32 73  1  0
 32 74  1  0
M  END
>  <i_m_ct_stereo_status>  (203) 
1

>  <s_m_source_file>  (203) 
/var/tmp/pbs.5076255.sched01/tmp7dp07en1/447ppmqug5.sdf

>  <i_m_source_file_index>  (203) 
44

>  <i_lp_mmshare_version>  (203) 
48012

>  <i_f3d_flags>  (203) 
0

>  <s_epik_input>  (203) 
TzFbQ0gyXVtDQEhdKFtDSDNdKVtDSDJdW0NIMl1bQ0BAXTEyT1tDQEBIXShbQ0gzXSlbQ0BIXShbQ0BIXTJbQ0gzXSlbQ0BAXTMoW0NIM10pW0NIMl1bQ0BASF0oW0NIMl1bQ0gyXTQpW0NASF0zW0NASF0oW0NASF00W0NAQF01NltDSDNdKVtDSDJdW0NIMl1DNT1bQ0hdQyg9TylbQ0hdPVtDSF02

>  <s_epik_cmdline>  (203) 
J2VwaWtfcHl0aG9uJywgJy1waHQnLCAnMi4wJywgJy1waCcsICc3LjAnLCAnLXRuJywgJzgnLCAnLW1hJywgJzIwMCcsICctaW1hZScsICc8aW5maWxlLm1hZT4nLCAnLW9tYWUnLCAnPG91dGZpbGUubWFlPic=

>  <r_lp_tautomer_probability>  (203) 
1

>  <r_epik_Ionization_Penalty>  (203) 
2.82232e-12

>  <r_epik_Ionization_Penalty_Charging>  (203) 
0

>  <r_epik_Ionization_Penalty_Neutral>  (203) 
2.82232e-12

>  <r_epik_State_Penalty>  (203) 
-0

>  <r_epik_Charging_Adjusted_Penalty>  (203) 
0

>  <i_epik_Tot_Q>  (203) 
0

>  <i_epik_Tot_abs_Q>  (203) 
0

>  <s_lp_Force_Field>  (203) 
OPLS3e

>  <r_lp_Energy>  (203) 
55.6656

>  <b_lp_Chiralities_Consistent>  (203) 
1

>  <s_lp_Variant>  (203) 
62:0-1

>  <s_i_glide_gridfile>  (203) 
pfpi4k_grid

>  <i_i_glide_lignum>  (203) 
44

>  <i_i_glide_rotatable_bonds>  (203) 
1

>  <r_i_docking_score>  (203) 
-0.638916

>  <r_i_glide_ligand_efficiency>  (203) 
-0.0199661

>  <r_i_glide_ligand_efficiency_sa>  (203) 
-0.0633885

>  <r_i_glide_ligand_efficiency_ln>  (203) 
-0.143071

>  <r_i_glide_gscore>  (203) 
-0.638916

>  <r_i_glide_lipo>  (203) 
-0.0488052

>  <r_i_glide_hbond>  (203) 
-0.32

>  <r_i_glide_metal>  (203) 
-0

>  <r_i_glide_rewards>  (203) 
-0.41835

>  <r_i_glide_evdw>  (203) 
-17.7883

>  <r_i_glide_ecoul>  (203) 
-3.07611

>  <r_i_glide_erotb>  (203) 
0.103694

>  <r_i_glide_esite>  (203) 
-0.0638492

>  <r_i_glide_emodel>  (203) 
-14.3448

>  <r_i_glide_energy>  (203) 
-20.8644

>  <r_i_glide_einternal>  (203) 
0.0889398

>  <r_i_glide_intrahb_reward>  (203) 
-0

>  <i_i_glide_confnum>  (203) 
4

>  <i_i_glide_posenum>  (203) 
25

>  <r_i_glide_eff_state_penalty>  (203) 
0

>  <ligand_id>  (203) 
62

>  <original_smiles>  (203) 
CC1CCC2(OC1)OC(C)C(C1(C)CC3CCC4C(CCC5=CC(=O)C=CC54C)C31)C2C

>  <smiles>  (203) 
[H]C1=C([H])C2(C([H])([H])[H])C(=C([H])C1=O)C([H])([H])C([H])([H])C1([H])C2([H])C([H])([H])C([H])([H])C2([H])C([H])([H])C(C([H])([H])[H])(C3([H])C([H])(C([H])([H])[H])OC4(OC([H])([H])C([H])(C([H])([H])[H])C([H])([H])C4([H])[H])C3([H])C([H])([H])[H])C21[H]

$$$$
63:0:0
     RDKit          3D

 32 34  0  0  1  0  0  0  0  0999 V2000
    7.4808   -5.4188    0.7890 C   0  0  0  0  0  0  0  0  0  0  0  0
    6.0452   -5.8774    0.9010 C   0  0  0  0  0  0  0  0  0  0  0  0
    5.0646   -4.9970    0.6042 N   0  0  0  0  0  0  0  0  0  0  0  0
    3.7908   -5.3947    0.6791 C   0  0  0  0  0  0  0  0  0  0  0  0
    3.3083   -6.5885    1.0325 N   0  0  0  0  0  0  0  0  0  0  0  0
    4.3003   -7.4762    1.3308 C   0  0  0  0  0  0  0  0  0  0  0  0
    5.6940   -7.1886    1.2822 C   0  0  0  0  0  0  0  0  0  0  0  0
    6.4514   -8.2940    1.6056 N   0  0  0  0  0  0  0  0  0  0  0  0
    5.4985   -9.1982    1.8258 C   0  0  0  0  0  0  0  0  0  0  0  0
    4.2102   -8.7982    1.7312 N   0  0  0  0  0  0  0  0  0  0  0  0
    2.9848   -9.6386    1.9212 C   0  0  2  0  0  0  0  0  0  0  0  0
    1.8669   -8.8210    2.1135 O   0  0  0  0  0  0  0  0  0  0  0  0
    1.1396   -9.2231    3.2691 C   0  0  1  0  0  0  0  0  0  0  0  0
   -0.3746   -9.1349    3.0029 C   0  0  0  0  0  0  0  0  0  0  0  0
    1.6903  -10.6093    3.6460 C   0  0  1  0  0  0  0  0  0  0  0  0
    0.9942  -11.6401    2.9690 O   0  0  0  0  0  0  0  0  0  0  0  0
    3.1349  -10.5010    3.1698 C   0  0  1  0  0  0  0  0  0  0  0  0
    3.6983  -11.7696    2.8782 O   0  0  0  0  0  0  0  0  0  0  0  0
    7.9857   -5.5311    1.7495 H   0  0  0  0  0  0  0  0  0  0  0  0
    7.5263   -4.3755    0.4676 H   0  0  0  0  0  0  0  0  0  0  0  0
    8.0107   -6.0372    0.0676 H   0  0  0  0  0  0  0  0  0  0  0  0
    3.0457   -4.6514    0.4439 H   0  0  0  0  0  0  0  0  0  0  0  0
    5.7482  -10.2164    2.0875 H   0  0  0  0  0  0  0  0  0  0  0  0
    2.8648  -10.1900    0.9960 H   0  0  0  0  0  0  0  0  0  0  0  0
    1.4186   -8.5230    4.0609 H   0  0  0  0  0  0  0  0  0  0  0  0
   -0.9335   -9.4628    3.8787 H   0  0  0  0  0  0  0  0  0  0  0  0
   -0.6596   -9.7628    2.1598 H   0  0  0  0  0  0  0  0  0  0  0  0
   -0.6932   -8.1174    2.7628 H   0  0  0  0  0  0  0  0  0  0  0  0
    1.6131  -10.7997    4.7215 H   0  0  0  0  0  0  0  0  0  0  0  0
    1.4773  -12.4494    3.0863 H   0  0  0  0  0  0  0  0  0  0  0  0
    3.7000   -9.9408    3.9266 H   0  0  0  0  0  0  0  0  0  0  0  0
    3.8000  -11.8790    1.9288 H   0  0  0  0  0  0  0  0  0  0  0  0
  1  2  1  0
  1 19  1  0
  1 20  1  0
  1 21  1  0
  2  7  2  0
  2  3  1  0
  3  4  2  0
  4  5  1  0
  4 22  1  0
  5  6  2  0
  6 10  1  0
  6  7  1  0
  7  8  1  0
  8  9  2  0
  9 10  1  0
  9 23  1  0
 10 11  1  0
 11 17  1  0
 11 12  1  0
 11 24  1  6
 12 13  1  0
 13 14  1  0
 13 15  1  0
 13 25  1  1
 14 26  1  0
 14 27  1  0
 14 28  1  0
 15 16  1  0
 15 17  1  0
 15 29  1  1
 16 30  1  0
 17 18  1  0
 17 31  1  1
 18 32  1  0
M  END
>  <i_m_ct_stereo_status>  (204) 
1

>  <s_m_source_file>  (204) 
/var/tmp/pbs.5076255.sched01/tmpyqr7shjn/887d44c5qo.sdf

>  <i_m_source_file_index>  (204) 
1

>  <i_lp_mmshare_version>  (204) 
48012

>  <i_f3d_flags>  (204) 
0

>  <s_epik_input>  (204) 
bjFbY0hdbmMoW0NIM10pYyhjMTIpbltjSF1uMltDQEBIXTNPW0NAQEhdKFtDSDNdKVtDQEBIXShbT0hdKVtDQEhdM1tPSF0=

>  <s_epik_cmdline>  (204) 
J2VwaWtfcHl0aG9uJywgJy1waHQnLCAnMi4wJywgJy1waCcsICc3LjAnLCAnLXRuJywgJzgnLCAnLW1hJywgJzIwMCcsICctaW1hZScsICc8aW5maWxlLm1hZT4nLCAnLW9tYWUnLCAnPG91dGZpbGUubWFlPic=

>  <r_lp_tautomer_probability>  (204) 
1

>  <r_epik_Ionization_Penalty>  (204) 
9.78468e-05

>  <r_epik_Ionization_Penalty_Charging>  (204) 
0

>  <r_epik_Ionization_Penalty_Neutral>  (204) 
9.78468e-05

>  <r_epik_State_Penalty>  (204) 
-0

>  <r_epik_Charging_Adjusted_Penalty>  (204) 
0

>  <i_epik_Tot_Q>  (204) 
0

>  <i_epik_Tot_abs_Q>  (204) 
0

>  <s_epik_Chemistry_Notes>  (204) 
This compound contains an acetal/aminal-like group ( X-CH(R)-Y where X, Y are N, S, or O) that may be acid/base labile, releasing an aldehyde.

>  <s_lp_Force_Field>  (204) 
OPLS3e

>  <r_lp_Energy>  (204) 
14.245

>  <b_lp_Chiralities_Consistent>  (204) 
1

>  <s_lp_Variant>  (204) 
63:0-1

>  <s_i_glide_gridfile>  (204) 
pfpi4k_grid

>  <i_i_glide_lignum>  (204) 
1

>  <i_i_glide_rotatable_bonds>  (204) 
3

>  <r_i_docking_score>  (204) 
-3.91935

>  <r_i_glide_ligand_efficiency>  (204) 
-0.217742

>  <r_i_glide_ligand_efficiency_sa>  (204) 
-0.570645

>  <r_i_glide_ligand_efficiency_ln>  (204) 
-1.00745

>  <r_i_glide_gscore>  (204) 
-3.91935

>  <r_i_glide_lipo>  (204) 
-0.342406

>  <r_i_glide_hbond>  (204) 
0

>  <r_i_glide_metal>  (204) 
-0

>  <r_i_glide_rewards>  (204) 
-1.81872

>  <r_i_glide_evdw>  (204) 
-18.7309

>  <r_i_glide_ecoul>  (204) 
-6.73795

>  <r_i_glide_erotb>  (204) 
0.279513

>  <r_i_glide_esite>  (204) 
-0.0905037

>  <r_i_glide_emodel>  (204) 
-31.1811

>  <r_i_glide_energy>  (204) 
-25.4689

>  <r_i_glide_einternal>  (204) 
2.81332

>  <r_i_glide_intrahb_reward>  (204) 
-0

>  <i_i_glide_confnum>  (204) 
5

>  <i_i_glide_posenum>  (204) 
36

>  <r_i_glide_eff_state_penalty>  (204) 
0

>  <ligand_id>  (204) 
63

>  <original_smiles>  (204) 
Cc1ncnc2c1ncn2C1OC(C)C(O)C1O

>  <smiles>  (204) 
[H]OC1([H])C([H])(n2c([H])nc3c(C([H])([H])[H])nc([H])nc32)OC([H])(C([H])([H])[H])C1([H])O[H]

$$$$
63:0:1
     RDKit          3D

 32 34  0  0  1  0  0  0  0  0999 V2000
   -1.6273   -4.2517    7.1217 C   0  0  0  0  0  0  0  0  0  0  0  0
   -0.5596   -3.4889    6.3555 C   0  0  0  0  0  0  0  0  0  0  0  0
    0.6742   -4.0273    6.2289 N   0  0  0  0  0  0  0  0  0  0  0  0
    1.6051   -3.3533    5.5461 C   0  0  0  0  0  0  0  0  0  0  0  0
    1.5236   -2.1664    4.9361 N   0  0  0  0  0  0  0  0  0  0  0  0
    0.2696   -1.6266    5.0526 C   0  0  0  0  0  0  0  0  0  0  0  0
   -0.8184   -2.2416    5.7477 C   0  0  0  0  0  0  0  0  0  0  0  0
   -1.9663   -1.4761    5.6930 N   0  0  0  0  0  0  0  0  0  0  0  0
   -1.5428   -0.4445    4.9534 C   0  0  0  0  0  0  0  0  0  0  0  0
   -0.2442   -0.4328    4.5512 N   0  0  0  0  0  0  0  0  0  0  0  0
    0.5029    0.6009    3.7313 C   0  0  2  0  0  0  0  0  0  0  0  0
    1.0236    1.5707    4.6062 O   0  0  0  0  0  0  0  0  0  0  0  0
    0.3919    2.8502    4.4208 C   0  0  1  0  0  0  0  0  0  0  0  0
    1.3228    3.8568    3.7053 C   0  0  0  0  0  0  0  0  0  0  0  0
   -0.8733    2.5373    3.6201 C   0  0  1  0  0  0  0  0  0  0  0  0
   -1.4349    3.6167    2.8814 O   0  0  0  0  0  0  0  0  0  0  0  0
   -0.4513    1.3393    2.7706 C   0  0  1  0  0  0  0  0  0  0  0  0
    0.2360    1.7165    1.5844 O   0  0  0  0  0  0  0  0  0  0  0  0
   -1.9824   -3.6720    7.9710 H   0  0  0  0  0  0  0  0  0  0  0  0
   -1.2391   -5.1919    7.5027 H   0  0  0  0  0  0  0  0  0  0  0  0
   -2.4862   -4.4652    6.4858 H   0  0  0  0  0  0  0  0  0  0  0  0
    2.5524   -3.8473    5.4752 H   0  0  0  0  0  0  0  0  0  0  0  0
   -2.2520    0.3512    4.7218 H   0  0  0  0  0  0  0  0  0  0  0  0
    1.2937    0.0232    3.2458 H   0  0  0  0  0  0  0  0  0  0  0  0
    0.1243    3.2605    5.4004 H   0  0  0  0  0  0  0  0  0  0  0  0
    0.8073    4.8083    3.5338 H   0  0  0  0  0  0  0  0  0  0  0  0
    1.6427    3.5057    2.7218 H   0  0  0  0  0  0  0  0  0  0  0  0
    2.2286    4.0844    4.2806 H   0  0  0  0  0  0  0  0  0  0  0  0
   -1.6389    2.2781    4.3534 H   0  0  0  0  0  0  0  0  0  0  0  0
   -0.8257    3.9240    2.2109 H   0  0  0  0  0  0  0  0  0  0  0  0
   -1.2769    0.6866    2.5005 H   0  0  0  0  0  0  0  0  0  0  0  0
    0.1040    2.6297    1.3410 H   0  0  0  0  0  0  0  0  0  0  0  0
  1  2  1  0
  1 19  1  0
  1 20  1  0
  1 21  1  0
  2  7  2  0
  2  3  1  0
  3  4  2  0
  4  5  1  0
  4 22  1  0
  5  6  2  0
  6 10  1  0
  6  7  1  0
  7  8  1  0
  8  9  2  0
  9 10  1  0
  9 23  1  0
 10 11  1  0
 11 17  1  0
 11 12  1  0
 11 24  1  6
 12 13  1  0
 13 14  1  0
 13 15  1  0
 13 25  1  1
 14 26  1  0
 14 27  1  0
 14 28  1  0
 15 16  1  0
 15 17  1  0
 15 29  1  1
 16 30  1  0
 17 18  1  0
 17 31  1  6
 18 32  1  0
M  END
>  <i_m_ct_stereo_status>  (205) 
1

>  <s_m_source_file>  (205) 
/var/tmp/pbs.5076255.sched01/tmpyqr7shjn/887d44c5qo.sdf

>  <i_m_source_file_index>  (205) 
1

>  <i_lp_mmshare_version>  (205) 
48012

>  <i_f3d_flags>  (205) 
0

>  <s_epik_input>  (205) 
bjFbY0hdbmMoW0NIM10pYyhjMTIpbltjSF1uMltDQEBIXTNPW0NAQEhdKFtDSDNdKVtDQEBIXShbT0hdKVtDQEhdM1tPSF0=

>  <s_epik_cmdline>  (205) 
J2VwaWtfcHl0aG9uJywgJy1waHQnLCAnMi4wJywgJy1waCcsICc3LjAnLCAnLXRuJywgJzgnLCAnLW1hJywgJzIwMCcsICctaW1hZScsICc8aW5maWxlLm1hZT4nLCAnLW9tYWUnLCAnPG91dGZpbGUubWFlPic=

>  <r_lp_tautomer_probability>  (205) 
1

>  <r_epik_Ionization_Penalty>  (205) 
9.78468e-05

>  <r_epik_Ionization_Penalty_Charging>  (205) 
0

>  <r_epik_Ionization_Penalty_Neutral>  (205) 
9.78468e-05

>  <r_epik_State_Penalty>  (205) 
-0

>  <r_epik_Charging_Adjusted_Penalty>  (205) 
0

>  <i_epik_Tot_Q>  (205) 
0

>  <i_epik_Tot_abs_Q>  (205) 
0

>  <s_epik_Chemistry_Notes>  (205) 
This compound contains an acetal/aminal-like group ( X-CH(R)-Y where X, Y are N, S, or O) that may be acid/base labile, releasing an aldehyde.

>  <s_lp_Force_Field>  (205) 
OPLS3e

>  <r_lp_Energy>  (205) 
14.245

>  <b_lp_Chiralities_Consistent>  (205) 
1

>  <s_lp_Variant>  (205) 
63:0-1

>  <s_i_glide_gridfile>  (205) 
pfpi4k_grid

>  <i_i_glide_lignum>  (205) 
1

>  <i_i_glide_rotatable_bonds>  (205) 
3

>  <r_i_docking_score>  (205) 
-3.70426

>  <r_i_glide_ligand_efficiency>  (205) 
-0.205792

>  <r_i_glide_ligand_efficiency_sa>  (205) 
-0.539328

>  <r_i_glide_ligand_efficiency_ln>  (205) 
-0.95216

>  <r_i_glide_gscore>  (205) 
-3.70426

>  <r_i_glide_lipo>  (205) 
-0.0422912

>  <r_i_glide_hbond>  (205) 
-0.00958735

>  <r_i_glide_metal>  (205) 
-0

>  <r_i_glide_rewards>  (205) 
-1.70281

>  <r_i_glide_evdw>  (205) 
-15.4242

>  <r_i_glide_ecoul>  (205) 
-9.13106

>  <r_i_glide_erotb>  (205) 
0.279513

>  <r_i_glide_esite>  (205) 
-0.0882106

>  <r_i_glide_emodel>  (205) 
-29.9158

>  <r_i_glide_energy>  (205) 
-24.5552

>  <r_i_glide_einternal>  (205) 
1.94643

>  <r_i_glide_intrahb_reward>  (205) 
-0

>  <i_i_glide_confnum>  (205) 
3

>  <i_i_glide_posenum>  (205) 
37

>  <r_i_glide_eff_state_penalty>  (205) 
0

>  <ligand_id>  (205) 
63

>  <original_smiles>  (205) 
Cc1ncnc2c1ncn2C1OC(C)C(O)C1O

>  <smiles>  (205) 
[H]OC1([H])C([H])(n2c([H])nc3c(C([H])([H])[H])nc([H])nc32)OC([H])(C([H])([H])[H])C1([H])O[H]

$$$$
63:0:2
     RDKit          3D

 32 34  0  0  1  0  0  0  0  0999 V2000
   -0.7098   -4.1727   10.2362 C   0  0  0  0  0  0  0  0  0  0  0  0
   -0.4335   -4.4730    8.7763 C   0  0  0  0  0  0  0  0  0  0  0  0
   -0.5881   -3.4652    7.8830 N   0  0  0  0  0  0  0  0  0  0  0  0
   -0.3446   -3.7126    6.5922 C   0  0  0  0  0  0  0  0  0  0  0  0
    0.0213   -4.8537    6.0068 N   0  0  0  0  0  0  0  0  0  0  0  0
    0.1856   -5.8659    6.9077 C   0  0  0  0  0  0  0  0  0  0  0  0
   -0.0278   -5.7457    8.3131 C   0  0  0  0  0  0  0  0  0  0  0  0
    0.2143   -6.9417    8.9658 N   0  0  0  0  0  0  0  0  0  0  0  0
    0.5812   -7.7272    7.9454 C   0  0  0  0  0  0  0  0  0  0  0  0
    0.5732   -7.1878    6.7004 N   0  0  0  0  0  0  0  0  0  0  0  0
    0.9671   -7.8857    5.4231 C   0  0  2  0  0  0  0  0  0  0  0  0
    0.9359   -6.9787    4.3504 O   0  0  0  0  0  0  0  0  0  0  0  0
   -0.1645   -7.2317    3.4697 C   0  0  1  0  0  0  0  0  0  0  0  0
    0.3788   -7.7697    2.1302 C   0  0  0  0  0  0  0  0  0  0  0  0
   -1.0389   -8.2333    4.2286 C   0  0  1  0  0  0  0  0  0  0  0  0
   -1.8449   -9.0554    3.4124 O   0  0  0  0  0  0  0  0  0  0  0  0
   -0.0399   -8.9958    5.0918 C   0  0  1  0  0  0  0  0  0  0  0  0
    0.6028  -10.0758    4.4405 O   0  0  0  0  0  0  0  0  0  0  0  0
   -1.5046   -4.8173   10.6133 H   0  0  0  0  0  0  0  0  0  0  0  0
   -1.0123   -3.1350   10.3833 H   0  0  0  0  0  0  0  0  0  0  0  0
    0.1879   -4.3503   10.8283 H   0  0  0  0  0  0  0  0  0  0  0  0
   -0.4689   -2.8785    5.9215 H   0  0  0  0  0  0  0  0  0  0  0  0
    0.8594   -8.7617    8.1076 H   0  0  0  0  0  0  0  0  0  0  0  0
    1.9776   -8.2365    5.6319 H   0  0  0  0  0  0  0  0  0  0  0  0
   -0.7105   -6.3006    3.2945 H   0  0  0  0  0  0  0  0  0  0  0  0
   -0.4367   -8.0229    1.4500 H   0  0  0  0  0  0  0  0  0  0  0  0
    0.9649   -8.6791    2.2678 H   0  0  0  0  0  0  0  0  0  0  0  0
    1.0206   -7.0447    1.6274 H   0  0  0  0  0  0  0  0  0  0  0  0
   -1.7140   -7.6716    4.8776 H   0  0  0  0  0  0  0  0  0  0  0  0
   -2.1088   -9.8149    3.9379 H   0  0  0  0  0  0  0  0  0  0  0  0
   -0.4960   -9.4018    5.9912 H   0  0  0  0  0  0  0  0  0  0  0  0
   -0.0486  -10.7301    4.2173 H   0  0  0  0  0  0  0  0  0  0  0  0
  1  2  1  0
  1 19  1  0
  1 20  1  0
  1 21  1  0
  2  7  2  0
  2  3  1  0
  3  4  2  0
  4  5  1  0
  4 22  1  0
  5  6  2  0
  6 10  1  0
  6  7  1  0
  7  8  1  0
  8  9  2  0
  9 10  1  0
  9 23  1  0
 10 11  1  0
 11 17  1  0
 11 12  1  0
 11 24  1  1
 12 13  1  0
 13 14  1  0
 13 15  1  0
 13 25  1  6
 14 26  1  0
 14 27  1  0
 14 28  1  0
 15 16  1  0
 15 17  1  0
 15 29  1  1
 16 30  1  0
 17 18  1  0
 17 31  1  1
 18 32  1  0
M  END
>  <i_m_ct_stereo_status>  (206) 
1

>  <s_m_source_file>  (206) 
/var/tmp/pbs.5076255.sched01/tmpyqr7shjn/887d44c5qo.sdf

>  <i_m_source_file_index>  (206) 
1

>  <i_lp_mmshare_version>  (206) 
48012

>  <i_f3d_flags>  (206) 
0

>  <s_epik_input>  (206) 
bjFbY0hdbmMoW0NIM10pYyhjMTIpbltjSF1uMltDQEBIXTNPW0NAQEhdKFtDSDNdKVtDQEBIXShbT0hdKVtDQEhdM1tPSF0=

>  <s_epik_cmdline>  (206) 
J2VwaWtfcHl0aG9uJywgJy1waHQnLCAnMi4wJywgJy1waCcsICc3LjAnLCAnLXRuJywgJzgnLCAnLW1hJywgJzIwMCcsICctaW1hZScsICc8aW5maWxlLm1hZT4nLCAnLW9tYWUnLCAnPG91dGZpbGUubWFlPic=

>  <r_lp_tautomer_probability>  (206) 
1

>  <r_epik_Ionization_Penalty>  (206) 
9.78468e-05

>  <r_epik_Ionization_Penalty_Charging>  (206) 
0

>  <r_epik_Ionization_Penalty_Neutral>  (206) 
9.78468e-05

>  <r_epik_State_Penalty>  (206) 
-0

>  <r_epik_Charging_Adjusted_Penalty>  (206) 
0

>  <i_epik_Tot_Q>  (206) 
0

>  <i_epik_Tot_abs_Q>  (206) 
0

>  <s_epik_Chemistry_Notes>  (206) 
This compound contains an acetal/aminal-like group ( X-CH(R)-Y where X, Y are N, S, or O) that may be acid/base labile, releasing an aldehyde.

>  <s_lp_Force_Field>  (206) 
OPLS3e

>  <r_lp_Energy>  (206) 
14.245

>  <b_lp_Chiralities_Consistent>  (206) 
1

>  <s_lp_Variant>  (206) 
63:0-1

>  <s_i_glide_gridfile>  (206) 
pfpi4k_grid

>  <i_i_glide_lignum>  (206) 
1

>  <i_i_glide_rotatable_bonds>  (206) 
3

>  <r_i_docking_score>  (206) 
-3.6462

>  <r_i_glide_ligand_efficiency>  (206) 
-0.202567

>  <r_i_glide_ligand_efficiency_sa>  (206) 
-0.530875

>  <r_i_glide_ligand_efficiency_ln>  (206) 
-0.937238

>  <r_i_glide_gscore>  (206) 
-3.6462

>  <r_i_glide_lipo>  (206) 
0

>  <r_i_glide_hbond>  (206) 
-0.234622

>  <r_i_glide_metal>  (206) 
-0

>  <r_i_glide_rewards>  (206) 
-1.70281

>  <r_i_glide_evdw>  (206) 
-16.2779

>  <r_i_glide_ecoul>  (206) 
-7.32874

>  <r_i_glide_erotb>  (206) 
0.279513

>  <r_i_glide_esite>  (206) 
-0.0750724

>  <r_i_glide_emodel>  (206) 
-29.6047

>  <r_i_glide_energy>  (206) 
-23.6067

>  <r_i_glide_einternal>  (206) 
1.63926

>  <r_i_glide_intrahb_reward>  (206) 
-0

>  <i_i_glide_confnum>  (206) 
4

>  <i_i_glide_posenum>  (206) 
1

>  <r_i_glide_eff_state_penalty>  (206) 
0

>  <ligand_id>  (206) 
63

>  <original_smiles>  (206) 
Cc1ncnc2c1ncn2C1OC(C)C(O)C1O

>  <smiles>  (206) 
[H]OC1([H])C([H])(n2c([H])nc3c(C([H])([H])[H])nc([H])nc32)OC([H])(C([H])([H])[H])C1([H])O[H]

$$$$
64:0:0
     RDKit          3D

 38 42  0  0  1  0  0  0  0  0999 V2000
    2.0998   -3.4235   -1.7813 C   0  0  0  0  0  0  0  0  0  0  0  0
    3.4602   -2.7329   -1.9458 C   0  0  2  0  0  0  0  0  0  0  0  0
    4.6615   -3.6677   -1.6588 C   0  0  0  0  0  0  0  0  0  0  0  0
    5.0971   -3.7065   -0.2122 C   0  0  1  0  0  0  0  0  0  0  0  0
    5.9434   -2.5996    0.2007 O   0  0  0  0  0  0  0  0  0  0  0  0
    4.6406   -2.6693    0.7757 C   0  0  2  0  0  0  0  0  0  0  0  0
    4.6134   -2.8364    2.2908 C   0  0  1  0  0  0  0  0  0  0  0  0
    5.3522   -3.9655    2.7038 O   0  0  0  0  0  0  0  0  0  0  0  0
    5.1102   -1.5815    3.0362 C   0  0  0  0  0  0  0  0  0  0  0  0
    4.5411   -0.2904    2.4711 C   0  0  2  0  0  0  0  0  0  0  0  0
    3.0758    0.0245    2.8210 C   0  0  0  0  0  0  0  0  0  0  0  0
    2.4089    0.1477    3.8508 O   0  0  0  0  0  0  0  0  0  0  0  0
    2.7515    0.3059    1.5267 O   0  0  0  0  0  0  0  0  0  0  0  0
    4.0154   -0.2491    1.0584 C   0  0  2  0  0  0  0  0  0  0  0  0
    3.7046   -1.5683    0.3479 C   0  0  1  0  0  0  0  0  0  0  0  0
    3.5779   -1.4309   -1.1855 C   0  0  1  0  0  0  0  0  0  0  0  0
    4.6752   -0.7171   -1.9869 C   0  0  0  0  0  0  0  0  0  0  0  0
    4.6198   -1.2542   -3.3100 O   0  0  0  0  0  0  0  0  0  0  0  0
    3.5829   -2.1750   -3.3662 C   0  0  1  0  0  0  0  0  0  0  0  0
    3.8270   -3.1836   -4.3155 O   0  0  0  0  0  0  0  0  0  0  0  0
    1.9597   -4.2471   -2.4697 H   0  0  0  0  0  0  0  0  0  0  0  0
    1.3071   -2.7327   -2.0369 H   0  0  0  0  0  0  0  0  0  0  0  0
    1.9350   -3.7711   -0.7667 H   0  0  0  0  0  0  0  0  0  0  0  0
    4.3581   -4.6659   -1.9120 H   0  0  0  0  0  0  0  0  0  0  0  0
    5.5484   -3.4604   -2.2675 H   0  0  0  0  0  0  0  0  0  0  0  0
    5.4275   -4.6722    0.1584 H   0  0  0  0  0  0  0  0  0  0  0  0
    3.5774   -3.0266    2.5810 H   0  0  0  0  0  0  0  0  0  0  0  0
    6.2392   -3.8778    2.3824 H   0  0  0  0  0  0  0  0  0  0  0  0
    4.9134   -1.6726    4.1125 H   0  0  0  0  0  0  0  0  0  0  0  0
    6.1930   -1.5289    2.9255 H   0  0  0  0  0  0  0  0  0  0  0  0
    5.1726    0.5542    2.6979 H   0  0  0  0  0  0  0  0  0  0  0  0
    4.5984    0.4735    0.4905 H   0  0  0  0  0  0  0  0  0  0  0  0
    2.7156   -1.8961    0.6757 H   0  0  0  0  0  0  0  0  0  0  0  0
    2.6843   -0.8476   -1.3934 H   0  0  0  0  0  0  0  0  0  0  0  0
    4.4725    0.3464   -2.0564 H   0  0  0  0  0  0  0  0  0  0  0  0
    5.6775   -0.8586   -1.5759 H   0  0  0  0  0  0  0  0  0  0  0  0
    2.6804   -1.6440   -3.6781 H   0  0  0  0  0  0  0  0  0  0  0  0
    4.3371   -3.8555   -3.8760 H   0  0  0  0  0  0  0  0  0  0  0  0
  2  1  1  6
  1 21  1  0
  1 22  1  0
  1 23  1  0
  2 16  1  0
  2 19  1  0
  2  3  1  0
  3  4  1  0
  3 24  1  0
  3 25  1  0
  4  6  1  0
  4  5  1  0
  4 26  1  1
  6  5  1  1
  6 15  1  0
  6  7  1  0
  7  8  1  0
  7  9  1  0
  7 27  1  1
  8 28  1  0
  9 10  1  0
  9 29  1  0
  9 30  1  0
 10 14  1  0
 10 11  1  0
 10 31  1  6
 11 12  2  0
 11 13  1  0
 13 14  1  0
 14 15  1  0
 14 32  1  6
 15 16  1  0
 15 33  1  1
 16 17  1  0
 16 34  1  1
 17 18  1  0
 17 35  1  0
 17 36  1  0
 18 19  1  0
 19 20  1  0
 19 37  1  6
 20 38  1  0
M  END
>  <i_m_ct_stereo_status>  (207) 
1

>  <s_m_source_file>  (207) 
/var/tmp/pbs.5076255.sched01/tmpyqr7shjn/887d44c5qo.sdf

>  <i_m_source_file_index>  (207) 
2

>  <i_lp_mmshare_version>  (207) 
48012

>  <i_f3d_flags>  (207) 
0

>  <s_epik_input>  (207) 
TzFbQ0BASF0oW0NAXTEyMylbQ0gyXVtDQEBdNChbQ0gzXSlbQ0BIXShbQ0gyXU9bQ0BIXTRbT0hdKVtDQEBIXTNbQ0BASF01W0NAQEhdKEMoPU8pTzUpW0NIMl1bQ0BASF0yW09IXQ==

>  <s_epik_cmdline>  (207) 
J2VwaWtfcHl0aG9uJywgJy1waHQnLCAnMi4wJywgJy1waCcsICc3LjAnLCAnLXRuJywgJzgnLCAnLW1hJywgJzIwMCcsICctaW1hZScsICc8aW5maWxlLm1hZT4nLCAnLW9tYWUnLCAnPG91dGZpbGUubWFlPic=

>  <r_lp_tautomer_probability>  (207) 
1

>  <r_epik_Ionization_Penalty>  (207) 
1.25407e-07

>  <r_epik_Ionization_Penalty_Charging>  (207) 
0

>  <r_epik_Ionization_Penalty_Neutral>  (207) 
1.25407e-07

>  <r_epik_State_Penalty>  (207) 
-0

>  <r_epik_Charging_Adjusted_Penalty>  (207) 
0

>  <i_epik_Tot_Q>  (207) 
0

>  <i_epik_Tot_abs_Q>  (207) 
0

>  <s_epik_Chemistry_Notes>  (207) 
This compound has an ester and may undergo hydrolysis at high or low pH. This compound contains an acetal/aminal-like group ( X-CH(R)-Y where X, Y are N, S, or O) that may be acid/base labile, releasing an aldehyde.

>  <s_lp_Force_Field>  (207) 
OPLS3e

>  <r_lp_Energy>  (207) 
21.515

>  <b_lp_Chiralities_Consistent>  (207) 
1

>  <s_lp_Variant>  (207) 
64:0-1

>  <s_i_glide_gridfile>  (207) 
pfpi4k_grid

>  <i_i_glide_lignum>  (207) 
2

>  <i_i_glide_rotatable_bonds>  (207) 
2

>  <r_i_docking_score>  (207) 
-3.95752

>  <r_i_glide_ligand_efficiency>  (207) 
-0.197876

>  <r_i_glide_ligand_efficiency_sa>  (207) 
-0.537118

>  <r_i_glide_ligand_efficiency_ln>  (207) 
-0.990436

>  <r_i_glide_gscore>  (207) 
-3.95752

>  <r_i_glide_lipo>  (207) 
-0.515182

>  <r_i_glide_hbond>  (207) 
0

>  <r_i_glide_metal>  (207) 
-0

>  <r_i_glide_rewards>  (207) 
-1.72105

>  <r_i_glide_evdw>  (207) 
-19.1735

>  <r_i_glide_ecoul>  (207) 
-5.08405

>  <r_i_glide_erotb>  (207) 
0

>  <r_i_glide_esite>  (207) 
0

>  <r_i_glide_emodel>  (207) 
-30.237

>  <r_i_glide_energy>  (207) 
-24.2576

>  <r_i_glide_einternal>  (207) 
0.51493

>  <r_i_glide_intrahb_reward>  (207) 
-0

>  <i_i_glide_confnum>  (207) 
1

>  <i_i_glide_posenum>  (207) 
9

>  <r_i_glide_eff_state_penalty>  (207) 
0

>  <ligand_id>  (207) 
64

>  <original_smiles>  (207) 
CC12CC3OC34C(O)CC3C(=O)OC3C4C1COC2O

>  <smiles>  (207) 
[H]OC1([H])OC([H])([H])C2([H])C3([H])C4([H])OC(=O)C4([H])C([H])([H])C([H])(O[H])C34OC4([H])C([H])([H])C12C([H])([H])[H]

$$$$
64:0:1
     RDKit          3D

 38 42  0  0  1  0  0  0  0  0999 V2000
    2.0139   -3.0964   -2.6233 C   0  0  0  0  0  0  0  0  0  0  0  0
    3.3761   -2.4190   -2.4632 C   0  0  2  0  0  0  0  0  0  0  0  0
    4.5102   -3.3720   -2.8901 C   0  0  0  0  0  0  0  0  0  0  0  0
    5.0226   -4.2074   -1.7398 C   0  0  1  0  0  0  0  0  0  0  0  0
    5.9469   -3.5361   -0.8488 O   0  0  0  0  0  0  0  0  0  0  0  0
    4.6998   -3.9458   -0.3028 C   0  0  2  0  0  0  0  0  0  0  0  0
    4.7667   -4.9748    0.8330 C   0  0  1  0  0  0  0  0  0  0  0  0
    5.4701   -6.1483    0.4862 O   0  0  0  0  0  0  0  0  0  0  0  0
    5.3812   -4.3981    2.1222 C   0  0  0  0  0  0  0  0  0  0  0  0
    4.8354   -3.0123    2.4756 C   0  0  2  0  0  0  0  0  0  0  0  0
    3.4096   -2.9748    3.0532 C   0  0  0  0  0  0  0  0  0  0  0  0
    2.8089   -3.4955    3.9959 O   0  0  0  0  0  0  0  0  0  0  0  0
    2.9994   -2.0005    2.1913 O   0  0  0  0  0  0  0  0  0  0  0  0
    4.2068   -2.1592    1.3879 C   0  0  2  0  0  0  0  0  0  0  0  0
    3.7858   -2.8156    0.0681 C   0  0  1  0  0  0  0  0  0  0  0  0
    3.5891   -1.8145   -1.0797 C   0  0  1  0  0  0  0  0  0  0  0  0
    4.6716   -0.7637   -1.3657 C   0  0  0  0  0  0  0  0  0  0  0  0
    4.5152   -0.4033   -2.7434 O   0  0  0  0  0  0  0  0  0  0  0  0
    3.4453   -1.1180   -3.2854 C   0  0  1  0  0  0  0  0  0  0  0  0
    3.5670   -1.3303   -4.6760 O   0  0  0  0  0  0  0  0  0  0  0  0
    1.8304   -3.3869   -3.6563 H   0  0  0  0  0  0  0  0  0  0  0  0
    1.2274   -2.4267   -2.3229 H   0  0  0  0  0  0  0  0  0  0  0  0
    1.9064   -3.9751   -1.9923 H   0  0  0  0  0  0  0  0  0  0  0  0
    4.1414   -4.0541   -3.6604 H   0  0  0  0  0  0  0  0  0  0  0  0
    5.3620   -2.8444   -3.3338 H   0  0  0  0  0  0  0  0  0  0  0  0
    5.2927   -5.2133   -1.9981 H   0  0  0  0  0  0  0  0  0  0  0  0
    3.7450   -5.3043    1.0309 H   0  0  0  0  0  0  0  0  0  0  0  0
    5.1189   -6.4975   -0.3114 H   0  0  0  0  0  0  0  0  0  0  0  0
    5.2508   -5.1094    2.9467 H   0  0  0  0  0  0  0  0  0  0  0  0
    6.4588   -4.3131    1.9747 H   0  0  0  0  0  0  0  0  0  0  0  0
    5.5030   -2.4280    3.1065 H   0  0  0  0  0  0  0  0  0  0  0  0
    4.7739   -1.2327    1.2923 H   0  0  0  0  0  0  0  0  0  0  0  0
    2.8149   -3.2900    0.2150 H   0  0  0  0  0  0  0  0  0  0  0  0
    2.7084   -1.2456   -0.8190 H   0  0  0  0  0  0  0  0  0  0  0  0
    4.5474    0.1043   -0.7111 H   0  0  0  0  0  0  0  0  0  0  0  0
    5.6851   -1.1390   -1.2255 H   0  0  0  0  0  0  0  0  0  0  0  0
    2.5593   -0.5020   -3.1216 H   0  0  0  0  0  0  0  0  0  0  0  0
    2.6881   -1.4697   -5.0190 H   0  0  0  0  0  0  0  0  0  0  0  0
  2  1  1  1
  1 21  1  0
  1 22  1  0
  1 23  1  0
  2 16  1  0
  2 19  1  0
  2  3  1  0
  3  4  1  0
  3 24  1  0
  3 25  1  0
  4  6  1  0
  4  5  1  0
  4 26  1  6
  6  5  1  1
  6 15  1  0
  6  7  1  0
  7  8  1  0
  7  9  1  0
  7 27  1  1
  8 28  1  0
  9 10  1  0
  9 29  1  0
  9 30  1  0
 10 14  1  0
 10 11  1  0
 10 31  1  1
 11 12  2  0
 11 13  1  0
 13 14  1  0
 14 15  1  0
 14 32  1  6
 15 16  1  0
 15 33  1  1
 16 17  1  0
 16 34  1  1
 17 18  1  0
 17 35  1  0
 17 36  1  0
 18 19  1  0
 19 20  1  0
 19 37  1  6
 20 38  1  0
M  END
>  <i_m_ct_stereo_status>  (208) 
1

>  <s_m_source_file>  (208) 
/var/tmp/pbs.5076255.sched01/tmpyqr7shjn/887d44c5qo.sdf

>  <i_m_source_file_index>  (208) 
2

>  <i_lp_mmshare_version>  (208) 
48012

>  <i_f3d_flags>  (208) 
0

>  <s_epik_input>  (208) 
TzFbQ0BASF0oW0NAXTEyMylbQ0gyXVtDQEBdNChbQ0gzXSlbQ0BIXShbQ0gyXU9bQ0BIXTRbT0hdKVtDQEBIXTNbQ0BASF01W0NAQEhdKEMoPU8pTzUpW0NIMl1bQ0BASF0yW09IXQ==

>  <s_epik_cmdline>  (208) 
J2VwaWtfcHl0aG9uJywgJy1waHQnLCAnMi4wJywgJy1waCcsICc3LjAnLCAnLXRuJywgJzgnLCAnLW1hJywgJzIwMCcsICctaW1hZScsICc8aW5maWxlLm1hZT4nLCAnLW9tYWUnLCAnPG91dGZpbGUubWFlPic=

>  <r_lp_tautomer_probability>  (208) 
1

>  <r_epik_Ionization_Penalty>  (208) 
1.25407e-07

>  <r_epik_Ionization_Penalty_Charging>  (208) 
0

>  <r_epik_Ionization_Penalty_Neutral>  (208) 
1.25407e-07

>  <r_epik_State_Penalty>  (208) 
-0

>  <r_epik_Charging_Adjusted_Penalty>  (208) 
0

>  <i_epik_Tot_Q>  (208) 
0

>  <i_epik_Tot_abs_Q>  (208) 
0

>  <s_epik_Chemistry_Notes>  (208) 
This compound has an ester and may undergo hydrolysis at high or low pH. This compound contains an acetal/aminal-like group ( X-CH(R)-Y where X, Y are N, S, or O) that may be acid/base labile, releasing an aldehyde.

>  <s_lp_Force_Field>  (208) 
OPLS3e

>  <r_lp_Energy>  (208) 
21.515

>  <b_lp_Chiralities_Consistent>  (208) 
1

>  <s_lp_Variant>  (208) 
64:0-1

>  <s_i_glide_gridfile>  (208) 
pfpi4k_grid

>  <i_i_glide_lignum>  (208) 
2

>  <i_i_glide_rotatable_bonds>  (208) 
2

>  <r_i_docking_score>  (208) 
-3.92897

>  <r_i_glide_ligand_efficiency>  (208) 
-0.196448

>  <r_i_glide_ligand_efficiency_sa>  (208) 
-0.533243

>  <r_i_glide_ligand_efficiency_ln>  (208) 
-0.983291

>  <r_i_glide_gscore>  (208) 
-3.92897

>  <r_i_glide_lipo>  (208) 
-0.359874

>  <r_i_glide_hbond>  (208) 
0

>  <r_i_glide_metal>  (208) 
-0

>  <r_i_glide_rewards>  (208) 
-1.6283

>  <r_i_glide_evdw>  (208) 
-17.0232

>  <r_i_glide_ecoul>  (208) 
-7.26419

>  <r_i_glide_erotb>  (208) 
0

>  <r_i_glide_esite>  (208) 
0

>  <r_i_glide_emodel>  (208) 
-29.51

>  <r_i_glide_energy>  (208) 
-24.2874

>  <r_i_glide_einternal>  (208) 
2.37075

>  <r_i_glide_intrahb_reward>  (208) 
-0

>  <i_i_glide_confnum>  (208) 
2

>  <i_i_glide_posenum>  (208) 
23

>  <r_i_glide_eff_state_penalty>  (208) 
0

>  <ligand_id>  (208) 
64

>  <original_smiles>  (208) 
CC12CC3OC34C(O)CC3C(=O)OC3C4C1COC2O

>  <smiles>  (208) 
[H]OC1([H])OC([H])([H])C2([H])C3([H])C4([H])OC(=O)C4([H])C([H])([H])C([H])(O[H])C34OC4([H])C([H])([H])C12C([H])([H])[H]

$$$$
64:0:2
     RDKit          3D

 38 42  0  0  1  0  0  0  0  0999 V2000
    4.5223   -3.5826   -2.4738 C   0  0  0  0  0  0  0  0  0  0  0  0
    4.6933   -2.8923   -1.1135 C   0  0  2  0  0  0  0  0  0  0  0  0
    6.1564   -3.0162   -0.5797 C   0  0  0  0  0  0  0  0  0  0  0  0
    6.4036   -4.2272    0.3045 C   0  0  1  0  0  0  0  0  0  0  0  0
    5.9171   -4.1037    1.6625 O   0  0  0  0  0  0  0  0  0  0  0  0
    5.2630   -5.0592    0.8367 C   0  0  2  0  0  0  0  0  0  0  0  0
    5.3843   -6.5165    1.2885 C   0  0  1  0  0  0  0  0  0  0  0  0
    6.7386   -6.9027    1.4524 O   0  0  0  0  0  0  0  0  0  0  0  0
    4.5897   -6.8039    2.5823 C   0  0  0  0  0  0  0  0  0  0  0  0
    3.1815   -6.1927    2.5818 C   0  0  2  0  0  0  0  0  0  0  0  0
    2.1217   -6.9008    1.7189 C   0  0  0  0  0  0  0  0  0  0  0  0
    1.6445   -8.0262    1.6381 O   0  0  0  0  0  0  0  0  0  0  0  0
    1.7230   -5.7407    1.1163 O   0  0  0  0  0  0  0  0  0  0  0  0
    2.8745   -5.0270    1.6591 C   0  0  2  0  0  0  0  0  0  0  0  0
    3.8265   -4.7200    0.4931 C   0  0  1  0  0  0  0  0  0  0  0  0
    3.6396   -3.3036   -0.0931 C   0  0  1  0  0  0  0  0  0  0  0  0
    3.6230   -2.0963    0.8648 C   0  0  0  0  0  0  0  0  0  0  0  0
    4.0706   -0.9905    0.0727 O   0  0  0  0  0  0  0  0  0  0  0  0
    4.2895   -1.4182   -1.2330 C   0  0  1  0  0  0  0  0  0  0  0  0
    5.2661   -0.6562   -1.8917 O   0  0  0  0  0  0  0  0  0  0  0  0
    5.1886   -3.1615   -3.2227 H   0  0  0  0  0  0  0  0  0  0  0  0
    3.5012   -3.4864   -2.8439 H   0  0  0  0  0  0  0  0  0  0  0  0
    4.7406   -4.6480   -2.3965 H   0  0  0  0  0  0  0  0  0  0  0  0
    6.8448   -3.0652   -1.4256 H   0  0  0  0  0  0  0  0  0  0  0  0
    6.4543   -2.1342   -0.0068 H   0  0  0  0  0  0  0  0  0  0  0  0
    7.4002   -4.6568    0.2419 H   0  0  0  0  0  0  0  0  0  0  0  0
    4.9902   -7.1455    0.4862 H   0  0  0  0  0  0  0  0  0  0  0  0
    6.7787   -7.8152    1.7043 H   0  0  0  0  0  0  0  0  0  0  0  0
    4.5517   -7.8798    2.7754 H   0  0  0  0  0  0  0  0  0  0  0  0
    5.1370   -6.3705    3.4199 H   0  0  0  0  0  0  0  0  0  0  0  0
    2.7763   -6.0375    3.5808 H   0  0  0  0  0  0  0  0  0  0  0  0
    2.5781   -4.1575    2.2533 H   0  0  0  0  0  0  0  0  0  0  0  0
    3.5834   -5.4040   -0.3213 H   0  0  0  0  0  0  0  0  0  0  0  0
    2.6646   -3.3044   -0.5860 H   0  0  0  0  0  0  0  0  0  0  0  0
    2.6255   -1.9064    1.2674 H   0  0  0  0  0  0  0  0  0  0  0  0
    4.3087   -2.2067    1.7054 H   0  0  0  0  0  0  0  0  0  0  0  0
    3.3498   -1.3001   -1.7766 H   0  0  0  0  0  0  0  0  0  0  0  0
    5.0162    0.2551   -1.7911 H   0  0  0  0  0  0  0  0  0  0  0  0
  2  1  1  6
  1 21  1  0
  1 22  1  0
  1 23  1  0
  2 16  1  0
  2 19  1  0
  2  3  1  0
  3  4  1  0
  3 24  1  0
  3 25  1  0
  4  6  1  0
  4  5  1  0
  4 26  1  1
  6  5  1  1
  6 15  1  0
  6  7  1  0
  7  8  1  0
  7  9  1  0
  7 27  1  6
  8 28  1  0
  9 10  1  0
  9 29  1  0
  9 30  1  0
 10 14  1  0
 10 11  1  0
 10 31  1  1
 11 12  2  0
 11 13  1  0
 13 14  1  0
 14 15  1  0
 14 32  1  1
 15 16  1  0
 15 33  1  6
 16 17  1  0
 16 34  1  6
 17 18  1  0
 17 35  1  0
 17 36  1  0
 18 19  1  0
 19 20  1  0
 19 37  1  6
 20 38  1  0
M  END
>  <i_m_ct_stereo_status>  (209) 
1

>  <s_m_source_file>  (209) 
/var/tmp/pbs.5076255.sched01/tmpyqr7shjn/887d44c5qo.sdf

>  <i_m_source_file_index>  (209) 
2

>  <i_lp_mmshare_version>  (209) 
48012

>  <i_f3d_flags>  (209) 
0

>  <s_epik_input>  (209) 
TzFbQ0BASF0oW0NAXTEyMylbQ0gyXVtDQEBdNChbQ0gzXSlbQ0BIXShbQ0gyXU9bQ0BIXTRbT0hdKVtDQEBIXTNbQ0BASF01W0NAQEhdKEMoPU8pTzUpW0NIMl1bQ0BASF0yW09IXQ==

>  <s_epik_cmdline>  (209) 
J2VwaWtfcHl0aG9uJywgJy1waHQnLCAnMi4wJywgJy1waCcsICc3LjAnLCAnLXRuJywgJzgnLCAnLW1hJywgJzIwMCcsICctaW1hZScsICc8aW5maWxlLm1hZT4nLCAnLW9tYWUnLCAnPG91dGZpbGUubWFlPic=

>  <r_lp_tautomer_probability>  (209) 
1

>  <r_epik_Ionization_Penalty>  (209) 
1.25407e-07

>  <r_epik_Ionization_Penalty_Charging>  (209) 
0

>  <r_epik_Ionization_Penalty_Neutral>  (209) 
1.25407e-07

>  <r_epik_State_Penalty>  (209) 
-0

>  <r_epik_Charging_Adjusted_Penalty>  (209) 
0

>  <i_epik_Tot_Q>  (209) 
0

>  <i_epik_Tot_abs_Q>  (209) 
0

>  <s_epik_Chemistry_Notes>  (209) 
This compound has an ester and may undergo hydrolysis at high or low pH. This compound contains an acetal/aminal-like group ( X-CH(R)-Y where X, Y are N, S, or O) that may be acid/base labile, releasing an aldehyde.

>  <s_lp_Force_Field>  (209) 
OPLS3e

>  <r_lp_Energy>  (209) 
21.515

>  <b_lp_Chiralities_Consistent>  (209) 
1

>  <s_lp_Variant>  (209) 
64:0-1

>  <s_i_glide_gridfile>  (209) 
pfpi4k_grid

>  <i_i_glide_lignum>  (209) 
2

>  <i_i_glide_rotatable_bonds>  (209) 
2

>  <r_i_docking_score>  (209) 
-3.73157

>  <r_i_glide_ligand_efficiency>  (209) 
-0.186579

>  <r_i_glide_ligand_efficiency_sa>  (209) 
-0.506453

>  <r_i_glide_ligand_efficiency_ln>  (209) 
-0.93389

>  <r_i_glide_gscore>  (209) 
-3.73157

>  <r_i_glide_lipo>  (209) 
-0.327865

>  <r_i_glide_hbond>  (209) 
-0.0944628

>  <r_i_glide_metal>  (209) 
-0

>  <r_i_glide_rewards>  (209) 
-1.48439

>  <r_i_glide_evdw>  (209) 
-21.85

>  <r_i_glide_ecoul>  (209) 
-4.46379

>  <r_i_glide_erotb>  (209) 
0

>  <r_i_glide_esite>  (209) 
-0.0627882

>  <r_i_glide_emodel>  (209) 
-32.0422

>  <r_i_glide_energy>  (209) 
-26.3138

>  <r_i_glide_einternal>  (209) 
0.845549

>  <r_i_glide_intrahb_reward>  (209) 
-0

>  <i_i_glide_confnum>  (209) 
2

>  <i_i_glide_posenum>  (209) 
5

>  <r_i_glide_eff_state_penalty>  (209) 
0

>  <ligand_id>  (209) 
64

>  <original_smiles>  (209) 
CC12CC3OC34C(O)CC3C(=O)OC3C4C1COC2O

>  <smiles>  (209) 
[H]OC1([H])OC([H])([H])C2([H])C3([H])C4([H])OC(=O)C4([H])C([H])([H])C([H])(O[H])C34OC4([H])C([H])([H])C12C([H])([H])[H]

$$$$
65:0:0
     RDKit          3D

 35 37  0  0  1  0  0  0  0  0999 V2000
   -5.9787   -3.9741   -4.5705 C   0  0  0  0  0  0  0  0  0  0  0  0
   -6.6685   -5.0914   -5.2922 C   0  0  0  0  0  0  0  0  0  0  0  0
   -7.8036   -4.8085   -6.0741 C   0  0  0  0  0  0  0  0  0  0  0  0
   -8.4262   -5.8455   -6.7850 C   0  0  0  0  0  0  0  0  0  0  0  0
   -7.8920   -7.1452   -6.7282 C   0  0  0  0  0  0  0  0  0  0  0  0
   -6.7694   -7.4391   -5.9257 C   0  0  0  0  0  0  0  0  0  0  0  0
   -6.1565   -6.3990   -5.1963 C   0  0  0  0  0  0  0  0  0  0  0  0
   -6.3415   -8.8917   -5.8407 C   0  0  2  0  0  0  0  0  0  0  0  0
   -4.9853   -9.2058   -5.2127 C   0  0  0  0  0  0  0  0  0  0  0  0
   -4.2174  -10.2348   -5.6085 C   0  0  0  0  0  0  0  0  0  0  0  0
   -4.5785  -11.1580   -6.7573 C   0  0  0  0  0  0  0  0  0  0  0  0
   -5.7624  -10.6399   -7.5506 C   0  0  0  0  0  0  0  0  0  0  0  0
   -6.5564   -9.6208   -7.1642 C   0  0  0  0  0  0  0  0  0  0  0  0
   -7.7065   -9.1082   -8.0466 C   0  0  0  0  0  0  0  0  0  0  0  0
   -7.1754   -8.3704   -9.2809 C   0  0  0  0  0  0  0  0  0  0  0  0
   -8.6550  -10.2499   -8.4361 C   0  0  0  0  0  0  0  0  0  0  0  0
   -8.5345   -8.1489   -7.4036 O   0  0  0  0  0  0  0  0  0  0  0  0
   -6.5168   -3.0508   -4.7174 H   0  0  0  0  0  0  0  0  0  0  0  0
   -4.9757   -3.8583   -4.9661 H   0  0  0  0  0  0  0  0  0  0  0  0
   -5.9527   -4.1643   -3.5058 H   0  0  0  0  0  0  0  0  0  0  0  0
   -8.2012   -3.8080   -6.1366 H   0  0  0  0  0  0  0  0  0  0  0  0
   -9.3241   -5.6570   -7.3600 H   0  0  0  0  0  0  0  0  0  0  0  0
   -5.2986   -6.5846   -4.5697 H   0  0  0  0  0  0  0  0  0  0  0  0
   -7.0592   -9.3434   -5.1618 H   0  0  0  0  0  0  0  0  0  0  0  0
   -4.6793   -8.6237   -4.3553 H   0  0  0  0  0  0  0  0  0  0  0  0
   -3.2886  -10.4567   -5.0961 H   0  0  0  0  0  0  0  0  0  0  0  0
   -3.7187  -11.2431   -7.4178 H   0  0  0  0  0  0  0  0  0  0  0  0
   -4.8074  -12.1517   -6.3757 H   0  0  0  0  0  0  0  0  0  0  0  0
   -5.9306  -11.1199   -8.5022 H   0  0  0  0  0  0  0  0  0  0  0  0
   -6.6035   -9.0310   -9.9179 H   0  0  0  0  0  0  0  0  0  0  0  0
   -6.5273   -7.5470   -8.9841 H   0  0  0  0  0  0  0  0  0  0  0  0
   -7.9898   -7.9391   -9.8642 H   0  0  0  0  0  0  0  0  0  0  0  0
   -8.1626  -10.9950   -9.0597 H   0  0  0  0  0  0  0  0  0  0  0  0
   -9.5153   -9.8672   -8.9850 H   0  0  0  0  0  0  0  0  0  0  0  0
   -9.0347  -10.7522   -7.5440 H   0  0  0  0  0  0  0  0  0  0  0  0
  1  2  1  0
  1 18  1  0
  1 19  1  0
  1 20  1  0
  2  7  2  0
  2  3  1  0
  3  4  2  0
  3 21  1  0
  4  5  1  0
  4 22  1  0
  5 17  1  0
  5  6  2  0
  6  7  1  0
  6  8  1  0
  7 23  1  0
  8 13  1  0
  8  9  1  0
  8 24  1  1
  9 10  2  0
  9 25  1  0
 10 11  1  0
 10 26  1  0
 11 12  1  0
 11 27  1  0
 11 28  1  0
 12 13  2  0
 12 29  1  0
 13 14  1  0
 14 15  1  0
 14 16  1  0
 14 17  1  0
 15 30  1  0
 15 31  1  0
 15 32  1  0
 16 33  1  0
 16 34  1  0
 16 35  1  0
M  END
>  <i_m_ct_stereo_status>  (210) 
1

>  <s_m_source_file>  (210) 
/var/tmp/pbs.5076255.sched01/tmpyqr7shjn/887d44c5qo.sdf

>  <i_m_source_file_index>  (210) 
3

>  <i_lp_mmshare_version>  (210) 
48012

>  <i_f3d_flags>  (210) 
0

>  <s_epik_input>  (210) 
W2NIXTFbY0hdYyhbQ0gzXSlbY0hdYyhjMTIpW0NASF0zQyhDKE8yKShbQ0gzXSlbQ0gzXSk9W0NIXVtDSDJdW0NIXT1bQ0hdMw==

>  <s_epik_cmdline>  (210) 
J2VwaWtfcHl0aG9uJywgJy1waHQnLCAnMi4wJywgJy1waCcsICc3LjAnLCAnLXRuJywgJzgnLCAnLW1hJywgJzIwMCcsICctaW1hZScsICc8aW5maWxlLm1hZT4nLCAnLW9tYWUnLCAnPG91dGZpbGUubWFlPic=

>  <r_lp_tautomer_probability>  (210) 
1

>  <r_epik_Ionization_Penalty>  (210) 
0

>  <r_epik_Ionization_Penalty_Charging>  (210) 
0

>  <r_epik_Ionization_Penalty_Neutral>  (210) 
0

>  <r_epik_State_Penalty>  (210) 
-0

>  <r_epik_Charging_Adjusted_Penalty>  (210) 
0

>  <i_epik_Tot_Q>  (210) 
0

>  <i_epik_Tot_abs_Q>  (210) 
0

>  <s_lp_Force_Field>  (210) 
OPLS3e

>  <r_lp_Energy>  (210) 
34.9772

>  <b_lp_Chiralities_Consistent>  (210) 
1

>  <s_lp_Variant>  (210) 
65:0-1

>  <s_i_glide_gridfile>  (210) 
pfpi4k_grid

>  <i_i_glide_lignum>  (210) 
3

>  <i_i_glide_rotatable_bonds>  (210) 
0

>  <r_i_docking_score>  (210) 
-6.72768

>  <r_i_glide_ligand_efficiency>  (210) 
-0.395746

>  <r_i_glide_ligand_efficiency_sa>  (210) 
-1.01757

>  <r_i_glide_ligand_efficiency_ln>  (210) 
-1.7551

>  <r_i_glide_gscore>  (210) 
-6.72768

>  <r_i_glide_lipo>  (210) 
-2.99162

>  <r_i_glide_hbond>  (210) 
0

>  <r_i_glide_metal>  (210) 
-0

>  <r_i_glide_rewards>  (210) 
-2.55598

>  <r_i_glide_evdw>  (210) 
-21.986

>  <r_i_glide_ecoul>  (210) 
-0.538517

>  <r_i_glide_erotb>  (210) 
0

>  <r_i_glide_esite>  (210) 
0

>  <r_i_glide_emodel>  (210) 
-32.1141

>  <r_i_glide_energy>  (210) 
-22.5245

>  <r_i_glide_einternal>  (210) 
0

>  <r_i_glide_intrahb_reward>  (210) 
-0

>  <i_i_glide_confnum>  (210) 
1

>  <i_i_glide_posenum>  (210) 
7

>  <r_i_glide_eff_state_penalty>  (210) 
0

>  <ligand_id>  (210) 
65

>  <original_smiles>  (210) 
Cc1ccc2c(c1)C1C=CCC=C1C(C)(C)O2

>  <smiles>  (210) 
[H]C1=C([H])C2([H])C(=C([H])C1([H])[H])C(C([H])([H])[H])(C([H])([H])[H])Oc1c([H])c([H])c(C([H])([H])[H])c([H])c12

$$$$
65:0:1
     RDKit          3D

 35 37  0  0  1  0  0  0  0  0999 V2000
   -6.9528   -4.4022   -4.2746 C   0  0  0  0  0  0  0  0  0  0  0  0
   -6.7318   -5.6558   -5.0939 C   0  0  0  0  0  0  0  0  0  0  0  0
   -5.6705   -6.5285   -4.7786 C   0  0  0  0  0  0  0  0  0  0  0  0
   -5.4691   -7.6975   -5.5331 C   0  0  0  0  0  0  0  0  0  0  0  0
   -6.3512   -8.0085   -6.5834 C   0  0  0  0  0  0  0  0  0  0  0  0
   -7.4123   -7.1389   -6.9137 C   0  0  0  0  0  0  0  0  0  0  0  0
   -7.5970   -5.9570   -6.1643 C   0  0  0  0  0  0  0  0  0  0  0  0
   -8.2874   -7.5411   -8.0916 C   0  0  2  0  0  0  0  0  0  0  0  0
   -9.5821   -6.7685   -8.3280 C   0  0  0  0  0  0  0  0  0  0  0  0
  -10.6862   -7.3285   -8.8561 C   0  0  0  0  0  0  0  0  0  0  0  0
  -10.7881   -8.7993   -9.2222 C   0  0  0  0  0  0  0  0  0  0  0  0
   -9.6150   -9.5955   -8.6828 C   0  0  0  0  0  0  0  0  0  0  0  0
   -8.4945   -9.0522   -8.1602 C   0  0  0  0  0  0  0  0  0  0  0  0
   -7.3651   -9.9159   -7.5827 C   0  0  0  0  0  0  0  0  0  0  0  0
   -7.8172  -10.5983   -6.2783 C   0  0  0  0  0  0  0  0  0  0  0  0
   -6.8942  -10.9612   -8.6070 C   0  0  0  0  0  0  0  0  0  0  0  0
   -6.1792   -9.1744   -7.2838 O   0  0  0  0  0  0  0  0  0  0  0  0
   -6.1930   -4.2909   -3.5040 H   0  0  0  0  0  0  0  0  0  0  0  0
   -7.9285   -4.4311   -3.7903 H   0  0  0  0  0  0  0  0  0  0  0  0
   -6.9073   -3.5235   -4.9140 H   0  0  0  0  0  0  0  0  0  0  0  0
   -5.0174   -6.3146   -3.9482 H   0  0  0  0  0  0  0  0  0  0  0  0
   -4.6666   -8.3795   -5.2859 H   0  0  0  0  0  0  0  0  0  0  0  0
   -8.4050   -5.2748   -6.3839 H   0  0  0  0  0  0  0  0  0  0  0  0
   -7.6716   -7.3032   -8.9574 H   0  0  0  0  0  0  0  0  0  0  0  0
   -9.5792   -5.7095   -8.1195 H   0  0  0  0  0  0  0  0  0  0  0  0
  -11.5711   -6.7313   -9.0466 H   0  0  0  0  0  0  0  0  0  0  0  0
  -11.7111   -9.2002   -8.8020 H   0  0  0  0  0  0  0  0  0  0  0  0
  -10.8388   -8.9143  -10.3056 H   0  0  0  0  0  0  0  0  0  0  0  0
   -9.7381  -10.6689   -8.7091 H   0  0  0  0  0  0  0  0  0  0  0  0
   -8.6525  -11.2807   -6.4368 H   0  0  0  0  0  0  0  0  0  0  0  0
   -8.1288   -9.8601   -5.5350 H   0  0  0  0  0  0  0  0  0  0  0  0
   -6.9916  -11.1681   -5.8584 H   0  0  0  0  0  0  0  0  0  0  0  0
   -7.6753  -11.6793   -8.8602 H   0  0  0  0  0  0  0  0  0  0  0  0
   -6.0368  -11.5190   -8.2282 H   0  0  0  0  0  0  0  0  0  0  0  0
   -6.5857  -10.4584   -9.5230 H   0  0  0  0  0  0  0  0  0  0  0  0
  1  2  1  0
  1 18  1  0
  1 19  1  0
  1 20  1  0
  2  7  2  0
  2  3  1  0
  3  4  2  0
  3 21  1  0
  4  5  1  0
  4 22  1  0
  5 17  1  0
  5  6  2  0
  6  7  1  0
  6  8  1  0
  7 23  1  0
  8 13  1  0
  8  9  1  0
  8 24  1  6
  9 10  2  0
  9 25  1  0
 10 11  1  0
 10 26  1  0
 11 12  1  0
 11 27  1  0
 11 28  1  0
 12 13  2  0
 12 29  1  0
 13 14  1  0
 14 15  1  0
 14 16  1  0
 14 17  1  0
 15 30  1  0
 15 31  1  0
 15 32  1  0
 16 33  1  0
 16 34  1  0
 16 35  1  0
M  END
>  <i_m_ct_stereo_status>  (211) 
1

>  <s_m_source_file>  (211) 
/var/tmp/pbs.5076255.sched01/tmpyqr7shjn/887d44c5qo.sdf

>  <i_m_source_file_index>  (211) 
3

>  <i_lp_mmshare_version>  (211) 
48012

>  <i_f3d_flags>  (211) 
0

>  <s_epik_input>  (211) 
W2NIXTFbY0hdYyhbQ0gzXSlbY0hdYyhjMTIpW0NASF0zQyhDKE8yKShbQ0gzXSlbQ0gzXSk9W0NIXVtDSDJdW0NIXT1bQ0hdMw==

>  <s_epik_cmdline>  (211) 
J2VwaWtfcHl0aG9uJywgJy1waHQnLCAnMi4wJywgJy1waCcsICc3LjAnLCAnLXRuJywgJzgnLCAnLW1hJywgJzIwMCcsICctaW1hZScsICc8aW5maWxlLm1hZT4nLCAnLW9tYWUnLCAnPG91dGZpbGUubWFlPic=

>  <r_lp_tautomer_probability>  (211) 
1

>  <r_epik_Ionization_Penalty>  (211) 
0

>  <r_epik_Ionization_Penalty_Charging>  (211) 
0

>  <r_epik_Ionization_Penalty_Neutral>  (211) 
0

>  <r_epik_State_Penalty>  (211) 
-0

>  <r_epik_Charging_Adjusted_Penalty>  (211) 
0

>  <i_epik_Tot_Q>  (211) 
0

>  <i_epik_Tot_abs_Q>  (211) 
0

>  <s_lp_Force_Field>  (211) 
OPLS3e

>  <r_lp_Energy>  (211) 
34.9772

>  <b_lp_Chiralities_Consistent>  (211) 
1

>  <s_lp_Variant>  (211) 
65:0-1

>  <s_i_glide_gridfile>  (211) 
pfpi4k_grid

>  <i_i_glide_lignum>  (211) 
3

>  <i_i_glide_rotatable_bonds>  (211) 
0

>  <r_i_docking_score>  (211) 
-6.13344

>  <r_i_glide_ligand_efficiency>  (211) 
-0.36079

>  <r_i_glide_ligand_efficiency_sa>  (211) 
-0.927693

>  <r_i_glide_ligand_efficiency_ln>  (211) 
-1.60008

>  <r_i_glide_gscore>  (211) 
-6.13344

>  <r_i_glide_lipo>  (211) 
-2.51575

>  <r_i_glide_hbond>  (211) 
0

>  <r_i_glide_metal>  (211) 
-0

>  <r_i_glide_rewards>  (211) 
-2.39062

>  <r_i_glide_evdw>  (211) 
-23.815

>  <r_i_glide_ecoul>  (211) 
-0.242053

>  <r_i_glide_erotb>  (211) 
0

>  <r_i_glide_esite>  (211) 
0

>  <r_i_glide_emodel>  (211) 
-32.8367

>  <r_i_glide_energy>  (211) 
-24.0571

>  <r_i_glide_einternal>  (211) 
0

>  <r_i_glide_intrahb_reward>  (211) 
-0

>  <i_i_glide_confnum>  (211) 
1

>  <i_i_glide_posenum>  (211) 
6

>  <r_i_glide_eff_state_penalty>  (211) 
0

>  <ligand_id>  (211) 
65

>  <original_smiles>  (211) 
Cc1ccc2c(c1)C1C=CCC=C1C(C)(C)O2

>  <smiles>  (211) 
[H]C1=C([H])C2([H])C(=C([H])C1([H])[H])C(C([H])([H])[H])(C([H])([H])[H])Oc1c([H])c([H])c(C([H])([H])[H])c([H])c12

$$$$
65:0:2
     RDKit          3D

 35 37  0  0  1  0  0  0  0  0999 V2000
   -5.7034   -6.1289   -4.7511 C   0  0  0  0  0  0  0  0  0  0  0  0
   -5.6472   -7.4187   -5.5400 C   0  0  0  0  0  0  0  0  0  0  0  0
   -4.7718   -8.4519   -5.1481 C   0  0  0  0  0  0  0  0  0  0  0  0
   -4.7284   -9.6534   -5.8745 C   0  0  0  0  0  0  0  0  0  0  0  0
   -5.5743   -9.8297   -6.9834 C   0  0  0  0  0  0  0  0  0  0  0  0
   -6.4453   -8.7996   -7.3944 C   0  0  0  0  0  0  0  0  0  0  0  0
   -6.4790   -7.5898   -6.6658 C   0  0  0  0  0  0  0  0  0  0  0  0
   -7.2885   -9.0717   -8.6313 C   0  0  2  0  0  0  0  0  0  0  0  0
   -8.4131   -8.0967   -8.9644 C   0  0  0  0  0  0  0  0  0  0  0  0
   -9.5539   -8.4724   -9.5707 C   0  0  0  0  0  0  0  0  0  0  0  0
   -9.8815   -9.9106   -9.9279 C   0  0  0  0  0  0  0  0  0  0  0  0
   -8.9011  -10.8833   -9.2981 C   0  0  0  0  0  0  0  0  0  0  0  0
   -7.7448  -10.5275   -8.6997 C   0  0  0  0  0  0  0  0  0  0  0  0
   -6.8194  -11.5576   -8.0344 C   0  0  0  0  0  0  0  0  0  0  0  0
   -7.4676  -12.1212   -6.7500 C   0  0  0  0  0  0  0  0  0  0  0  0
   -6.4648  -12.6864   -9.0185 C   0  0  0  0  0  0  0  0  0  0  0  0
   -5.5488  -11.0189   -7.6623 O   0  0  0  0  0  0  0  0  0  0  0  0
   -4.9934   -6.1469   -3.9262 H   0  0  0  0  0  0  0  0  0  0  0  0
   -6.6993   -5.9774   -4.3354 H   0  0  0  0  0  0  0  0  0  0  0  0
   -5.4617   -5.2823   -5.3932 H   0  0  0  0  0  0  0  0  0  0  0  0
   -4.1382   -8.3421   -4.2835 H   0  0  0  0  0  0  0  0  0  0  0  0
   -4.0699  -10.4528   -5.5643 H   0  0  0  0  0  0  0  0  0  0  0  0
   -7.1371   -6.7832   -6.9508 H   0  0  0  0  0  0  0  0  0  0  0  0
   -6.5852   -8.9548   -9.4539 H   0  0  0  0  0  0  0  0  0  0  0  0
   -8.2444   -7.0482   -8.7691 H   0  0  0  0  0  0  0  0  0  0  0  0
  -10.3029   -7.7357   -9.8313 H   0  0  0  0  0  0  0  0  0  0  0  0
  -10.8862  -10.1400   -9.5713 H   0  0  0  0  0  0  0  0  0  0  0  0
   -9.8773  -10.0384  -11.0118 H   0  0  0  0  0  0  0  0  0  0  0  0
   -9.2032  -11.9211   -9.3221 H   0  0  0  0  0  0  0  0  0  0  0  0
   -8.3933  -12.6560   -6.9634 H   0  0  0  0  0  0  0  0  0  0  0  0
   -7.7101  -11.3203   -6.0484 H   0  0  0  0  0  0  0  0  0  0  0  0
   -6.7910  -12.8056   -6.2372 H   0  0  0  0  0  0  0  0  0  0  0  0
   -7.3377  -13.2668   -9.3184 H   0  0  0  0  0  0  0  0  0  0  0  0
   -5.7421  -13.3731   -8.5768 H   0  0  0  0  0  0  0  0  0  0  0  0
   -6.0114  -12.2712   -9.9203 H   0  0  0  0  0  0  0  0  0  0  0  0
  1  2  1  0
  1 18  1  0
  1 19  1  0
  1 20  1  0
  2  7  2  0
  2  3  1  0
  3  4  2  0
  3 21  1  0
  4  5  1  0
  4 22  1  0
  5 17  1  0
  5  6  2  0
  6  7  1  0
  6  8  1  0
  7 23  1  0
  8 13  1  0
  8  9  1  0
  8 24  1  6
  9 10  2  0
  9 25  1  0
 10 11  1  0
 10 26  1  0
 11 12  1  0
 11 27  1  0
 11 28  1  0
 12 13  2  0
 12 29  1  0
 13 14  1  0
 14 15  1  0
 14 16  1  0
 14 17  1  0
 15 30  1  0
 15 31  1  0
 15 32  1  0
 16 33  1  0
 16 34  1  0
 16 35  1  0
M  END
>  <i_m_ct_stereo_status>  (212) 
1

>  <s_m_source_file>  (212) 
/var/tmp/pbs.5076255.sched01/tmpyqr7shjn/887d44c5qo.sdf

>  <i_m_source_file_index>  (212) 
3

>  <i_lp_mmshare_version>  (212) 
48012

>  <i_f3d_flags>  (212) 
0

>  <s_epik_input>  (212) 
W2NIXTFbY0hdYyhbQ0gzXSlbY0hdYyhjMTIpW0NASF0zQyhDKE8yKShbQ0gzXSlbQ0gzXSk9W0NIXVtDSDJdW0NIXT1bQ0hdMw==

>  <s_epik_cmdline>  (212) 
J2VwaWtfcHl0aG9uJywgJy1waHQnLCAnMi4wJywgJy1waCcsICc3LjAnLCAnLXRuJywgJzgnLCAnLW1hJywgJzIwMCcsICctaW1hZScsICc8aW5maWxlLm1hZT4nLCAnLW9tYWUnLCAnPG91dGZpbGUubWFlPic=

>  <r_lp_tautomer_probability>  (212) 
1

>  <r_epik_Ionization_Penalty>  (212) 
0

>  <r_epik_Ionization_Penalty_Charging>  (212) 
0

>  <r_epik_Ionization_Penalty_Neutral>  (212) 
0

>  <r_epik_State_Penalty>  (212) 
-0

>  <r_epik_Charging_Adjusted_Penalty>  (212) 
0

>  <i_epik_Tot_Q>  (212) 
0

>  <i_epik_Tot_abs_Q>  (212) 
0

>  <s_lp_Force_Field>  (212) 
OPLS3e

>  <r_lp_Energy>  (212) 
34.9772

>  <b_lp_Chiralities_Consistent>  (212) 
1

>  <s_lp_Variant>  (212) 
65:0-1

>  <s_i_glide_gridfile>  (212) 
pfpi4k_grid

>  <i_i_glide_lignum>  (212) 
3

>  <i_i_glide_rotatable_bonds>  (212) 
0

>  <r_i_docking_score>  (212) 
-5.57694

>  <r_i_glide_ligand_efficiency>  (212) 
-0.328055

>  <r_i_glide_ligand_efficiency_sa>  (212) 
-0.843523

>  <r_i_glide_ligand_efficiency_ln>  (212) 
-1.4549

>  <r_i_glide_gscore>  (212) 
-5.57694

>  <r_i_glide_lipo>  (212) 
-2.14856

>  <r_i_glide_hbond>  (212) 
0

>  <r_i_glide_metal>  (212) 
-0

>  <r_i_glide_rewards>  (212) 
-2.26387

>  <r_i_glide_evdw>  (212) 
-22.1424

>  <r_i_glide_ecoul>  (212) 
-0.3826

>  <r_i_glide_erotb>  (212) 
0

>  <r_i_glide_esite>  (212) 
0

>  <r_i_glide_emodel>  (212) 
-30.5134

>  <r_i_glide_energy>  (212) 
-22.525

>  <r_i_glide_einternal>  (212) 
0

>  <r_i_glide_intrahb_reward>  (212) 
-0

>  <i_i_glide_confnum>  (212) 
2

>  <i_i_glide_posenum>  (212) 
1

>  <r_i_glide_eff_state_penalty>  (212) 
0

>  <ligand_id>  (212) 
65

>  <original_smiles>  (212) 
Cc1ccc2c(c1)C1C=CCC=C1C(C)(C)O2

>  <smiles>  (212) 
[H]C1=C([H])C2([H])C(=C([H])C1([H])[H])C(C([H])([H])[H])(C([H])([H])[H])Oc1c([H])c([H])c(C([H])([H])[H])c([H])c12

$$$$
66:0:0
     RDKit          3D

 49 52  0  0  1  0  0  0  0  0999 V2000
    6.7307   -2.8819   -1.0243 C   0  0  0  0  0  0  0  0  0  0  0  0
    5.2126   -3.1612   -1.0231 C   0  0  2  0  0  0  0  0  0  0  0  0
    4.8798   -3.8528   -2.3475 C   0  0  0  0  0  0  0  0  0  0  0  0
    4.4068   -3.2773   -3.4647 C   0  0  0  0  0  0  0  0  0  0  0  0
    4.1865   -1.8386   -3.5268 C   0  0  0  0  0  0  0  0  0  0  0  0
    3.8290   -1.2740   -4.5585 O   0  0  0  0  0  0  0  0  0  0  0  0
    4.4807   -0.9924   -2.2977 C   0  0  0  0  0  0  0  0  0  0  0  0
    4.5284   -1.7881   -0.9954 C   0  0  0  0  0  0  0  0  0  0  0  0
    4.0059   -1.2733    0.1298 C   0  0  0  0  0  0  0  0  0  0  0  0
    4.0258   -1.9315    1.4908 C   0  0  0  0  0  0  0  0  0  0  0  0
    4.7335   -3.3129    1.5597 C   0  0  2  0  0  0  0  0  0  0  0  0
    4.7332   -4.0447    0.1937 C   0  0  2  0  0  0  0  0  0  0  0  0
    5.4384   -5.4164    0.3536 C   0  0  1  0  0  0  0  0  0  0  0  0
    6.7995   -5.3070    0.7257 O   0  0  0  0  0  0  0  0  0  0  0  0
    4.6975   -6.3170    1.3478 C   0  0  0  0  0  0  0  0  0  0  0  0
    4.3180   -5.7006    2.7261 C   0  0  1  0  0  0  0  0  0  0  0  0
    2.9750   -6.3836    3.1148 C   0  0  0  0  0  0  0  0  0  0  0  0
    5.3012   -5.9725    3.8984 C   0  0  1  0  0  0  0  0  0  0  0  0
    6.6571   -5.8329    3.5400 O   0  0  0  0  0  0  0  0  0  0  0  0
    4.9295   -4.8998    4.9334 C   0  0  1  0  0  0  0  0  0  0  0  0
    5.9236   -4.6481    5.9085 O   0  0  0  0  0  0  0  0  0  0  0  0
    4.5694   -3.6563    4.1142 C   0  0  0  0  0  0  0  0  0  0  0  0
    4.0999   -4.1517    2.7209 C   0  0  1  0  0  0  0  0  0  0  0  0
    6.9971   -2.1729   -1.8104 H   0  0  0  0  0  0  0  0  0  0  0  0
    7.3077   -3.7829   -1.2211 H   0  0  0  0  0  0  0  0  0  0  0  0
    7.0548   -2.4633   -0.0690 H   0  0  0  0  0  0  0  0  0  0  0  0
    5.0297   -4.9254   -2.3893 H   0  0  0  0  0  0  0  0  0  0  0  0
    4.2049   -3.8643   -4.3479 H   0  0  0  0  0  0  0  0  0  0  0  0
    5.4311   -0.4846   -2.4387 H   0  0  0  0  0  0  0  0  0  0  0  0
    3.7150   -0.2262   -2.2384 H   0  0  0  0  0  0  0  0  0  0  0  0
    3.5353   -0.2997    0.0969 H   0  0  0  0  0  0  0  0  0  0  0  0
    4.5072   -1.2449    2.1885 H   0  0  0  0  0  0  0  0  0  0  0  0
    2.9811   -2.0034    1.7962 H   0  0  0  0  0  0  0  0  0  0  0  0
    5.7808   -3.1304    1.8029 H   0  0  0  0  0  0  0  0  0  0  0  0
    3.6899   -4.2715   -0.0185 H   0  0  0  0  0  0  0  0  0  0  0  0
    5.4171   -5.9405   -0.5982 H   0  0  0  0  0  0  0  0  0  0  0  0
    7.1845   -6.1703    0.7674 H   0  0  0  0  0  0  0  0  0  0  0  0
    3.7808   -6.6157    0.8326 H   0  0  0  0  0  0  0  0  0  0  0  0
    5.2419   -7.2481    1.4911 H   0  0  0  0  0  0  0  0  0  0  0  0
    2.5691   -6.0142    4.0584 H   0  0  0  0  0  0  0  0  0  0  0  0
    3.0975   -7.4657    3.2104 H   0  0  0  0  0  0  0  0  0  0  0  0
    2.2074   -6.2058    2.3588 H   0  0  0  0  0  0  0  0  0  0  0  0
    5.1968   -6.9764    4.3120 H   0  0  0  0  0  0  0  0  0  0  0  0
    6.8696   -6.4910    2.8955 H   0  0  0  0  0  0  0  0  0  0  0  0
    4.0430   -5.2247    5.4773 H   0  0  0  0  0  0  0  0  0  0  0  0
    6.0796   -5.4482    6.3895 H   0  0  0  0  0  0  0  0  0  0  0  0
    3.7976   -3.0744    4.6184 H   0  0  0  0  0  0  0  0  0  0  0  0
    5.4384   -3.0061    4.0278 H   0  0  0  0  0  0  0  0  0  0  0  0
    3.0209   -4.0004    2.6663 H   0  0  0  0  0  0  0  0  0  0  0  0
  2  1  1  1
  1 24  1  0
  1 25  1  0
  1 26  1  0
  2  8  1  0
  2 12  1  0
  2  3  1  0
  3  4  2  0
  3 27  1  0
  4  5  1  0
  4 28  1  0
  5  6  2  0
  5  7  1  0
  7  8  1  0
  7 29  1  0
  7 30  1  0
  8  9  2  0
  9 10  1  0
  9 31  1  0
 10 11  1  0
 10 32  1  0
 10 33  1  0
 11 23  1  0
 11 12  1  0
 11 34  1  1
 12 13  1  0
 12 35  1  6
 13 14  1  0
 13 15  1  0
 13 36  1  6
 14 37  1  0
 15 16  1  0
 15 38  1  0
 15 39  1  0
 16 23  1  0
 16 17  1  1
 16 18  1  0
 17 40  1  0
 17 41  1  0
 17 42  1  0
 18 19  1  0
 18 20  1  0
 18 43  1  1
 19 44  1  0
 20 21  1  0
 20 22  1  0
 20 45  1  1
 21 46  1  0
 22 23  1  0
 22 47  1  0
 22 48  1  0
 23 49  1  1
M  END
>  <i_m_ct_stereo_status>  (213) 
1

>  <s_m_source_file>  (213) 
/var/tmp/pbs.5076255.sched01/tmpyqr7shjn/887d44c5qo.sdf

>  <i_m_source_file_index>  (213) 
4

>  <i_lp_mmshare_version>  (213) 
48012

>  <i_f3d_flags>  (213) 
0

>  <s_epik_input>  (213) 
W0NIXTE9W0NIXUMoPU8pW0NIMl1DKFtDQF0xMltDSDNdKT1bQ0hdW0NIMl1bQ0BASF0zW0NAQEhdMltDQEBIXShbT0hdKVtDSDJdW0NAXTQoW0NIM10pW0NASF0zW0NIMl1bQ0BIXShbT0hdKVtDQEBIXTRbT0hd

>  <s_epik_cmdline>  (213) 
J2VwaWtfcHl0aG9uJywgJy1waHQnLCAnMi4wJywgJy1waCcsICc3LjAnLCAnLXRuJywgJzgnLCAnLW1hJywgJzIwMCcsICctaW1hZScsICc8aW5maWxlLm1hZT4nLCAnLW9tYWUnLCAnPG91dGZpbGUubWFlPic=

>  <r_lp_tautomer_probability>  (213) 
1

>  <r_epik_Ionization_Penalty>  (213) 
1.16478e-06

>  <r_epik_Ionization_Penalty_Charging>  (213) 
0

>  <r_epik_Ionization_Penalty_Neutral>  (213) 
1.16478e-06

>  <r_epik_State_Penalty>  (213) 
-0

>  <r_epik_Charging_Adjusted_Penalty>  (213) 
0

>  <i_epik_Tot_Q>  (213) 
0

>  <i_epik_Tot_abs_Q>  (213) 
0

>  <s_lp_Force_Field>  (213) 
OPLS3e

>  <r_lp_Energy>  (213) 
42.5417

>  <b_lp_Chiralities_Consistent>  (213) 
1

>  <s_lp_Variant>  (213) 
66:0-1

>  <s_i_glide_gridfile>  (213) 
pfpi4k_grid

>  <i_i_glide_lignum>  (213) 
4

>  <i_i_glide_rotatable_bonds>  (213) 
3

>  <r_i_docking_score>  (213) 
-4.046

>  <r_i_glide_ligand_efficiency>  (213) 
-0.175913

>  <r_i_glide_ligand_efficiency_sa>  (213) 
-0.500273

>  <r_i_glide_ligand_efficiency_ln>  (213) 
-0.978358

>  <r_i_glide_gscore>  (213) 
-4.046

>  <r_i_glide_lipo>  (213) 
-0.505287

>  <r_i_glide_hbond>  (213) 
-0.32

>  <r_i_glide_metal>  (213) 
-0

>  <r_i_glide_rewards>  (213) 
-1.48984

>  <r_i_glide_evdw>  (213) 
-27.4118

>  <r_i_glide_ecoul>  (213) 
-2.40185

>  <r_i_glide_erotb>  (213) 
0

>  <r_i_glide_esite>  (213) 
0

>  <r_i_glide_emodel>  (213) 
-36.1964

>  <r_i_glide_energy>  (213) 
-29.8136

>  <r_i_glide_einternal>  (213) 
1.00427

>  <r_i_glide_intrahb_reward>  (213) 
-0

>  <i_i_glide_confnum>  (213) 
1

>  <i_i_glide_posenum>  (213) 
35

>  <r_i_glide_eff_state_penalty>  (213) 
0

>  <ligand_id>  (213) 
66

>  <original_smiles>  (213) 
CC12C=CC(=O)CC1=CCC1C2C(O)CC2(C)C(O)C(O)CC12

>  <smiles>  (213) 
[H]OC1([H])C([H])([H])C2([H])C3([H])C([H])([H])C([H])=C4C([H])([H])C(=O)C([H])=C([H])C4(C([H])([H])[H])C3([H])C([H])(O[H])C([H])([H])C2(C([H])([H])[H])C1([H])O[H]

$$$$
66:0:1
     RDKit          3D

 49 52  0  0  1  0  0  0  0  0999 V2000
    6.4470   -2.8753   -0.7850 C   0  0  0  0  0  0  0  0  0  0  0  0
    4.9585   -3.2252   -0.9766 C   0  0  2  0  0  0  0  0  0  0  0  0
    4.8128   -3.8540   -2.3674 C   0  0  0  0  0  0  0  0  0  0  0  0
    4.4351   -3.2229   -3.4945 C   0  0  0  0  0  0  0  0  0  0  0  0
    4.1492   -1.7972   -3.5030 C   0  0  0  0  0  0  0  0  0  0  0  0
    3.8678   -1.1876   -4.5287 O   0  0  0  0  0  0  0  0  0  0  0  0
    4.2614   -1.0150   -2.2018 C   0  0  0  0  0  0  0  0  0  0  0  0
    4.2056   -1.8896   -0.9476 C   0  0  0  0  0  0  0  0  0  0  0  0
    3.5234   -1.4870    0.1342 C   0  0  0  0  0  0  0  0  0  0  0  0
    3.4179   -2.2331    1.4435 C   0  0  0  0  0  0  0  0  0  0  0  0
    4.1901   -3.5748    1.5139 C   0  0  2  0  0  0  0  0  0  0  0  0
    4.3889   -4.2105    0.1146 C   0  0  2  0  0  0  0  0  0  0  0  0
    5.1405   -5.5549    0.2622 C   0  0  1  0  0  0  0  0  0  0  0  0
    6.4607   -5.4260    0.7453 O   0  0  0  0  0  0  0  0  0  0  0  0
    4.3516   -6.5495    1.1203 C   0  0  0  0  0  0  0  0  0  0  0  0
    3.7836   -6.0464    2.4803 C   0  0  1  0  0  0  0  0  0  0  0  0
    2.4487   -6.8204    2.6672 C   0  0  0  0  0  0  0  0  0  0  0  0
    4.6458   -6.3397    3.7427 C   0  0  1  0  0  0  0  0  0  0  0  0
    6.0137   -6.0580    3.5317 O   0  0  0  0  0  0  0  0  0  0  0  0
    4.0860   -5.3652    4.7913 C   0  0  1  0  0  0  0  0  0  0  0  0
    4.9355   -5.1286    5.8934 O   0  0  0  0  0  0  0  0  0  0  0  0
    3.7554   -4.0886    4.0071 C   0  0  0  0  0  0  0  0  0  0  0  0
    3.4756   -4.5161    2.5428 C   0  0  1  0  0  0  0  0  0  0  0  0
    6.7565   -2.0946   -1.4833 H   0  0  0  0  0  0  0  0  0  0  0  0
    7.0911   -3.7322   -0.9760 H   0  0  0  0  0  0  0  0  0  0  0  0
    6.6326   -2.5054    0.2259 H   0  0  0  0  0  0  0  0  0  0  0  0
    5.0217   -4.9052   -2.4422 H   0  0  0  0  0  0  0  0  0  0  0  0
    4.3586   -3.7686   -4.4256 H   0  0  0  0  0  0  0  0  0  0  0  0
    5.1879   -0.4482   -2.2124 H   0  0  0  0  0  0  0  0  0  0  0  0
    3.4490   -0.2955   -2.1797 H   0  0  0  0  0  0  0  0  0  0  0  0
    2.9896   -0.5474    0.1051 H   0  0  0  0  0  0  0  0  0  0  0  0
    3.7749   -1.5669    2.2300 H   0  0  0  0  0  0  0  0  0  0  0  0
    2.3499   -2.3790    1.6060 H   0  0  0  0  0  0  0  0  0  0  0  0
    5.1906   -3.3484    1.8876 H   0  0  0  0  0  0  0  0  0  0  0  0
    3.3940   -4.4710   -0.2372 H   0  0  0  0  0  0  0  0  0  0  0  0
    5.2553   -6.0206   -0.7142 H   0  0  0  0  0  0  0  0  0  0  0  0
    6.4342   -5.1060    1.6334 H   0  0  0  0  0  0  0  0  0  0  0  0
    3.5186   -6.8759    0.4937 H   0  0  0  0  0  0  0  0  0  0  0  0
    4.9471   -7.4437    1.2789 H   0  0  0  0  0  0  0  0  0  0  0  0
    1.9158   -6.5341    3.5803 H   0  0  0  0  0  0  0  0  0  0  0  0
    2.6239   -7.9015    2.7136 H   0  0  0  0  0  0  0  0  0  0  0  0
    1.7659   -6.6321    1.8344 H   0  0  0  0  0  0  0  0  0  0  0  0
    4.5725   -7.3760    4.0767 H   0  0  0  0  0  0  0  0  0  0  0  0
    6.0988   -5.1297    3.3817 H   0  0  0  0  0  0  0  0  0  0  0  0
    3.1601   -5.7640    5.1994 H   0  0  0  0  0  0  0  0  0  0  0  0
    5.7854   -4.8607    5.5714 H   0  0  0  0  0  0  0  0  0  0  0  0
    2.8996   -3.5765    4.4445 H   0  0  0  0  0  0  0  0  0  0  0  0
    4.5890   -3.3890    4.0596 H   0  0  0  0  0  0  0  0  0  0  0  0
    2.4044   -4.4197    2.3689 H   0  0  0  0  0  0  0  0  0  0  0  0
  2  1  1  1
  1 24  1  0
  1 25  1  0
  1 26  1  0
  2  8  1  0
  2 12  1  0
  2  3  1  0
  3  4  2  0
  3 27  1  0
  4  5  1  0
  4 28  1  0
  5  6  2  0
  5  7  1  0
  7  8  1  0
  7 29  1  0
  7 30  1  0
  8  9  2  0
  9 10  1  0
  9 31  1  0
 10 11  1  0
 10 32  1  0
 10 33  1  0
 11 23  1  0
 11 12  1  0
 11 34  1  1
 12 13  1  0
 12 35  1  6
 13 14  1  0
 13 15  1  0
 13 36  1  6
 14 37  1  0
 15 16  1  0
 15 38  1  0
 15 39  1  0
 16 23  1  0
 16 17  1  1
 16 18  1  0
 17 40  1  0
 17 41  1  0
 17 42  1  0
 18 19  1  0
 18 20  1  0
 18 43  1  1
 19 44  1  0
 20 21  1  0
 20 22  1  0
 20 45  1  1
 21 46  1  0
 22 23  1  0
 22 47  1  0
 22 48  1  0
 23 49  1  6
M  END
>  <i_m_ct_stereo_status>  (214) 
1

>  <s_m_source_file>  (214) 
/var/tmp/pbs.5076255.sched01/tmpyqr7shjn/887d44c5qo.sdf

>  <i_m_source_file_index>  (214) 
4

>  <i_lp_mmshare_version>  (214) 
48012

>  <i_f3d_flags>  (214) 
0

>  <s_epik_input>  (214) 
W0NIXTE9W0NIXUMoPU8pW0NIMl1DKFtDQF0xMltDSDNdKT1bQ0hdW0NIMl1bQ0BASF0zW0NAQEhdMltDQEBIXShbT0hdKVtDSDJdW0NAXTQoW0NIM10pW0NASF0zW0NIMl1bQ0BIXShbT0hdKVtDQEBIXTRbT0hd

>  <s_epik_cmdline>  (214) 
J2VwaWtfcHl0aG9uJywgJy1waHQnLCAnMi4wJywgJy1waCcsICc3LjAnLCAnLXRuJywgJzgnLCAnLW1hJywgJzIwMCcsICctaW1hZScsICc8aW5maWxlLm1hZT4nLCAnLW9tYWUnLCAnPG91dGZpbGUubWFlPic=

>  <r_lp_tautomer_probability>  (214) 
1

>  <r_epik_Ionization_Penalty>  (214) 
1.16478e-06

>  <r_epik_Ionization_Penalty_Charging>  (214) 
0

>  <r_epik_Ionization_Penalty_Neutral>  (214) 
1.16478e-06

>  <r_epik_State_Penalty>  (214) 
-0

>  <r_epik_Charging_Adjusted_Penalty>  (214) 
0

>  <i_epik_Tot_Q>  (214) 
0

>  <i_epik_Tot_abs_Q>  (214) 
0

>  <s_lp_Force_Field>  (214) 
OPLS3e

>  <r_lp_Energy>  (214) 
42.5417

>  <b_lp_Chiralities_Consistent>  (214) 
1

>  <s_lp_Variant>  (214) 
66:0-1

>  <s_i_glide_gridfile>  (214) 
pfpi4k_grid

>  <i_i_glide_lignum>  (214) 
4

>  <i_i_glide_rotatable_bonds>  (214) 
3

>  <r_i_docking_score>  (214) 
-3.95526

>  <r_i_glide_ligand_efficiency>  (214) 
-0.171968

>  <r_i_glide_ligand_efficiency_sa>  (214) 
-0.489053

>  <r_i_glide_ligand_efficiency_ln>  (214) 
-0.956417

>  <r_i_glide_gscore>  (214) 
-3.95526

>  <r_i_glide_lipo>  (214) 
-0.458744

>  <r_i_glide_hbond>  (214) 
-0.305572

>  <r_i_glide_metal>  (214) 
-0

>  <r_i_glide_rewards>  (214) 
-1.49436

>  <r_i_glide_evdw>  (214) 
-26.9592

>  <r_i_glide_ecoul>  (214) 
-2.32412

>  <r_i_glide_erotb>  (214) 
0

>  <r_i_glide_esite>  (214) 
0

>  <r_i_glide_emodel>  (214) 
-35.9313

>  <r_i_glide_energy>  (214) 
-29.2833

>  <r_i_glide_einternal>  (214) 
0.0214284

>  <r_i_glide_intrahb_reward>  (214) 
-0

>  <i_i_glide_confnum>  (214) 
2

>  <i_i_glide_posenum>  (214) 
4

>  <r_i_glide_eff_state_penalty>  (214) 
0

>  <ligand_id>  (214) 
66

>  <original_smiles>  (214) 
CC12C=CC(=O)CC1=CCC1C2C(O)CC2(C)C(O)C(O)CC12

>  <smiles>  (214) 
[H]OC1([H])C([H])([H])C2([H])C3([H])C([H])([H])C([H])=C4C([H])([H])C(=O)C([H])=C([H])C4(C([H])([H])[H])C3([H])C([H])(O[H])C([H])([H])C2(C([H])([H])[H])C1([H])O[H]

$$$$
66:0:2
     RDKit          3D

 49 52  0  0  1  0  0  0  0  0999 V2000
    6.7483   -2.8399   -1.1325 C   0  0  0  0  0  0  0  0  0  0  0  0
    5.2218   -3.0613   -1.0897 C   0  0  2  0  0  0  0  0  0  0  0  0
    4.8248   -3.7295   -2.4097 C   0  0  0  0  0  0  0  0  0  0  0  0
    4.3285   -3.1186   -3.4994 C   0  0  0  0  0  0  0  0  0  0  0  0
    4.1672   -1.6682   -3.5400 C   0  0  0  0  0  0  0  0  0  0  0  0
    3.8109   -1.0765   -4.5588 O   0  0  0  0  0  0  0  0  0  0  0  0
    4.5381   -0.8437   -2.3140 C   0  0  0  0  0  0  0  0  0  0  0  0
    4.5925   -1.6615   -1.0230 C   0  0  0  0  0  0  0  0  0  0  0  0
    4.1257   -1.1474    0.1239 C   0  0  0  0  0  0  0  0  0  0  0  0
    4.1611   -1.8258    1.4757 C   0  0  0  0  0  0  0  0  0  0  0  0
    4.8155   -3.2336    1.5050 C   0  0  2  0  0  0  0  0  0  0  0  0
    4.7452   -3.9444    0.1294 C   0  0  2  0  0  0  0  0  0  0  0  0
    5.4049   -5.3423    0.2444 C   0  0  1  0  0  0  0  0  0  0  0  0
    6.7812   -5.2801    0.5580 O   0  0  0  0  0  0  0  0  0  0  0  0
    4.6596   -6.2261    1.2546 C   0  0  0  0  0  0  0  0  0  0  0  0
    4.3448   -5.6165    2.6525 C   0  0  1  0  0  0  0  0  0  0  0  0
    2.9882   -6.2541    3.0736 C   0  0  0  0  0  0  0  0  0  0  0  0
    5.3548   -5.9431    3.7884 C   0  0  1  0  0  0  0  0  0  0  0  0
    6.7015   -5.8380    3.3785 O   0  0  0  0  0  0  0  0  0  0  0  0
    5.0582   -4.8763    4.8532 C   0  0  1  0  0  0  0  0  0  0  0  0
    6.0922   -4.7092    5.8046 O   0  0  0  0  0  0  0  0  0  0  0  0
    4.7182   -3.6050    4.0621 C   0  0  0  0  0  0  0  0  0  0  0  0
    4.1856   -4.0617    2.6766 C   0  0  1  0  0  0  0  0  0  0  0  0
    7.0187   -2.1323   -1.9177 H   0  0  0  0  0  0  0  0  0  0  0  0
    7.2842   -3.7581   -1.3611 H   0  0  0  0  0  0  0  0  0  0  0  0
    7.1172   -2.4497   -0.1825 H   0  0  0  0  0  0  0  0  0  0  0  0
    4.9718   -4.7963   -2.4697 H   0  0  0  0  0  0  0  0  0  0  0  0
    4.0799   -3.6839   -4.3843 H   0  0  0  0  0  0  0  0  0  0  0  0
    5.5083   -0.3836   -2.4724 H   0  0  0  0  0  0  0  0  0  0  0  0
    3.8186   -0.0347   -2.2280 H   0  0  0  0  0  0  0  0  0  0  0  0
    3.6949   -0.1566    0.1232 H   0  0  0  0  0  0  0  0  0  0  0  0
    4.6892   -1.1669    2.1668 H   0  0  0  0  0  0  0  0  0  0  0  0
    3.1227   -1.8623    1.8086 H   0  0  0  0  0  0  0  0  0  0  0  0
    5.8764   -3.0961    1.7172 H   0  0  0  0  0  0  0  0  0  0  0  0
    3.6875   -4.1281   -0.0541 H   0  0  0  0  0  0  0  0  0  0  0  0
    5.3417   -5.8578   -0.7106 H   0  0  0  0  0  0  0  0  0  0  0  0
    7.1051   -6.1570    0.7097 H   0  0  0  0  0  0  0  0  0  0  0  0
    3.7173   -6.4891    0.7673 H   0  0  0  0  0  0  0  0  0  0  0  0
    5.1777   -7.1757    1.3738 H   0  0  0  0  0  0  0  0  0  0  0  0
    2.6256   -5.8827    4.0342 H   0  0  0  0  0  0  0  0  0  0  0  0
    3.0731   -7.3414    3.1502 H   0  0  0  0  0  0  0  0  0  0  0  0
    2.2060   -6.0358    2.3424 H   0  0  0  0  0  0  0  0  0  0  0  0
    5.2221   -6.9476    4.1919 H   0  0  0  0  0  0  0  0  0  0  0  0
    7.2532   -6.1203    4.0954 H   0  0  0  0  0  0  0  0  0  0  0  0
    4.1720   -5.1688    5.4161 H   0  0  0  0  0  0  0  0  0  0  0  0
    6.8722   -4.4172    5.3531 H   0  0  0  0  0  0  0  0  0  0  0  0
    3.9814   -3.0010    4.5922 H   0  0  0  0  0  0  0  0  0  0  0  0
    5.6034   -2.9814    3.9508 H   0  0  0  0  0  0  0  0  0  0  0  0
    3.1110   -3.8704    2.6534 H   0  0  0  0  0  0  0  0  0  0  0  0
  2  1  1  6
  1 24  1  0
  1 25  1  0
  1 26  1  0
  2  8  1  0
  2 12  1  0
  2  3  1  0
  3  4  2  0
  3 27  1  0
  4  5  1  0
  4 28  1  0
  5  6  2  0
  5  7  1  0
  7  8  1  0
  7 29  1  0
  7 30  1  0
  8  9  2  0
  9 10  1  0
  9 31  1  0
 10 11  1  0
 10 32  1  0
 10 33  1  0
 11 23  1  0
 11 12  1  0
 11 34  1  1
 12 13  1  0
 12 35  1  6
 13 14  1  0
 13 15  1  0
 13 36  1  6
 14 37  1  0
 15 16  1  0
 15 38  1  0
 15 39  1  0
 16 23  1  0
 16 17  1  1
 16 18  1  0
 17 40  1  0
 17 41  1  0
 17 42  1  0
 18 19  1  0
 18 20  1  0
 18 43  1  1
 19 44  1  0
 20 21  1  0
 20 22  1  0
 20 45  1  1
 21 46  1  0
 22 23  1  0
 22 47  1  0
 22 48  1  0
 23 49  1  1
M  END
>  <i_m_ct_stereo_status>  (215) 
1

>  <s_m_source_file>  (215) 
/var/tmp/pbs.5076255.sched01/tmpyqr7shjn/887d44c5qo.sdf

>  <i_m_source_file_index>  (215) 
4

>  <i_lp_mmshare_version>  (215) 
48012

>  <i_f3d_flags>  (215) 
0

>  <s_epik_input>  (215) 
W0NIXTE9W0NIXUMoPU8pW0NIMl1DKFtDQF0xMltDSDNdKT1bQ0hdW0NIMl1bQ0BASF0zW0NAQEhdMltDQEBIXShbT0hdKVtDSDJdW0NAXTQoW0NIM10pW0NASF0zW0NIMl1bQ0BIXShbT0hdKVtDQEBIXTRbT0hd

>  <s_epik_cmdline>  (215) 
J2VwaWtfcHl0aG9uJywgJy1waHQnLCAnMi4wJywgJy1waCcsICc3LjAnLCAnLXRuJywgJzgnLCAnLW1hJywgJzIwMCcsICctaW1hZScsICc8aW5maWxlLm1hZT4nLCAnLW9tYWUnLCAnPG91dGZpbGUubWFlPic=

>  <r_lp_tautomer_probability>  (215) 
1

>  <r_epik_Ionization_Penalty>  (215) 
1.16478e-06

>  <r_epik_Ionization_Penalty_Charging>  (215) 
0

>  <r_epik_Ionization_Penalty_Neutral>  (215) 
1.16478e-06

>  <r_epik_State_Penalty>  (215) 
-0

>  <r_epik_Charging_Adjusted_Penalty>  (215) 
0

>  <i_epik_Tot_Q>  (215) 
0

>  <i_epik_Tot_abs_Q>  (215) 
0

>  <s_lp_Force_Field>  (215) 
OPLS3e

>  <r_lp_Energy>  (215) 
42.5417

>  <b_lp_Chiralities_Consistent>  (215) 
1

>  <s_lp_Variant>  (215) 
66:0-1

>  <s_i_glide_gridfile>  (215) 
pfpi4k_grid

>  <i_i_glide_lignum>  (215) 
4

>  <i_i_glide_rotatable_bonds>  (215) 
3

>  <r_i_docking_score>  (215) 
-3.85905

>  <r_i_glide_ligand_efficiency>  (215) 
-0.167785

>  <r_i_glide_ligand_efficiency_sa>  (215) 
-0.477158

>  <r_i_glide_ligand_efficiency_ln>  (215) 
-0.933153

>  <r_i_glide_gscore>  (215) 
-3.85905

>  <r_i_glide_lipo>  (215) 
-0.477882

>  <r_i_glide_hbond>  (215) 
-0.262217

>  <r_i_glide_metal>  (215) 
-0

>  <r_i_glide_rewards>  (215) 
-1.50116

>  <r_i_glide_evdw>  (215) 
-27.6649

>  <r_i_glide_ecoul>  (215) 
-1.56364

>  <r_i_glide_erotb>  (215) 
0

>  <r_i_glide_esite>  (215) 
0

>  <r_i_glide_emodel>  (215) 
-35.4062

>  <r_i_glide_energy>  (215) 
-29.2285

>  <r_i_glide_einternal>  (215) 
0.719498

>  <r_i_glide_intrahb_reward>  (215) 
-0

>  <i_i_glide_confnum>  (215) 
1

>  <i_i_glide_posenum>  (215) 
1

>  <r_i_glide_eff_state_penalty>  (215) 
0

>  <ligand_id>  (215) 
66

>  <original_smiles>  (215) 
CC12C=CC(=O)CC1=CCC1C2C(O)CC2(C)C(O)C(O)CC12

>  <smiles>  (215) 
[H]OC1([H])C([H])([H])C2([H])C3([H])C([H])([H])C([H])=C4C([H])([H])C(=O)C([H])=C([H])C4(C([H])([H])[H])C3([H])C([H])(O[H])C([H])([H])C2(C([H])([H])[H])C1([H])O[H]

$$$$
67:0:0
     RDKit          3D

 63 69  0  0  1  0  0  0  0  0999 V2000
    3.9529   -2.9607   -2.8346 C   0  0  0  0  0  0  0  0  0  0  0  0
    4.1944   -2.8419   -1.3440 C   0  0  0  0  0  0  0  0  0  0  0  0
    3.7454   -1.7599   -0.6809 C   0  0  0  0  0  0  0  0  0  0  0  0
    3.8497   -1.4548    0.8102 C   0  0  2  0  0  0  0  0  0  0  0  0
    5.3029   -1.4005    1.2640 C   0  0  0  0  0  0  0  0  0  0  0  0
    5.6609   -2.8757    1.5603 C   0  0  2  0  0  0  0  0  0  0  0  0
    6.1044   -3.7187    0.2944 C   0  0  2  0  0  0  0  0  0  0  0  0
    6.8389   -5.0289    0.7316 C   0  0  0  0  0  0  0  0  0  0  0  0
    8.3396   -4.7629    0.7364 C   0  0  0  0  0  0  0  0  0  0  0  0
    8.5903   -3.6973   -0.3250 C   0  0  0  0  0  0  0  0  0  0  0  0
    7.2403   -3.0334   -0.4783 C   0  0  0  0  0  0  0  0  0  0  0  0
    7.0777   -2.0551   -1.2160 O   0  0  0  0  0  0  0  0  0  0  0  0
    4.9203   -4.0278   -0.6908 C   0  0  0  0  0  0  0  0  0  0  0  0
    4.3647   -3.3209    2.3183 C   0  0  1  0  0  0  0  0  0  0  0  0
    4.4157   -2.6651    3.5875 O   0  0  0  0  0  0  0  0  0  0  0  0
    3.1023   -2.5709    4.1338 C   0  0  1  0  0  0  0  0  0  0  0  0
    2.3897   -2.0019    2.8845 C   0  0  0  0  0  0  0  0  0  0  0  0
    3.1919   -2.5464    1.6807 C   0  0  1  0  0  0  0  0  0  0  0  0
    2.6382   -3.9645    4.6996 C   0  0  1  0  0  0  0  0  0  0  0  0
    1.5408   -3.8347    5.8329 C   0  0  2  0  0  0  0  0  0  0  0  0
    1.6167   -4.8294    7.0183 C   0  0  0  0  0  0  0  0  0  0  0  0
    0.7326   -5.8591    6.6186 O   0  0  0  0  0  0  0  0  0  0  0  0
   -0.0785   -5.4672    5.6623 C   0  0  0  0  0  0  0  0  0  0  0  0
   -0.9533   -6.1610    5.1414 O   0  0  0  0  0  0  0  0  0  0  0  0
    0.2664   -4.2102    5.3595 O   0  0  0  0  0  0  0  0  0  0  0  0
    1.9344   -4.6016    3.6166 O   0  0  0  0  0  0  0  0  0  0  0  0
    2.6957   -5.3087    2.6390 C   0  0  0  0  0  0  0  0  0  0  0  0
    4.1570   -4.8466    2.6099 C   0  0  2  0  0  0  0  0  0  0  0  0
    4.7885   -5.2146    3.9661 C   0  0  0  0  0  0  0  0  0  0  0  0
    3.8556   -4.8309    5.1535 C   0  0  1  0  0  0  0  0  0  0  0  0
    4.6734   -4.2419    6.3314 C   0  0  0  0  0  0  0  0  0  0  0  0
    3.3615   -3.8484   -3.0550 H   0  0  0  0  0  0  0  0  0  0  0  0
    4.8835   -3.0280   -3.3831 H   0  0  0  0  0  0  0  0  0  0  0  0
    3.3922   -2.1166   -3.2210 H   0  0  0  0  0  0  0  0  0  0  0  0
    3.2112   -0.9988   -1.2382 H   0  0  0  0  0  0  0  0  0  0  0  0
    3.3808   -0.4757    0.9471 H   0  0  0  0  0  0  0  0  0  0  0  0
    5.9449   -0.8749    0.5602 H   0  0  0  0  0  0  0  0  0  0  0  0
    5.3650   -0.8253    2.1880 H   0  0  0  0  0  0  0  0  0  0  0  0
    6.4943   -2.8893    2.2524 H   0  0  0  0  0  0  0  0  0  0  0  0
    6.5936   -5.3868    1.7274 H   0  0  0  0  0  0  0  0  0  0  0  0
    6.6113   -5.8362    0.0378 H   0  0  0  0  0  0  0  0  0  0  0  0
    8.6393   -4.3786    1.7147 H   0  0  0  0  0  0  0  0  0  0  0  0
    8.9118   -5.6796    0.5572 H   0  0  0  0  0  0  0  0  0  0  0  0
    9.3655   -2.9922   -0.0300 H   0  0  0  0  0  0  0  0  0  0  0  0
    8.8623   -4.1490   -1.2769 H   0  0  0  0  0  0  0  0  0  0  0  0
    4.1640   -4.6666   -0.2378 H   0  0  0  0  0  0  0  0  0  0  0  0
    5.3174   -4.6236   -1.5091 H   0  0  0  0  0  0  0  0  0  0  0  0
    3.1336   -1.8240    4.9294 H   0  0  0  0  0  0  0  0  0  0  0  0
    1.3381   -2.2641    2.8493 H   0  0  0  0  0  0  0  0  0  0  0  0
    2.4385   -0.9108    2.9111 H   0  0  0  0  0  0  0  0  0  0  0  0
    2.5486   -3.1646    1.0558 H   0  0  0  0  0  0  0  0  0  0  0  0
    1.5141   -2.8118    6.2046 H   0  0  0  0  0  0  0  0  0  0  0  0
    2.6090   -5.3063    7.2353 H   0  0  0  0  0  0  0  0  0  0  0  0
    1.2294   -4.3666    7.9374 H   0  0  0  0  0  0  0  0  0  0  0  0
    2.6419   -6.3691    2.8835 H   0  0  0  0  0  0  0  0  0  0  0  0
    2.2152   -5.2177    1.6701 H   0  0  0  0  0  0  0  0  0  0  0  0
    4.5741   -5.4610    1.8228 H   0  0  0  0  0  0  0  0  0  0  0  0
    4.9617   -6.3007    4.0113 H   0  0  0  0  0  0  0  0  0  0  0  0
    5.7895   -4.7684    4.0865 H   0  0  0  0  0  0  0  0  0  0  0  0
    3.4450   -5.7867    5.4516 H   0  0  0  0  0  0  0  0  0  0  0  0
    5.1927   -3.3183    6.0656 H   0  0  0  0  0  0  0  0  0  0  0  0
    5.4458   -4.9457    6.6611 H   0  0  0  0  0  0  0  0  0  0  0  0
    4.0860   -4.0069    7.2202 H   0  0  0  0  0  0  0  0  0  0  0  0
  1  2  1  0
  1 32  1  0
  1 33  1  0
  1 34  1  0
  2 13  1  0
  2  3  2  0
  3  4  1  0
  3 35  1  0
  4 18  1  0
  4  5  1  0
  4 36  1  6
  5  6  1  0
  5 37  1  0
  5 38  1  0
  6  7  1  0
  6 14  1  0
  6 39  1  1
  7 11  1  0
  7  8  1  1
  7 13  1  0
  8  9  1  0
  8 40  1  0
  8 41  1  0
  9 10  1  0
  9 42  1  0
  9 43  1  0
 10 11  1  0
 10 44  1  0
 10 45  1  0
 11 12  2  0
 13 46  1  0
 13 47  1  0
 14 18  1  0
 14 28  1  0
 14 15  1  1
 15 16  1  0
 16 17  1  0
 16 19  1  0
 16 48  1  1
 17 18  1  0
 17 49  1  0
 17 50  1  0
 18 51  1  6
 19 30  1  0
 19 20  1  0
 19 26  1  6
 20 25  1  0
 20 21  1  0
 20 52  1  1
 21 22  1  0
 21 53  1  0
 21 54  1  0
 22 23  1  0
 23 24  2  0
 23 25  1  0
 26 27  1  0
 27 28  1  0
 27 55  1  0
 27 56  1  0
 28 29  1  0
 28 57  1  6
 29 30  1  0
 29 58  1  0
 29 59  1  0
 30 31  1  0
 30 60  1  1
 31 61  1  0
 31 62  1  0
 31 63  1  0
M  END
>  <i_m_ct_stereo_status>  (216) 
1

>  <s_m_source_file>  (216) 
/var/tmp/pbs.5076255.sched01/tmpyqr7shjn/887d44c5qo.sdf

>  <i_m_source_file_index>  (216) 
5

>  <i_lp_mmshare_version>  (216) 
48012

>  <i_f3d_flags>  (216) 
0

>  <s_epik_input>  (216) 
Tz1DMVtDSDJdW0NIMl1bQ0gyXVtDQEBdMTJbQ0hdM1tDQF00NVtDQEhdKFtDQEBIXShbQ0gyXTMpW0NIXT1DKFtDSDNdKVtDSDJdMilbQ0gyXVtDQEhdKE80KVtDQEBdNihbQ0BASF03W0NIMl1PQyg9TylPNylPW0NIMl1bQ0BASF01W0NIMl1bQ0BIXTZbQ0gzXQ==

>  <s_epik_cmdline>  (216) 
J2VwaWtfcHl0aG9uJywgJy1waHQnLCAnMi4wJywgJy1waCcsICc3LjAnLCAnLXRuJywgJzgnLCAnLW1hJywgJzIwMCcsICctaW1hZScsICc8aW5maWxlLm1hZT4nLCAnLW9tYWUnLCAnPG91dGZpbGUubWFlPic=

>  <r_lp_tautomer_probability>  (216) 
1

>  <r_epik_Ionization_Penalty>  (216) 
2.75509e-12

>  <r_epik_Ionization_Penalty_Charging>  (216) 
0

>  <r_epik_Ionization_Penalty_Neutral>  (216) 
2.75509e-12

>  <r_epik_State_Penalty>  (216) 
-0

>  <r_epik_Charging_Adjusted_Penalty>  (216) 
0

>  <i_epik_Tot_Q>  (216) 
0

>  <i_epik_Tot_abs_Q>  (216) 
0

>  <s_epik_Chemistry_Notes>  (216) 
This compound has an ester and may undergo hydrolysis at high or low pH.

>  <s_lp_Force_Field>  (216) 
OPLS3e

>  <r_lp_Energy>  (216) 
45.7915

>  <b_lp_Chiralities_Consistent>  (216) 
1

>  <s_lp_Variant>  (216) 
67:0-1

>  <s_i_glide_gridfile>  (216) 
pfpi4k_grid

>  <i_i_glide_lignum>  (216) 
5

>  <i_i_glide_rotatable_bonds>  (216) 
1

>  <r_i_docking_score>  (216) 
-3.09755

>  <r_i_glide_ligand_efficiency>  (216) 
-0.0999208

>  <r_i_glide_ligand_efficiency_sa>  (216) 
-0.313889

>  <r_i_glide_ligand_efficiency_ln>  (216) 
-0.698591

>  <r_i_glide_gscore>  (216) 
-3.09755

>  <r_i_glide_lipo>  (216) 
-0.503364

>  <r_i_glide_hbond>  (216) 
-0.16

>  <r_i_glide_metal>  (216) 
-0

>  <r_i_glide_rewards>  (216) 
-0.594968

>  <r_i_glide_evdw>  (216) 
-27.6619

>  <r_i_glide_ecoul>  (216) 
-3.7366

>  <r_i_glide_erotb>  (216) 
0.108178

>  <r_i_glide_esite>  (216) 
-0.00380573

>  <r_i_glide_emodel>  (216) 
-24.827

>  <r_i_glide_energy>  (216) 
-31.3985

>  <r_i_glide_einternal>  (216) 
24.2011

>  <r_i_glide_intrahb_reward>  (216) 
-0

>  <i_i_glide_confnum>  (216) 
3

>  <i_i_glide_posenum>  (216) 
39

>  <r_i_glide_eff_state_penalty>  (216) 
0

>  <ligand_id>  (216) 
67

>  <original_smiles>  (216) 
CC1=CC2CC(C3(CCCC3=O)C1)C13OC(CC21)C1(C2COC(=O)O2)OCC3CC1C

>  <smiles>  (216) 
[H]C1=C(C([H])([H])[H])C([H])([H])C2(C(=O)C([H])([H])C([H])([H])C2([H])[H])C2([H])C([H])([H])C1([H])C1([H])C([H])([H])C3([H])OC12C1([H])C([H])([H])OC3(C2([H])OC(=O)OC2([H])[H])C([H])(C([H])([H])[H])C1([H])[H]

$$$$
67:0:1
     RDKit          3D

 63 69  0  0  1  0  0  0  0  0999 V2000
    4.2047   -1.8243   -2.4673 C   0  0  0  0  0  0  0  0  0  0  0  0
    4.3270   -2.4090   -1.0689 C   0  0  0  0  0  0  0  0  0  0  0  0
    3.4590   -2.0410   -0.1111 C   0  0  0  0  0  0  0  0  0  0  0  0
    3.3852   -2.5209    1.3277 C   0  0  2  0  0  0  0  0  0  0  0  0
    4.6747   -2.2224    2.0831 C   0  0  0  0  0  0  0  0  0  0  0  0
    5.5861   -3.4210    1.7400 C   0  0  2  0  0  0  0  0  0  0  0  0
    6.3780   -3.2853    0.3794 C   0  0  2  0  0  0  0  0  0  0  0  0
    7.5749   -4.2862    0.3244 C   0  0  0  0  0  0  0  0  0  0  0  0
    8.8363   -3.5859    0.7920 C   0  0  0  0  0  0  0  0  0  0  0  0
    8.6443   -2.1115    0.4368 C   0  0  0  0  0  0  0  0  0  0  0  0
    7.1390   -1.9533    0.3010 C   0  0  0  0  0  0  0  0  0  0  0  0
    6.6124   -0.8680    0.0743 O   0  0  0  0  0  0  0  0  0  0  0  0
    5.4589   -3.4295   -0.8850 C   0  0  0  0  0  0  0  0  0  0  0  0
    4.5775   -4.5975    1.8981 C   0  0  1  0  0  0  0  0  0  0  0  0
    4.3310   -4.7061    3.3035 O   0  0  0  0  0  0  0  0  0  0  0  0
    3.0717   -5.3261    3.5109 C   0  0  1  0  0  0  0  0  0  0  0  0
    2.2279   -4.4887    2.5361 C   0  0  0  0  0  0  0  0  0  0  0  0
    3.2062   -4.0510    1.4311 C   0  0  1  0  0  0  0  0  0  0  0  0
    3.1515   -6.8683    3.2231 C   0  0  1  0  0  0  0  0  0  0  0  0
    2.0519   -7.6755    3.9734 C   0  0  2  0  0  0  0  0  0  0  0  0
    1.7323   -9.0293    3.3144 C   0  0  0  0  0  0  0  0  0  0  0  0
    0.5923   -8.7039    2.5444 O   0  0  0  0  0  0  0  0  0  0  0  0
    0.0217   -7.5524    2.9174 C   0  0  0  0  0  0  0  0  0  0  0  0
   -1.0048   -7.0579    2.4680 O   0  0  0  0  0  0  0  0  0  0  0  0
    0.8083   -7.0088    3.8752 O   0  0  0  0  0  0  0  0  0  0  0  0
    2.8185   -7.0630    1.8424 O   0  0  0  0  0  0  0  0  0  0  0  0
    3.8459   -6.8904    0.8802 C   0  0  0  0  0  0  0  0  0  0  0  0
    5.0012   -6.0356    1.4140 C   0  0  2  0  0  0  0  0  0  0  0  0
    5.6556   -6.8455    2.5630 C   0  0  0  0  0  0  0  0  0  0  0  0
    4.5799   -7.4479    3.5182 C   0  0  1  0  0  0  0  0  0  0  0  0
    5.0312   -7.3682    4.9974 C   0  0  0  0  0  0  0  0  0  0  0  0
    4.0541   -2.6138   -3.2027 H   0  0  0  0  0  0  0  0  0  0  0  0
    5.0986   -1.2620   -2.7366 H   0  0  0  0  0  0  0  0  0  0  0  0
    3.3549   -1.1393   -2.5400 H   0  0  0  0  0  0  0  0  0  0  0  0
    2.6950   -1.3145   -0.3565 H   0  0  0  0  0  0  0  0  0  0  0  0
    2.5568   -1.9767    1.7851 H   0  0  0  0  0  0  0  0  0  0  0  0
    5.0642   -1.2323    1.8674 H   0  0  0  0  0  0  0  0  0  0  0  0
    4.4695   -2.2180    3.1540 H   0  0  0  0  0  0  0  0  0  0  0  0
    6.3349   -3.5171    2.5148 H   0  0  0  0  0  0  0  0  0  0  0  0
    7.4549   -5.1742    0.9405 H   0  0  0  0  0  0  0  0  0  0  0  0
    7.7576   -4.5821   -0.6913 H   0  0  0  0  0  0  0  0  0  0  0  0
    8.9551   -3.7779    1.8606 H   0  0  0  0  0  0  0  0  0  0  0  0
    9.7206   -4.0003    0.3162 H   0  0  0  0  0  0  0  0  0  0  0  0
    9.0854   -1.4378    1.1655 H   0  0  0  0  0  0  0  0  0  0  0  0
    9.0959   -1.9055   -0.5294 H   0  0  0  0  0  0  0  0  0  0  0  0
    5.0205   -4.4217   -0.9617 H   0  0  0  0  0  0  0  0  0  0  0  0
    6.0972   -3.3414   -1.7635 H   0  0  0  0  0  0  0  0  0  0  0  0
    2.7671   -5.1513    4.5444 H   0  0  0  0  0  0  0  0  0  0  0  0
    1.3834   -5.0410    2.1321 H   0  0  0  0  0  0  0  0  0  0  0  0
    1.8154   -3.6269    3.0594 H   0  0  0  0  0  0  0  0  0  0  0  0
    2.8908   -4.4390    0.4628 H   0  0  0  0  0  0  0  0  0  0  0  0
    2.2841   -7.7860    5.0313 H   0  0  0  0  0  0  0  0  0  0  0  0
    2.5603   -9.4014    2.7027 H   0  0  0  0  0  0  0  0  0  0  0  0
    1.4624   -9.7727    4.0646 H   0  0  0  0  0  0  0  0  0  0  0  0
    4.2189   -7.8742    0.5898 H   0  0  0  0  0  0  0  0  0  0  0  0
    3.4195   -6.4649   -0.0263 H   0  0  0  0  0  0  0  0  0  0  0  0
    5.6690   -5.9755    0.5619 H   0  0  0  0  0  0  0  0  0  0  0  0
    6.2497   -7.6623    2.1483 H   0  0  0  0  0  0  0  0  0  0  0  0
    6.3606   -6.2165    3.1128 H   0  0  0  0  0  0  0  0  0  0  0  0
    4.5364   -8.5124    3.2854 H   0  0  0  0  0  0  0  0  0  0  0  0
    5.0818   -6.3385    5.3525 H   0  0  0  0  0  0  0  0  0  0  0  0
    6.0264   -7.8025    5.1207 H   0  0  0  0  0  0  0  0  0  0  0  0
    4.3666   -7.9189    5.6644 H   0  0  0  0  0  0  0  0  0  0  0  0
  1  2  1  0
  1 32  1  0
  1 33  1  0
  1 34  1  0
  2 13  1  0
  2  3  2  0
  3  4  1  0
  3 35  1  0
  4 18  1  0
  4  5  1  0
  4 36  1  1
  5  6  1  0
  5 37  1  0
  5 38  1  0
  6  7  1  0
  6 14  1  0
  6 39  1  1
  7 11  1  0
  7  8  1  6
  7 13  1  0
  8  9  1  0
  8 40  1  0
  8 41  1  0
  9 10  1  0
  9 42  1  0
  9 43  1  0
 10 11  1  0
 10 44  1  0
 10 45  1  0
 11 12  2  0
 13 46  1  0
 13 47  1  0
 14 18  1  0
 14 28  1  0
 14 15  1  1
 15 16  1  0
 16 17  1  0
 16 19  1  0
 16 48  1  1
 17 18  1  0
 17 49  1  0
 17 50  1  0
 18 51  1  6
 19 30  1  0
 19 20  1  0
 19 26  1  6
 20 25  1  0
 20 21  1  0
 20 52  1  1
 21 22  1  0
 21 53  1  0
 21 54  1  0
 22 23  1  0
 23 24  2  0
 23 25  1  0
 26 27  1  0
 27 28  1  0
 27 55  1  0
 27 56  1  0
 28 29  1  0
 28 57  1  6
 29 30  1  0
 29 58  1  0
 29 59  1  0
 30 31  1  0
 30 60  1  6
 31 61  1  0
 31 62  1  0
 31 63  1  0
M  END
>  <i_m_ct_stereo_status>  (217) 
1

>  <s_m_source_file>  (217) 
/var/tmp/pbs.5076255.sched01/tmpyqr7shjn/887d44c5qo.sdf

>  <i_m_source_file_index>  (217) 
5

>  <i_lp_mmshare_version>  (217) 
48012

>  <i_f3d_flags>  (217) 
0

>  <s_epik_input>  (217) 
Tz1DMVtDSDJdW0NIMl1bQ0gyXVtDQEBdMTJbQ0hdM1tDQF00NVtDQEhdKFtDQEBIXShbQ0gyXTMpW0NIXT1DKFtDSDNdKVtDSDJdMilbQ0gyXVtDQEhdKE80KVtDQEBdNihbQ0BASF03W0NIMl1PQyg9TylPNylPW0NIMl1bQ0BASF01W0NIMl1bQ0BIXTZbQ0gzXQ==

>  <s_epik_cmdline>  (217) 
J2VwaWtfcHl0aG9uJywgJy1waHQnLCAnMi4wJywgJy1waCcsICc3LjAnLCAnLXRuJywgJzgnLCAnLW1hJywgJzIwMCcsICctaW1hZScsICc8aW5maWxlLm1hZT4nLCAnLW9tYWUnLCAnPG91dGZpbGUubWFlPic=

>  <r_lp_tautomer_probability>  (217) 
1

>  <r_epik_Ionization_Penalty>  (217) 
2.75509e-12

>  <r_epik_Ionization_Penalty_Charging>  (217) 
0

>  <r_epik_Ionization_Penalty_Neutral>  (217) 
2.75509e-12

>  <r_epik_State_Penalty>  (217) 
-0

>  <r_epik_Charging_Adjusted_Penalty>  (217) 
0

>  <i_epik_Tot_Q>  (217) 
0

>  <i_epik_Tot_abs_Q>  (217) 
0

>  <s_epik_Chemistry_Notes>  (217) 
This compound has an ester and may undergo hydrolysis at high or low pH.

>  <s_lp_Force_Field>  (217) 
OPLS3e

>  <r_lp_Energy>  (217) 
45.7915

>  <b_lp_Chiralities_Consistent>  (217) 
1

>  <s_lp_Variant>  (217) 
67:0-1

>  <s_i_glide_gridfile>  (217) 
pfpi4k_grid

>  <i_i_glide_lignum>  (217) 
5

>  <i_i_glide_rotatable_bonds>  (217) 
1

>  <r_i_docking_score>  (217) 
-2.93117

>  <r_i_glide_ligand_efficiency>  (217) 
-0.0945539

>  <r_i_glide_ligand_efficiency_sa>  (217) 
-0.29703

>  <r_i_glide_ligand_efficiency_ln>  (217) 
-0.661069

>  <r_i_glide_gscore>  (217) 
-2.93117

>  <r_i_glide_lipo>  (217) 
-0.675296

>  <r_i_glide_hbond>  (217) 
-0.206241

>  <r_i_glide_metal>  (217) 
-0

>  <r_i_glide_rewards>  (217) 
-0.487377

>  <r_i_glide_evdw>  (217) 
-25.2176

>  <r_i_glide_ecoul>  (217) 
-2.37475

>  <r_i_glide_erotb>  (217) 
0.108178

>  <r_i_glide_esite>  (217) 
-0.0533394

>  <r_i_glide_emodel>  (217) 
-33.0825

>  <r_i_glide_energy>  (217) 
-27.5924

>  <r_i_glide_einternal>  (217) 
0.631844

>  <r_i_glide_intrahb_reward>  (217) 
-0

>  <i_i_glide_confnum>  (217) 
4

>  <i_i_glide_posenum>  (217) 
5

>  <r_i_glide_eff_state_penalty>  (217) 
0

>  <ligand_id>  (217) 
67

>  <original_smiles>  (217) 
CC1=CC2CC(C3(CCCC3=O)C1)C13OC(CC21)C1(C2COC(=O)O2)OCC3CC1C

>  <smiles>  (217) 
[H]C1=C(C([H])([H])[H])C([H])([H])C2(C(=O)C([H])([H])C([H])([H])C2([H])[H])C2([H])C([H])([H])C1([H])C1([H])C([H])([H])C3([H])OC12C1([H])C([H])([H])OC3(C2([H])OC(=O)OC2([H])[H])C([H])(C([H])([H])[H])C1([H])[H]

$$$$
67:0:2
     RDKit          3D

 63 69  0  0  1  0  0  0  0  0999 V2000
    4.5695   -3.1073   -3.7065 C   0  0  0  0  0  0  0  0  0  0  0  0
    4.1743   -3.3484   -2.2522 C   0  0  0  0  0  0  0  0  0  0  0  0
    2.8995   -3.4288   -1.9134 C   0  0  0  0  0  0  0  0  0  0  0  0
    2.3364   -3.7593   -0.5407 C   0  0  2  0  0  0  0  0  0  0  0  0
    2.6502   -2.6831    0.4876 C   0  0  0  0  0  0  0  0  0  0  0  0
    4.0437   -3.0771    1.0097 C   0  0  2  0  0  0  0  0  0  0  0  0
    5.2184   -2.6357    0.0575 C   0  0  2  0  0  0  0  0  0  0  0  0
    6.5378   -2.6706    0.8699 C   0  0  0  0  0  0  0  0  0  0  0  0
    6.6979   -1.2774    1.4335 C   0  0  0  0  0  0  0  0  0  0  0  0
    6.0313   -0.3010    0.4957 C   0  0  0  0  0  0  0  0  0  0  0  0
    5.1131   -1.1326   -0.3299 C   0  0  0  0  0  0  0  0  0  0  0  0
    4.4608   -0.6804   -1.2621 O   0  0  0  0  0  0  0  0  0  0  0  0
    5.3412   -3.4529   -1.2741 C   0  0  0  0  0  0  0  0  0  0  0  0
    3.8600   -4.5985    1.2061 C   0  0  1  0  0  0  0  0  0  0  0  0
    3.0047   -4.6619    2.3431 O   0  0  0  0  0  0  0  0  0  0  0  0
    2.2857   -5.8741    2.2996 C   0  0  1  0  0  0  0  0  0  0  0  0
    1.8548   -5.8952    0.8332 C   0  0  0  0  0  0  0  0  0  0  0  0
    2.9048   -5.0515    0.1034 C   0  0  1  0  0  0  0  0  0  0  0  0
    3.1691   -7.1067    2.7277 C   0  0  1  0  0  0  0  0  0  0  0  0
    2.3424   -8.3313    3.2174 C   0  0  2  0  0  0  0  0  0  0  0  0
    1.4903   -9.0680    2.1716 C   0  0  0  0  0  0  0  0  0  0  0  0
    0.2201   -8.4719    2.3774 O   0  0  0  0  0  0  0  0  0  0  0  0
    0.1287   -7.8300    3.5428 C   0  0  0  0  0  0  0  0  0  0  0  0
   -0.8562   -7.3343    4.0578 O   0  0  0  0  0  0  0  0  0  0  0  0
    1.3490   -7.9028    4.1603 O   0  0  0  0  0  0  0  0  0  0  0  0
    3.8410   -7.6627    1.5971 O   0  0  0  0  0  0  0  0  0  0  0  0
    4.9510   -6.9644    1.0394 C   0  0  0  0  0  0  0  0  0  0  0  0
    5.0854   -5.5110    1.5465 C   0  0  2  0  0  0  0  0  0  0  0  0
    5.2851   -5.6076    3.0832 C   0  0  0  0  0  0  0  0  0  0  0  0
    4.3041   -6.6536    3.7259 C   0  0  1  0  0  0  0  0  0  0  0  0
    3.7812   -6.1611    5.0912 C   0  0  0  0  0  0  0  0  0  0  0  0
    5.2562   -3.8901   -4.0160 H   0  0  0  0  0  0  0  0  0  0  0  0
    5.0404   -2.1324   -3.8384 H   0  0  0  0  0  0  0  0  0  0  0  0
    3.6903   -3.1458   -4.3454 H   0  0  0  0  0  0  0  0  0  0  0  0
    2.1272   -3.3291   -2.6789 H   0  0  0  0  0  0  0  0  0  0  0  0
    1.2783   -3.8393   -0.7517 H   0  0  0  0  0  0  0  0  0  0  0  0
    2.6013   -1.6839    0.0755 H   0  0  0  0  0  0  0  0  0  0  0  0
    1.9058   -2.7131    1.2840 H   0  0  0  0  0  0  0  0  0  0  0  0
    4.1822   -2.6119    1.9871 H   0  0  0  0  0  0  0  0  0  0  0  0
    6.5584   -3.3495    1.7241 H   0  0  0  0  0  0  0  0  0  0  0  0
    7.3734   -2.8971    0.2053 H   0  0  0  0  0  0  0  0  0  0  0  0
    6.2339   -1.1950    2.4239 H   0  0  0  0  0  0  0  0  0  0  0  0
    7.7666   -1.0721    1.4951 H   0  0  0  0  0  0  0  0  0  0  0  0
    5.5935    0.5447    1.0109 H   0  0  0  0  0  0  0  0  0  0  0  0
    6.8020    0.0584   -0.1750 H   0  0  0  0  0  0  0  0  0  0  0  0
    5.5408   -4.5112   -1.1266 H   0  0  0  0  0  0  0  0  0  0  0  0
    6.2028   -3.0562   -1.7949 H   0  0  0  0  0  0  0  0  0  0  0  0
    1.4290   -5.6938    2.9654 H   0  0  0  0  0  0  0  0  0  0  0  0
    1.7572   -6.9084    0.4589 H   0  0  0  0  0  0  0  0  0  0  0  0
    0.8667   -5.4592    0.7362 H   0  0  0  0  0  0  0  0  0  0  0  0
    3.4345   -5.6283   -0.6733 H   0  0  0  0  0  0  0  0  0  0  0  0
    2.9466   -9.0320    3.7836 H   0  0  0  0  0  0  0  0  0  0  0  0
    1.8804   -8.9728    1.1442 H   0  0  0  0  0  0  0  0  0  0  0  0
    1.4368  -10.1222    2.4540 H   0  0  0  0  0  0  0  0  0  0  0  0
    5.8680   -7.4947    1.3096 H   0  0  0  0  0  0  0  0  0  0  0  0
    4.9058   -7.0245   -0.0514 H   0  0  0  0  0  0  0  0  0  0  0  0
    5.9690   -5.1280    1.0376 H   0  0  0  0  0  0  0  0  0  0  0  0
    6.3126   -5.8992    3.2713 H   0  0  0  0  0  0  0  0  0  0  0  0
    5.1636   -4.6226    3.5533 H   0  0  0  0  0  0  0  0  0  0  0  0
    4.9190   -7.5401    3.9243 H   0  0  0  0  0  0  0  0  0  0  0  0
    3.1179   -5.3067    4.9632 H   0  0  0  0  0  0  0  0  0  0  0  0
    4.5984   -5.8505    5.7433 H   0  0  0  0  0  0  0  0  0  0  0  0
    3.2238   -6.9442    5.5973 H   0  0  0  0  0  0  0  0  0  0  0  0
  1  2  1  0
  1 32  1  0
  1 33  1  0
  1 34  1  0
  2 13  1  0
  2  3  2  0
  3  4  1  0
  3 35  1  0
  4 18  1  0
  4  5  1  0
  4 36  1  6
  5  6  1  0
  5 37  1  0
  5 38  1  0
  6  7  1  0
  6 14  1  0
  6 39  1  1
  7 11  1  0
  7  8  1  1
  7 13  1  0
  8  9  1  0
  8 40  1  0
  8 41  1  0
  9 10  1  0
  9 42  1  0
  9 43  1  0
 10 11  1  0
 10 44  1  0
 10 45  1  0
 11 12  2  0
 13 46  1  0
 13 47  1  0
 14 18  1  0
 14 28  1  0
 14 15  1  1
 15 16  1  0
 16 17  1  0
 16 19  1  0
 16 48  1  1
 17 18  1  0
 17 49  1  0
 17 50  1  0
 18 51  1  6
 19 30  1  0
 19 20  1  0
 19 26  1  6
 20 25  1  0
 20 21  1  0
 20 52  1  1
 21 22  1  0
 21 53  1  0
 21 54  1  0
 22 23  1  0
 23 24  2  0
 23 25  1  0
 26 27  1  0
 27 28  1  0
 27 55  1  0
 27 56  1  0
 28 29  1  0
 28 57  1  6
 29 30  1  0
 29 58  1  0
 29 59  1  0
 30 31  1  0
 30 60  1  1
 31 61  1  0
 31 62  1  0
 31 63  1  0
M  END
>  <i_m_ct_stereo_status>  (218) 
1

>  <s_m_source_file>  (218) 
/var/tmp/pbs.5076255.sched01/tmpyqr7shjn/887d44c5qo.sdf

>  <i_m_source_file_index>  (218) 
5

>  <i_lp_mmshare_version>  (218) 
48012

>  <i_f3d_flags>  (218) 
0

>  <s_epik_input>  (218) 
Tz1DMVtDSDJdW0NIMl1bQ0gyXVtDQEBdMTJbQ0hdM1tDQF00NVtDQEhdKFtDQEBIXShbQ0gyXTMpW0NIXT1DKFtDSDNdKVtDSDJdMilbQ0gyXVtDQEhdKE80KVtDQEBdNihbQ0BASF03W0NIMl1PQyg9TylPNylPW0NIMl1bQ0BASF01W0NIMl1bQ0BIXTZbQ0gzXQ==

>  <s_epik_cmdline>  (218) 
J2VwaWtfcHl0aG9uJywgJy1waHQnLCAnMi4wJywgJy1waCcsICc3LjAnLCAnLXRuJywgJzgnLCAnLW1hJywgJzIwMCcsICctaW1hZScsICc8aW5maWxlLm1hZT4nLCAnLW9tYWUnLCAnPG91dGZpbGUubWFlPic=

>  <r_lp_tautomer_probability>  (218) 
1

>  <r_epik_Ionization_Penalty>  (218) 
2.75509e-12

>  <r_epik_Ionization_Penalty_Charging>  (218) 
0

>  <r_epik_Ionization_Penalty_Neutral>  (218) 
2.75509e-12

>  <r_epik_State_Penalty>  (218) 
-0

>  <r_epik_Charging_Adjusted_Penalty>  (218) 
0

>  <i_epik_Tot_Q>  (218) 
0

>  <i_epik_Tot_abs_Q>  (218) 
0

>  <s_epik_Chemistry_Notes>  (218) 
This compound has an ester and may undergo hydrolysis at high or low pH.

>  <s_lp_Force_Field>  (218) 
OPLS3e

>  <r_lp_Energy>  (218) 
45.7915

>  <b_lp_Chiralities_Consistent>  (218) 
1

>  <s_lp_Variant>  (218) 
67:0-1

>  <s_i_glide_gridfile>  (218) 
pfpi4k_grid

>  <i_i_glide_lignum>  (218) 
5

>  <i_i_glide_rotatable_bonds>  (218) 
1

>  <r_i_docking_score>  (218) 
-2.16827

>  <r_i_glide_ligand_efficiency>  (218) 
-0.0699441

>  <r_i_glide_ligand_efficiency_sa>  (218) 
-0.219721

>  <r_i_glide_ligand_efficiency_ln>  (218) 
-0.489011

>  <r_i_glide_gscore>  (218) 
-2.16827

>  <r_i_glide_lipo>  (218) 
-0.787781

>  <r_i_glide_hbond>  (218) 
0

>  <r_i_glide_metal>  (218) 
-0

>  <r_i_glide_rewards>  (218) 
-0.487377

>  <r_i_glide_evdw>  (218) 
-23.1157

>  <r_i_glide_ecoul>  (218) 
1.3757

>  <r_i_glide_erotb>  (218) 
0.108178

>  <r_i_glide_esite>  (218) 
-0.0518572

>  <r_i_glide_emodel>  (218) 
-22.476

>  <r_i_glide_energy>  (218) 
-21.74

>  <r_i_glide_einternal>  (218) 
4.70447

>  <r_i_glide_intrahb_reward>  (218) 
-0

>  <i_i_glide_confnum>  (218) 
4

>  <i_i_glide_posenum>  (218) 
17

>  <r_i_glide_eff_state_penalty>  (218) 
0

>  <ligand_id>  (218) 
67

>  <original_smiles>  (218) 
CC1=CC2CC(C3(CCCC3=O)C1)C13OC(CC21)C1(C2COC(=O)O2)OCC3CC1C

>  <smiles>  (218) 
[H]C1=C(C([H])([H])[H])C([H])([H])C2(C(=O)C([H])([H])C([H])([H])C2([H])[H])C2([H])C([H])([H])C1([H])C1([H])C([H])([H])C3([H])OC12C1([H])C([H])([H])OC3(C2([H])OC(=O)OC2([H])[H])C([H])(C([H])([H])[H])C1([H])[H]

$$$$
68:0:0
     RDKit          3D

 38 43  0  0  1  0  0  0  0  0999 V2000
    8.0549   -1.6086    0.4793 C   0  0  0  0  0  0  0  0  0  0  0  0
    7.4234   -1.8602   -0.7635 O   0  0  0  0  0  0  0  0  0  0  0  0
    6.5276   -2.9729   -0.7849 C   0  0  2  0  0  0  0  0  0  0  0  0
    6.2138   -3.4773   -2.4497 C   0  0  2  0  0  0  0  0  0  0  0  0
    4.6982   -3.7219   -3.4294 C   0  0  0  0  0  0  0  0  0  0  0  0
    3.0580   -3.2393   -2.9063 C   0  0  2  0  0  0  0  0  0  0  0  0
    2.9875   -1.8870   -3.5183 C   0  0  0  0  0  0  0  0  0  0  0  0
    3.9438   -1.1327   -2.9857 C   0  0  0  0  0  0  0  0  0  0  0  0
    4.7777   -1.8246   -1.8831 C   0  0  2  0  0  0  0  0  0  0  0  0
    5.0994   -3.6888   -1.9342 C   0  0  1  0  0  0  0  0  0  0  0  0
    4.5589   -4.6432   -0.8247 N   0  0  1  0  0  0  0  0  0  0  0  0
    5.3510   -5.3446    0.2901 C   0  0  0  0  0  0  0  0  0  0  0  0
    5.5057   -4.4753    1.5852 C   0  0  0  0  0  0  0  0  0  0  0  0
    5.2535   -3.1420    1.5339 C   0  0  0  0  0  0  0  0  0  0  0  0
    5.0570   -2.6693    0.1274 C   0  0  1  0  0  0  0  0  0  0  0  0
    4.0079   -1.8297   -0.6708 C   0  0  2  0  0  0  0  0  0  0  0  0
    2.9590   -2.8831   -1.2217 C   0  0  2  0  0  0  0  0  0  0  0  0
    3.7962   -3.6597   -0.1894 C   0  0  1  0  0  0  0  0  0  0  0  0
    8.7952   -0.8178    0.3654 H   0  0  0  0  0  0  0  0  0  0  0  0
    8.5801   -2.4861    0.8591 H   0  0  0  0  0  0  0  0  0  0  0  0
    7.3385   -1.2768    1.2303 H   0  0  0  0  0  0  0  0  0  0  0  0
    7.1353   -3.7602   -0.3419 H   0  0  0  0  0  0  0  0  0  0  0  0
    6.5560   -2.6471   -3.0530 H   0  0  0  0  0  0  0  0  0  0  0  0
    4.8725   -3.2282   -4.3813 H   0  0  0  0  0  0  0  0  0  0  0  0
    4.6237   -4.7555   -3.8013 H   0  0  0  0  0  0  0  0  0  0  0  0
    2.2538   -3.8584   -3.2787 H   0  0  0  0  0  0  0  0  0  0  0  0
    2.2514   -1.5934   -4.2576 H   0  0  0  0  0  0  0  0  0  0  0  0
    4.0892   -0.0873   -3.2220 H   0  0  0  0  0  0  0  0  0  0  0  0
    5.5949   -1.1079   -1.8426 H   0  0  0  0  0  0  0  0  0  0  0  0
    5.8143   -4.5562   -1.9012 H   0  0  0  0  0  0  0  0  0  0  0  0
    4.7511   -6.1937    0.5994 H   0  0  0  0  0  0  0  0  0  0  0  0
    6.3043   -5.7666   -0.0190 H   0  0  0  0  0  0  0  0  0  0  0  0
    5.7488   -4.9745    2.5120 H   0  0  0  0  0  0  0  0  0  0  0  0
    5.2935   -2.4598    2.3699 H   0  0  0  0  0  0  0  0  0  0  0  0
    3.6610   -0.8790   -0.2735 H   0  0  0  0  0  0  0  0  0  0  0  0
    1.9674   -2.6734   -0.8472 H   0  0  0  0  0  0  0  0  0  0  0  0
    3.1619   -4.0152    0.6251 H   0  0  0  0  0  0  0  0  0  0  0  0
    3.9745   -5.3210   -1.3018 H   0  0  0  0  0  0  0  0  0  0  0  0
  1  2  1  0
  1 19  1  0
  1 20  1  0
  1 21  1  0
  2  3  1  0
  3 15  1  0
  3  4  1  0
  3 22  1  1
  4 10  1  0
  4  5  1  0
  4 23  1  6
  5  6  1  0
  5 24  1  0
  5 25  1  0
  6 17  1  0
  6  7  1  0
  6 26  1  6
  7  8  2  0
  7 27  1  0
  8  9  1  0
  8 28  1  0
  9 16  1  0
  9 10  1  0
  9 29  1  1
 10 11  1  0
 10 30  1  6
 11 18  1  0
 11 12  1  0
 11 38  1  6
 12 13  1  0
 12 31  1  0
 12 32  1  0
 13 14  2  0
 13 33  1  0
 15 14  1  1
 14 34  1  0
 15 18  1  0
 15 16  1  0
 16 17  1  0
 16 35  1  1
 17 18  1  0
 17 36  1  1
 18 37  1  1
M  CHG  1  11   1
M  END
>  <i_m_ct_stereo_status>  (219) 
1

>  <s_m_source_file>  (219) 
/var/tmp/pbs.5076255.sched01/tmpyqr7shjn/887d44c5qo.sdf

>  <i_m_source_file_index>  (219) 
6

>  <i_lp_mmshare_version>  (219) 
48012

>  <i_f3d_flags>  (219) 
0

>  <s_epik_input>  (219) 
W0NAXTEyM1tDQEhdNFtDQEhdNVtDQEhdNltDQEhdKFtDQEhdMU9bQ0gzXSlbQ0gyXVtDQEhdKFtDSF09W0NIXTUpW0NASF00W0NASF0zTjZbQ0gyXVtDSF09W0NIXTI=

>  <s_epik_cmdline>  (219) 
J2VwaWtfcHl0aG9uJywgJy1waHQnLCAnMi4wJywgJy1waCcsICc3LjAnLCAnLXRuJywgJzgnLCAnLW1hJywgJzIwMCcsICctaW1hZScsICc8aW5maWxlLm1hZT4nLCAnLW9tYWUnLCAnPG91dGZpbGUubWFlPic=

>  <r_epik_Ionization_Penalty>  (219) 
0.00647429

>  <r_epik_Ionization_Penalty_Charging>  (219) 
0.00647429

>  <r_epik_Ionization_Penalty_Neutral>  (219) 
9.39589e-13

>  <r_epik_State_Penalty>  (219) 
0.00479062

>  <r_epik_Charging_Adjusted_Penalty>  (219) 
0.0112649

>  <i_epik_Tot_Q>  (219) 
1

>  <i_epik_Tot_abs_Q>  (219) 
1

>  <s_lp_Force_Field>  (219) 
OPLS3e

>  <r_lp_Energy>  (219) 
669.729

>  <b_lp_Chiralities_Consistent>  (219) 
1

>  <s_lp_Variant>  (219) 
68:0-1

>  <s_i_glide_gridfile>  (219) 
pfpi4k_grid

>  <i_i_glide_lignum>  (219) 
6

>  <i_i_glide_rotatable_bonds>  (219) 
1

>  <r_i_docking_score>  (219) 
-4.81975

>  <r_i_glide_ligand_efficiency>  (219) 
-0.267764

>  <r_i_glide_ligand_efficiency_sa>  (219) 
-0.701739

>  <r_i_glide_ligand_efficiency_ln>  (219) 
-1.23889

>  <r_i_glide_gscore>  (219) 
-4.81975

>  <r_i_glide_lipo>  (219) 
-0.815699

>  <r_i_glide_hbond>  (219) 
-0.16

>  <r_i_glide_metal>  (219) 
-0

>  <r_i_glide_rewards>  (219) 
-1.7568

>  <r_i_glide_evdw>  (219) 
-18.6738

>  <r_i_glide_ecoul>  (219) 
-7.52819

>  <r_i_glide_erotb>  (219) 
0

>  <r_i_glide_esite>  (219) 
-0.0243286

>  <r_i_glide_emodel>  (219) 
-35.284

>  <r_i_glide_energy>  (219) 
-26.202

>  <r_i_glide_einternal>  (219) 
0.264669

>  <r_i_glide_intrahb_reward>  (219) 
-0

>  <i_i_glide_confnum>  (219) 
1

>  <i_i_glide_posenum>  (219) 
2

>  <r_i_glide_eff_state_penalty>  (219) 
0

>  <ligand_id>  (219) 
68

>  <original_smiles>  (219) 
COC1C2CC3C=CC4C2N2CC=CC15C4C3C25

>  <smiles>  (219) 
[H]C1=C([H])C2([H])C3([H])C4([H])C1([H])C([H])([H])C1([H])C([H])(OC([H])([H])[H])C35C([H])=C([H])C([H])([H])[N+]([H])(C21[H])C45[H]

$$$$
68:0:1
     RDKit          3D

 38 43  0  0  1  0  0  0  0  0999 V2000
    8.2489   -2.2738    0.0104 C   0  0  0  0  0  0  0  0  0  0  0  0
    7.4185   -2.3061   -1.1686 O   0  0  0  0  0  0  0  0  0  0  0  0
    6.0001   -1.9547   -1.1420 C   0  0  2  0  0  0  0  0  0  0  0  0
    5.4793   -1.2320    0.3971 C   0  0  2  0  0  0  0  0  0  0  0  0
    4.1957   -1.6883    1.5910 C   0  0  0  0  0  0  0  0  0  0  0  0
    3.1967   -3.1475    1.5062 C   0  0  2  0  0  0  0  0  0  0  0  0
    4.0011   -4.0591    2.3808 C   0  0  0  0  0  0  0  0  0  0  0  0
    5.1782   -4.2350    1.7754 C   0  0  0  0  0  0  0  0  0  0  0  0
    5.3198   -3.5440    0.4113 C   0  0  2  0  0  0  0  0  0  0  0  0
    4.4772   -1.9038    0.0604 C   0  0  1  0  0  0  0  0  0  0  0  0
    3.4145   -1.7331   -1.0789 N   0  0  1  0  0  0  0  0  0  0  0  0
    3.5679   -1.0788   -2.4672 C   0  0  0  0  0  0  0  0  0  0  0  0
    4.1581   -2.0161   -3.5591 C   0  0  0  0  0  0  0  0  0  0  0  0
    4.7714   -3.1597   -3.1921 C   0  0  0  0  0  0  0  0  0  0  0  0
    4.9536   -3.2690   -1.7026 C   0  0  1  0  0  0  0  0  0  0  0  0
    4.6400   -4.3036   -0.5803 C   0  0  2  0  0  0  0  0  0  0  0  0
    3.2203   -3.9245   -0.0106 C   0  0  2  0  0  0  0  0  0  0  0  0
    3.3671   -3.1231   -1.3339 C   0  0  1  0  0  0  0  0  0  0  0  0
    9.2164   -2.6711   -0.2177 H   0  0  0  0  0  0  0  0  0  0  0  0
    7.8998   -2.8764    0.8408 H   0  0  0  0  0  0  0  0  0  0  0  0
    8.3092   -1.2528    0.4043 H   0  0  0  0  0  0  0  0  0  0  0  0
    6.0006   -1.1424   -1.8772 H   0  0  0  0  0  0  0  0  0  0  0  0
    6.1974   -1.4689    1.1442 H   0  0  0  0  0  0  0  0  0  0  0  0
    4.7228   -1.6764    2.5599 H   0  0  0  0  0  0  0  0  0  0  0  0
    3.5442   -0.8095    1.7865 H   0  0  0  0  0  0  0  0  0  0  0  0
    2.1731   -3.0013    1.9297 H   0  0  0  0  0  0  0  0  0  0  0  0
    3.6688   -4.4965    3.3161 H   0  0  0  0  0  0  0  0  0  0  0  0
    5.9530   -4.8384    2.1915 H   0  0  0  0  0  0  0  0  0  0  0  0
    6.3486   -3.8118    0.1846 H   0  0  0  0  0  0  0  0  0  0  0  0
    4.5079   -0.7792   -0.2869 H   0  0  0  0  0  0  0  0  0  0  0  0
    2.5478   -0.8576   -2.7827 H   0  0  0  0  0  0  0  0  0  0  0  0
    4.0608   -0.1094   -2.4339 H   0  0  0  0  0  0  0  0  0  0  0  0
    3.9906   -1.7716   -4.5820 H   0  0  0  0  0  0  0  0  0  0  0  0
    5.1636   -3.8947   -3.8720 H   0  0  0  0  0  0  0  0  0  0  0  0
    4.9949   -5.3240   -0.6875 H   0  0  0  0  0  0  0  0  0  0  0  0
    2.5686   -4.8091   -0.1061 H   0  0  0  0  0  0  0  0  0  0  0  0
    2.5963   -3.4157   -2.0645 H   0  0  0  0  0  0  0  0  0  0  0  0
    2.5040   -1.4280   -0.6829 H   0  0  0  0  0  0  0  0  0  0  0  0
  1  2  1  0
  1 19  1  0
  1 20  1  0
  1 21  1  0
  2  3  1  0
  3 15  1  0
  3  4  1  0
  3 22  1  6
  4 10  1  0
  4  5  1  0
  4 23  1  6
  5  6  1  0
  5 24  1  0
  5 25  1  0
  6 17  1  0
  6  7  1  0
  6 26  1  1
  7  8  2  0
  7 27  1  0
  8  9  1  0
  8 28  1  0
  9 16  1  0
  9 10  1  0
  9 29  1  6
 10 11  1  0
 10 30  1  1
 11 18  1  0
 11 12  1  0
 11 38  1  1
 12 13  1  0
 12 31  1  0
 12 32  1  0
 13 14  2  0
 13 33  1  0
 15 14  1  6
 14 34  1  0
 15 18  1  0
 15 16  1  0
 16 17  1  0
 16 35  1  6
 17 18  1  0
 17 36  1  6
 18 37  1  6
M  CHG  1  11   1
M  END
>  <i_m_ct_stereo_status>  (220) 
1

>  <s_m_source_file>  (220) 
/var/tmp/pbs.5076255.sched01/tmpyqr7shjn/887d44c5qo.sdf

>  <i_m_source_file_index>  (220) 
6

>  <i_lp_mmshare_version>  (220) 
48012

>  <i_f3d_flags>  (220) 
0

>  <s_epik_input>  (220) 
W0NAXTEyM1tDQEhdNFtDQEhdNVtDQEhdNltDQEhdKFtDQEhdMU9bQ0gzXSlbQ0gyXVtDQEhdKFtDSF09W0NIXTUpW0NASF00W0NASF0zTjZbQ0gyXVtDSF09W0NIXTI=

>  <s_epik_cmdline>  (220) 
J2VwaWtfcHl0aG9uJywgJy1waHQnLCAnMi4wJywgJy1waCcsICc3LjAnLCAnLXRuJywgJzgnLCAnLW1hJywgJzIwMCcsICctaW1hZScsICc8aW5maWxlLm1hZT4nLCAnLW9tYWUnLCAnPG91dGZpbGUubWFlPic=

>  <r_epik_Ionization_Penalty>  (220) 
0.00647429

>  <r_epik_Ionization_Penalty_Charging>  (220) 
0.00647429

>  <r_epik_Ionization_Penalty_Neutral>  (220) 
9.39589e-13

>  <r_epik_State_Penalty>  (220) 
0.00479062

>  <r_epik_Charging_Adjusted_Penalty>  (220) 
0.0112649

>  <i_epik_Tot_Q>  (220) 
1

>  <i_epik_Tot_abs_Q>  (220) 
1

>  <s_lp_Force_Field>  (220) 
OPLS3e

>  <r_lp_Energy>  (220) 
669.729

>  <b_lp_Chiralities_Consistent>  (220) 
1

>  <s_lp_Variant>  (220) 
68:0-1

>  <s_i_glide_gridfile>  (220) 
pfpi4k_grid

>  <i_i_glide_lignum>  (220) 
6

>  <i_i_glide_rotatable_bonds>  (220) 
1

>  <r_i_docking_score>  (220) 
-4.68262

>  <r_i_glide_ligand_efficiency>  (220) 
-0.260145

>  <r_i_glide_ligand_efficiency_sa>  (220) 
-0.681774

>  <r_i_glide_ligand_efficiency_ln>  (220) 
-1.20364

>  <r_i_glide_gscore>  (220) 
-4.68262

>  <r_i_glide_lipo>  (220) 
-0.622866

>  <r_i_glide_hbond>  (220) 
-0.36

>  <r_i_glide_metal>  (220) 
-0

>  <r_i_glide_rewards>  (220) 
-1.7568

>  <r_i_glide_evdw>  (220) 
-20.4139

>  <r_i_glide_ecoul>  (220) 
-5.5108

>  <r_i_glide_erotb>  (220) 
0

>  <r_i_glide_esite>  (220) 
-0.095636

>  <r_i_glide_emodel>  (220) 
-25.6611

>  <r_i_glide_energy>  (220) 
-25.9247

>  <r_i_glide_einternal>  (220) 
10.8797

>  <r_i_glide_intrahb_reward>  (220) 
-0

>  <i_i_glide_confnum>  (220) 
2

>  <i_i_glide_posenum>  (220) 
5

>  <r_i_glide_eff_state_penalty>  (220) 
0

>  <ligand_id>  (220) 
68

>  <original_smiles>  (220) 
COC1C2CC3C=CC4C2N2CC=CC15C4C3C25

>  <smiles>  (220) 
[H]C1=C([H])C2([H])C3([H])C4([H])C1([H])C([H])([H])C1([H])C([H])(OC([H])([H])[H])C35C([H])=C([H])C([H])([H])[N+]([H])(C21[H])C45[H]

$$$$
68:0:2
     RDKit          3D

 38 43  0  0  1  0  0  0  0  0999 V2000
    5.9762   -1.2631    2.1069 C   0  0  0  0  0  0  0  0  0  0  0  0
    6.4102   -1.7079    0.8270 O   0  0  0  0  0  0  0  0  0  0  0  0
    5.7248   -2.8603    0.3335 C   0  0  2  0  0  0  0  0  0  0  0  0
    6.2079   -3.1772   -1.3358 C   0  0  2  0  0  0  0  0  0  0  0  0
    5.2738   -3.3879   -2.8904 C   0  0  0  0  0  0  0  0  0  0  0  0
    3.5381   -3.0834   -3.0882 C   0  0  2  0  0  0  0  0  0  0  0  0
    3.5582   -1.6713   -3.5553 C   0  0  0  0  0  0  0  0  0  0  0  0
    4.1251   -0.9348   -2.6011 C   0  0  0  0  0  0  0  0  0  0  0  0
    4.4943   -1.7084   -1.3109 C   0  0  2  0  0  0  0  0  0  0  0  0
    5.0030   -3.5208   -1.3822 C   0  0  1  0  0  0  0  0  0  0  0  0
    4.1611   -4.6419   -0.7129 N   0  0  1  0  0  0  0  0  0  0  0  0
    4.4798   -5.4241    0.5626 C   0  0  0  0  0  0  0  0  0  0  0  0
    3.9680   -4.7278    1.8705 C   0  0  0  0  0  0  0  0  0  0  0  0
    3.6146   -3.4212    1.8409 C   0  0  0  0  0  0  0  0  0  0  0  0
    3.9846   -2.7872    0.5338 C   0  0  1  0  0  0  0  0  0  0  0  0
    3.2936   -1.9184   -0.5541 C   0  0  2  0  0  0  0  0  0  0  0  0
    2.6960   -2.9575   -1.6042 C   0  0  2  0  0  0  0  0  0  0  0  0
    3.0896   -3.7952   -0.3827 C   0  0  1  0  0  0  0  0  0  0  0  0
    6.6207   -0.4641    2.4674 H   0  0  0  0  0  0  0  0  0  0  0  0
    5.9993   -2.0629    2.8493 H   0  0  0  0  0  0  0  0  0  0  0  0
    4.9645   -0.8551    2.0688 H   0  0  0  0  0  0  0  0  0  0  0  0
    6.1660   -3.6316    0.9605 H   0  0  0  0  0  0  0  0  0  0  0  0
    6.6662   -2.2376   -1.6530 H   0  0  0  0  0  0  0  0  0  0  0  0
    5.7963   -2.7563   -3.5956 H   0  0  0  0  0  0  0  0  0  0  0  0
    5.4487   -4.3639   -3.3566 H   0  0  0  0  0  0  0  0  0  0  0  0
    3.0395   -3.7124   -3.8153 H   0  0  0  0  0  0  0  0  0  0  0  0
    3.1665   -1.3268   -4.5042 H   0  0  0  0  0  0  0  0  0  0  0  0
    4.2421    0.1391   -2.6548 H   0  0  0  0  0  0  0  0  0  0  0  0
    5.1226   -0.9423   -0.8582 H   0  0  0  0  0  0  0  0  0  0  0  0
    5.7797   -4.3222   -1.1108 H   0  0  0  0  0  0  0  0  0  0  0  0
    3.9069   -6.3398    0.5169 H   0  0  0  0  0  0  0  0  0  0  0  0
    5.5194   -5.7391    0.6641 H   0  0  0  0  0  0  0  0  0  0  0  0
    3.8578   -5.3229    2.7707 H   0  0  0  0  0  0  0  0  0  0  0  0
    3.2206   -2.8416    2.6686 H   0  0  0  0  0  0  0  0  0  0  0  0
    2.7392   -1.0419   -0.2344 H   0  0  0  0  0  0  0  0  0  0  0  0
    1.6212   -2.8605   -1.6858 H   0  0  0  0  0  0  0  0  0  0  0  0
    2.2197   -4.2838    0.0433 H   0  0  0  0  0  0  0  0  0  0  0  0
    3.8741   -5.2851   -1.4329 H   0  0  0  0  0  0  0  0  0  0  0  0
  1  2  1  0
  1 19  1  0
  1 20  1  0
  1 21  1  0
  2  3  1  0
  3 15  1  0
  3  4  1  0
  3 22  1  1
  4 10  1  0
  4  5  1  0
  4 23  1  6
  5  6  1  0
  5 24  1  0
  5 25  1  0
  6 17  1  0
  6  7  1  0
  6 26  1  6
  7  8  2  0
  7 27  1  0
  8  9  1  0
  8 28  1  0
  9 16  1  0
  9 10  1  0
  9 29  1  1
 10 11  1  0
 10 30  1  6
 11 18  1  0
 11 12  1  0
 11 38  1  6
 12 13  1  0
 12 31  1  0
 12 32  1  0
 13 14  2  0
 13 33  1  0
 15 14  1  1
 14 34  1  0
 15 18  1  0
 15 16  1  0
 16 17  1  0
 16 35  1  1
 17 18  1  0
 17 36  1  6
 18 37  1  1
M  CHG  1  11   1
M  END
>  <i_m_ct_stereo_status>  (221) 
1

>  <s_m_source_file>  (221) 
/var/tmp/pbs.5076255.sched01/tmpyqr7shjn/887d44c5qo.sdf

>  <i_m_source_file_index>  (221) 
6

>  <i_lp_mmshare_version>  (221) 
48012

>  <i_f3d_flags>  (221) 
0

>  <s_epik_input>  (221) 
W0NAXTEyM1tDQEhdNFtDQEhdNVtDQEhdNltDQEhdKFtDQEhdMU9bQ0gzXSlbQ0gyXVtDQEhdKFtDSF09W0NIXTUpW0NASF00W0NASF0zTjZbQ0gyXVtDSF09W0NIXTI=

>  <s_epik_cmdline>  (221) 
J2VwaWtfcHl0aG9uJywgJy1waHQnLCAnMi4wJywgJy1waCcsICc3LjAnLCAnLXRuJywgJzgnLCAnLW1hJywgJzIwMCcsICctaW1hZScsICc8aW5maWxlLm1hZT4nLCAnLW9tYWUnLCAnPG91dGZpbGUubWFlPic=

>  <r_epik_Ionization_Penalty>  (221) 
0.00647429

>  <r_epik_Ionization_Penalty_Charging>  (221) 
0.00647429

>  <r_epik_Ionization_Penalty_Neutral>  (221) 
9.39589e-13

>  <r_epik_State_Penalty>  (221) 
0.00479062

>  <r_epik_Charging_Adjusted_Penalty>  (221) 
0.0112649

>  <i_epik_Tot_Q>  (221) 
1

>  <i_epik_Tot_abs_Q>  (221) 
1

>  <s_lp_Force_Field>  (221) 
OPLS3e

>  <r_lp_Energy>  (221) 
669.729

>  <b_lp_Chiralities_Consistent>  (221) 
1

>  <s_lp_Variant>  (221) 
68:0-1

>  <s_i_glide_gridfile>  (221) 
pfpi4k_grid

>  <i_i_glide_lignum>  (221) 
6

>  <i_i_glide_rotatable_bonds>  (221) 
1

>  <r_i_docking_score>  (221) 
-4.3723

>  <r_i_glide_ligand_efficiency>  (221) 
-0.242906

>  <r_i_glide_ligand_efficiency_sa>  (221) 
-0.636593

>  <r_i_glide_ligand_efficiency_ln>  (221) 
-1.12388

>  <r_i_glide_gscore>  (221) 
-4.3723

>  <r_i_glide_lipo>  (221) 
-0.911016

>  <r_i_glide_hbond>  (221) 
0

>  <r_i_glide_metal>  (221) 
-0

>  <r_i_glide_rewards>  (221) 
-1.7568

>  <r_i_glide_evdw>  (221) 
-18.5257

>  <r_i_glide_ecoul>  (221) 
-4.91982

>  <r_i_glide_erotb>  (221) 
0

>  <r_i_glide_esite>  (221) 
-0.0402263

>  <r_i_glide_emodel>  (221) 
-31.4442

>  <r_i_glide_energy>  (221) 
-23.4455

>  <r_i_glide_einternal>  (221) 
0.44019

>  <r_i_glide_intrahb_reward>  (221) 
-0

>  <i_i_glide_confnum>  (221) 
1

>  <i_i_glide_posenum>  (221) 
14

>  <r_i_glide_eff_state_penalty>  (221) 
0

>  <ligand_id>  (221) 
68

>  <original_smiles>  (221) 
COC1C2CC3C=CC4C2N2CC=CC15C4C3C25

>  <smiles>  (221) 
[H]C1=C([H])C2([H])C3([H])C4([H])C1([H])C([H])([H])C1([H])C([H])(OC([H])([H])[H])C35C([H])=C([H])C([H])([H])[N+]([H])(C21[H])C45[H]

$$$$
69:0:0
     RDKit          3D

 49 52  0  0  1  0  0  0  0  0999 V2000
    4.1641   -4.5741    4.3737 C   0  0  0  0  0  0  0  0  0  0  0  0
    2.7940   -4.0326    3.9053 C   0  0  2  0  0  0  0  0  0  0  0  0
    2.1972   -4.8945    2.7811 C   0  0  0  0  0  0  0  0  0  0  0  0
    3.0492   -4.8697    1.4997 C   0  0  0  0  0  0  0  0  0  0  0  0
    3.6987   -3.4939    1.1605 C   0  0  2  0  0  0  0  0  0  0  0  0
    3.0594   -2.3010    1.9229 C   0  0  2  0  0  0  0  0  0  0  0  0
    3.9154   -1.0297    1.7267 C   0  0  0  0  0  0  0  0  0  0  0  0
    4.3818   -0.8451    0.3023 C   0  0  0  0  0  0  0  0  0  0  0  0
    4.3697   -1.8008   -0.6453 C   0  0  0  0  0  0  0  0  0  0  0  0
    4.6673   -1.4589   -2.0978 C   0  0  0  0  0  0  0  0  0  0  0  0
    3.3965   -1.6634   -2.9393 C   0  0  1  0  0  0  0  0  0  0  0  0
    3.6868   -1.4737   -4.3136 O   0  0  0  0  0  0  0  0  0  0  0  0
    2.7775   -3.0537   -2.7309 C   0  0  0  0  0  0  0  0  0  0  0  0
    2.6199   -3.4371   -1.2357 C   0  0  0  0  0  0  0  0  0  0  0  0
    3.9109   -3.2437   -0.3837 C   0  0  2  0  0  0  0  0  0  0  0  0
    5.0008   -4.2435   -0.8543 C   0  0  0  0  0  0  0  0  0  0  0  0
    2.8464   -2.5497    3.4562 C   0  0  1  0  0  0  0  0  0  0  0  0
    1.5481   -1.8998    3.9958 C   0  0  0  0  0  0  0  0  0  0  0  0
    1.1928   -2.6395    5.2876 C   0  0  0  0  0  0  0  0  0  0  0  0
    1.8407   -3.9958    5.1030 C   0  0  0  0  0  0  0  0  0  0  0  0
    1.6228   -4.9536    5.8450 O   0  0  0  0  0  0  0  0  0  0  0  0
    4.9435   -4.4309    3.6290 H   0  0  0  0  0  0  0  0  0  0  0  0
    4.1136   -5.6430    4.5844 H   0  0  0  0  0  0  0  0  0  0  0  0
    4.5030   -4.0830    5.2868 H   0  0  0  0  0  0  0  0  0  0  0  0
    2.0570   -5.9274    3.1116 H   0  0  0  0  0  0  0  0  0  0  0  0
    1.2010   -4.5170    2.5401 H   0  0  0  0  0  0  0  0  0  0  0  0
    3.8535   -5.6027    1.5959 H   0  0  0  0  0  0  0  0  0  0  0  0
    2.4241   -5.2501    0.6959 H   0  0  0  0  0  0  0  0  0  0  0  0
    4.7031   -3.5418    1.5818 H   0  0  0  0  0  0  0  0  0  0  0  0
    2.0861   -2.1256    1.4613 H   0  0  0  0  0  0  0  0  0  0  0  0
    3.3337   -0.1513    2.0131 H   0  0  0  0  0  0  0  0  0  0  0  0
    4.8048   -1.0458    2.3592 H   0  0  0  0  0  0  0  0  0  0  0  0
    4.6989    0.1506    0.0478 H   0  0  0  0  0  0  0  0  0  0  0  0
    5.0027   -0.4241   -2.1846 H   0  0  0  0  0  0  0  0  0  0  0  0
    5.4832   -2.0759   -2.4714 H   0  0  0  0  0  0  0  0  0  0  0  0
    2.6647   -0.9047   -2.6435 H   0  0  0  0  0  0  0  0  0  0  0  0
    2.8650   -1.4575   -4.7879 H   0  0  0  0  0  0  0  0  0  0  0  0
    1.8001   -3.0899   -3.2132 H   0  0  0  0  0  0  0  0  0  0  0  0
    3.3794   -3.8096   -3.2410 H   0  0  0  0  0  0  0  0  0  0  0  0
    1.8263   -2.8331   -0.8078 H   0  0  0  0  0  0  0  0  0  0  0  0
    2.2543   -4.4571   -1.1939 H   0  0  0  0  0  0  0  0  0  0  0  0
    4.7049   -5.2750   -0.6624 H   0  0  0  0  0  0  0  0  0  0  0  0
    5.9498   -4.0698   -0.3434 H   0  0  0  0  0  0  0  0  0  0  0  0
    5.1977   -4.1881   -1.9250 H   0  0  0  0  0  0  0  0  0  0  0  0
    3.6742   -2.0980    4.0099 H   0  0  0  0  0  0  0  0  0  0  0  0
    1.6674   -0.8281    4.1651 H   0  0  0  0  0  0  0  0  0  0  0  0
    0.7233   -2.0320    3.2903 H   0  0  0  0  0  0  0  0  0  0  0  0
    1.6390   -2.1591    6.1568 H   0  0  0  0  0  0  0  0  0  0  0  0
    0.1191   -2.7235    5.4517 H   0  0  0  0  0  0  0  0  0  0  0  0
  2  1  1  1
  1 22  1  0
  1 23  1  0
  1 24  1  0
  2 17  1  0
  2 20  1  0
  2  3  1  0
  3  4  1  0
  3 25  1  0
  3 26  1  0
  4  5  1  0
  4 27  1  0
  4 28  1  0
  5 15  1  0
  5  6  1  0
  5 29  1  1
  6  7  1  0
  6 17  1  0
  6 30  1  6
  7  8  1  0
  7 31  1  0
  7 32  1  0
  8  9  2  0
  8 33  1  0
  9 15  1  0
  9 10  1  0
 10 11  1  0
 10 34  1  0
 10 35  1  0
 11 12  1  0
 11 13  1  0
 11 36  1  1
 12 37  1  0
 13 14  1  0
 13 38  1  0
 13 39  1  0
 14 15  1  0
 14 40  1  0
 14 41  1  0
 15 16  1  6
 16 42  1  0
 16 43  1  0
 16 44  1  0
 17 18  1  0
 17 45  1  1
 18 19  1  0
 18 46  1  0
 18 47  1  0
 19 20  1  0
 19 48  1  0
 19 49  1  0
 20 21  2  0
M  END
>  <i_m_ct_stereo_status>  (222) 
1

>  <s_m_source_file>  (222) 
/var/tmp/pbs.5076255.sched01/tmpyqr7shjn/887d44c5qo.sdf

>  <i_m_source_file_index>  (222) 
7

>  <i_lp_mmshare_version>  (222) 
48012

>  <i_f3d_flags>  (222) 
0

>  <s_epik_input>  (222) 
Tz1DMVtDSDJdW0NIMl1bQ0BASF0oW0NAQF0xMltDSDNdKVtDQEBIXTNbQ0BASF0oW0NIMl1bQ0gyXTIpW0NAXTQoW0NIM10pQyg9W0NIXVtDSDJdMylbQ0gyXVtDQEBIXShbT0hdKVtDSDJdW0NIMl00

>  <s_epik_cmdline>  (222) 
J2VwaWtfcHl0aG9uJywgJy1waHQnLCAnMi4wJywgJy1waCcsICc3LjAnLCAnLXRuJywgJzgnLCAnLW1hJywgJzIwMCcsICctaW1hZScsICc8aW5maWxlLm1hZT4nLCAnLW9tYWUnLCAnPG91dGZpbGUubWFlPic=

>  <r_lp_tautomer_probability>  (222) 
1

>  <r_epik_Ionization_Penalty>  (222) 
1.21648e-06

>  <r_epik_Ionization_Penalty_Charging>  (222) 
0

>  <r_epik_Ionization_Penalty_Neutral>  (222) 
1.21648e-06

>  <r_epik_State_Penalty>  (222) 
-0

>  <r_epik_Charging_Adjusted_Penalty>  (222) 
0

>  <i_epik_Tot_Q>  (222) 
0

>  <i_epik_Tot_abs_Q>  (222) 
0

>  <s_lp_Force_Field>  (222) 
OPLS3e

>  <r_lp_Energy>  (222) 
25.0343

>  <b_lp_Chiralities_Consistent>  (222) 
1

>  <s_lp_Variant>  (222) 
69:0-1

>  <s_i_glide_gridfile>  (222) 
pfpi4k_grid

>  <i_i_glide_lignum>  (222) 
7

>  <i_i_glide_rotatable_bonds>  (222) 
1

>  <r_i_docking_score>  (222) 
-3.91688

>  <r_i_glide_ligand_efficiency>  (222) 
-0.186518

>  <r_i_glide_ligand_efficiency_sa>  (222) 
-0.51459

>  <r_i_glide_ligand_efficiency_ln>  (222) 
-0.968441

>  <r_i_glide_gscore>  (222) 
-3.91688

>  <r_i_glide_lipo>  (222) 
-0.146143

>  <r_i_glide_hbond>  (222) 
-0.389977

>  <r_i_glide_metal>  (222) 
-0

>  <r_i_glide_rewards>  (222) 
-1.4439

>  <r_i_glide_evdw>  (222) 
-24.8632

>  <r_i_glide_ecoul>  (222) 
-4.62473

>  <r_i_glide_erotb>  (222) 
0

>  <r_i_glide_esite>  (222) 
0

>  <r_i_glide_emodel>  (222) 
-36.2199

>  <r_i_glide_energy>  (222) 
-29.4879

>  <r_i_glide_einternal>  (222) 
0.341557

>  <r_i_glide_intrahb_reward>  (222) 
-0

>  <i_i_glide_confnum>  (222) 
2

>  <i_i_glide_posenum>  (222) 
35

>  <r_i_glide_eff_state_penalty>  (222) 
0

>  <ligand_id>  (222) 
69

>  <original_smiles>  (222) 
CC12CCC3C(CC=C4CC(O)CCC43C)C1CCC2=O

>  <smiles>  (222) 
[H]OC1([H])C([H])([H])C2=C([H])C([H])([H])C3([H])C4([H])C([H])([H])C([H])([H])C(=O)C4(C([H])([H])[H])C([H])([H])C([H])([H])C3([H])C2(C([H])([H])[H])C([H])([H])C1([H])[H]

$$$$
69:0:1
     RDKit          3D

 49 52  0  0  1  0  0  0  0  0999 V2000
    4.4585   -5.1414    3.5242 C   0  0  0  0  0  0  0  0  0  0  0  0
    3.0461   -4.6155    3.1881 C   0  0  2  0  0  0  0  0  0  0  0  0
    2.4506   -5.3198    1.9593 C   0  0  0  0  0  0  0  0  0  0  0  0
    3.2506   -5.0434    0.6737 C   0  0  0  0  0  0  0  0  0  0  0  0
    3.8108   -3.5934    0.5419 C   0  0  2  0  0  0  0  0  0  0  0  0
    3.1426   -2.5774    1.5057 C   0  0  2  0  0  0  0  0  0  0  0  0
    3.9229   -1.2443    1.4916 C   0  0  0  0  0  0  0  0  0  0  0  0
    4.3249   -0.8065    0.1030 C   0  0  0  0  0  0  0  0  0  0  0  0
    4.3235   -1.5983   -0.9839 C   0  0  0  0  0  0  0  0  0  0  0  0
    4.5532   -1.0240   -2.3739 C   0  0  0  0  0  0  0  0  0  0  0  0
    3.2704   -1.1704   -3.2058 C   0  0  1  0  0  0  0  0  0  0  0  0
    3.5043   -0.7683   -4.5429 O   0  0  0  0  0  0  0  0  0  0  0  0
    2.7297   -2.6103   -3.2044 C   0  0  0  0  0  0  0  0  0  0  0  0
    2.6388   -3.2117   -1.7840 C   0  0  0  0  0  0  0  0  0  0  0  0
    3.9489   -3.0851   -0.9455 C   0  0  2  0  0  0  0  0  0  0  0  0
    5.0712   -3.9277   -1.6028 C   0  0  0  0  0  0  0  0  0  0  0  0
    3.0020   -3.0783    2.9837 C   0  0  1  0  0  0  0  0  0  0  0  0
    1.6936   -2.5953    3.6569 C   0  0  0  0  0  0  0  0  0  0  0  0
    1.4270   -3.5483    4.8222 C   0  0  0  0  0  0  0  0  0  0  0  0
    2.1361   -4.8215    4.4043 C   0  0  0  0  0  0  0  0  0  0  0  0
    1.9980   -5.8942    4.9886 O   0  0  0  0  0  0  0  0  0  0  0  0
    5.2008   -4.8370    2.7901 H   0  0  0  0  0  0  0  0  0  0  0  0
    4.4722   -6.2297    3.5629 H   0  0  0  0  0  0  0  0  0  0  0  0
    4.8056   -4.7813    4.4940 H   0  0  0  0  0  0  0  0  0  0  0  0
    2.3804   -6.3981    2.1241 H   0  0  0  0  0  0  0  0  0  0  0  0
    1.4272   -4.9734    1.8148 H   0  0  0  0  0  0  0  0  0  0  0  0
    4.0960   -5.7334    0.6265 H   0  0  0  0  0  0  0  0  0  0  0  0
    2.6187   -5.3247   -0.1653 H   0  0  0  0  0  0  0  0  0  0  0  0
    4.8336   -3.6516    0.9183 H   0  0  0  0  0  0  0  0  0  0  0  0
    2.1461   -2.3870    1.1033 H   0  0  0  0  0  0  0  0  0  0  0  0
    3.3075   -0.4584    1.9300 H   0  0  0  0  0  0  0  0  0  0  0  0
    4.8363   -1.3093    2.0860 H   0  0  0  0  0  0  0  0  0  0  0  0
    4.5843    0.2351    0.0132 H   0  0  0  0  0  0  0  0  0  0  0  0
    4.8258    0.0290   -2.3145 H   0  0  0  0  0  0  0  0  0  0  0  0
    5.3876   -1.5322   -2.8501 H   0  0  0  0  0  0  0  0  0  0  0  0
    2.5214   -0.5049   -2.7733 H   0  0  0  0  0  0  0  0  0  0  0  0
    2.6828   -0.8182   -5.0133 H   0  0  0  0  0  0  0  0  0  0  0  0
    1.7388   -2.6280   -3.6609 H   0  0  0  0  0  0  0  0  0  0  0  0
    3.3513   -3.2432   -3.8384 H   0  0  0  0  0  0  0  0  0  0  0  0
    1.8294   -2.7216   -1.2509 H   0  0  0  0  0  0  0  0  0  0  0  0
    2.3197   -4.2414   -1.9004 H   0  0  0  0  0  0  0  0  0  0  0  0
    4.8447   -4.9935   -1.5596 H   0  0  0  0  0  0  0  0  0  0  0  0
    6.0278   -3.7813   -1.0992 H   0  0  0  0  0  0  0  0  0  0  0  0
    5.2261   -3.7008   -2.6562 H   0  0  0  0  0  0  0  0  0  0  0  0
    3.8263   -2.6722    3.5751 H   0  0  0  0  0  0  0  0  0  0  0  0
    1.7636   -1.5592    3.9918 H   0  0  0  0  0  0  0  0  0  0  0  0
    0.8521   -2.6591    2.9648 H   0  0  0  0  0  0  0  0  0  0  0  0
    1.8794   -3.1890    5.7459 H   0  0  0  0  0  0  0  0  0  0  0  0
    0.3657   -3.7210    5.0018 H   0  0  0  0  0  0  0  0  0  0  0  0
  2  1  1  1
  1 22  1  0
  1 23  1  0
  1 24  1  0
  2 17  1  0
  2 20  1  0
  2  3  1  0
  3  4  1  0
  3 25  1  0
  3 26  1  0
  4  5  1  0
  4 27  1  0
  4 28  1  0
  5 15  1  0
  5  6  1  0
  5 29  1  1
  6  7  1  0
  6 17  1  0
  6 30  1  6
  7  8  1  0
  7 31  1  0
  7 32  1  0
  8  9  2  0
  8 33  1  0
  9 15  1  0
  9 10  1  0
 10 11  1  0
 10 34  1  0
 10 35  1  0
 11 12  1  0
 11 13  1  0
 11 36  1  1
 12 37  1  0
 13 14  1  0
 13 38  1  0
 13 39  1  0
 14 15  1  0
 14 40  1  0
 14 41  1  0
 15 16  1  6
 16 42  1  0
 16 43  1  0
 16 44  1  0
 17 18  1  0
 17 45  1  1
 18 19  1  0
 18 46  1  0
 18 47  1  0
 19 20  1  0
 19 48  1  0
 19 49  1  0
 20 21  2  0
M  END
>  <i_m_ct_stereo_status>  (223) 
1

>  <s_m_source_file>  (223) 
/var/tmp/pbs.5076255.sched01/tmpyqr7shjn/887d44c5qo.sdf

>  <i_m_source_file_index>  (223) 
7

>  <i_lp_mmshare_version>  (223) 
48012

>  <i_f3d_flags>  (223) 
0

>  <s_epik_input>  (223) 
Tz1DMVtDSDJdW0NIMl1bQ0BASF0oW0NAQF0xMltDSDNdKVtDQEBIXTNbQ0BASF0oW0NIMl1bQ0gyXTIpW0NAXTQoW0NIM10pQyg9W0NIXVtDSDJdMylbQ0gyXVtDQEBIXShbT0hdKVtDSDJdW0NIMl00

>  <s_epik_cmdline>  (223) 
J2VwaWtfcHl0aG9uJywgJy1waHQnLCAnMi4wJywgJy1waCcsICc3LjAnLCAnLXRuJywgJzgnLCAnLW1hJywgJzIwMCcsICctaW1hZScsICc8aW5maWxlLm1hZT4nLCAnLW9tYWUnLCAnPG91dGZpbGUubWFlPic=

>  <r_lp_tautomer_probability>  (223) 
1

>  <r_epik_Ionization_Penalty>  (223) 
1.21648e-06

>  <r_epik_Ionization_Penalty_Charging>  (223) 
0

>  <r_epik_Ionization_Penalty_Neutral>  (223) 
1.21648e-06

>  <r_epik_State_Penalty>  (223) 
-0

>  <r_epik_Charging_Adjusted_Penalty>  (223) 
0

>  <i_epik_Tot_Q>  (223) 
0

>  <i_epik_Tot_abs_Q>  (223) 
0

>  <s_lp_Force_Field>  (223) 
OPLS3e

>  <r_lp_Energy>  (223) 
25.0343

>  <b_lp_Chiralities_Consistent>  (223) 
1

>  <s_lp_Variant>  (223) 
69:0-1

>  <s_i_glide_gridfile>  (223) 
pfpi4k_grid

>  <i_i_glide_lignum>  (223) 
7

>  <i_i_glide_rotatable_bonds>  (223) 
1

>  <r_i_docking_score>  (223) 
-3.74285

>  <r_i_glide_ligand_efficiency>  (223) 
-0.178231

>  <r_i_glide_ligand_efficiency_sa>  (223) 
-0.491725

>  <r_i_glide_ligand_efficiency_ln>  (223) 
-0.925411

>  <r_i_glide_gscore>  (223) 
-3.74285

>  <r_i_glide_lipo>  (223) 
-0.289525

>  <r_i_glide_hbond>  (223) 
-0.12742

>  <r_i_glide_metal>  (223) 
-0

>  <r_i_glide_rewards>  (223) 
-1.44256

>  <r_i_glide_evdw>  (223) 
-25.4887

>  <r_i_glide_ecoul>  (223) 
-4.05938

>  <r_i_glide_erotb>  (223) 
0

>  <r_i_glide_esite>  (223) 
0

>  <r_i_glide_emodel>  (223) 
-35.9785

>  <r_i_glide_energy>  (223) 
-29.5481

>  <r_i_glide_einternal>  (223) 
0.341126

>  <r_i_glide_intrahb_reward>  (223) 
-0

>  <i_i_glide_confnum>  (223) 
2

>  <i_i_glide_posenum>  (223) 
28

>  <r_i_glide_eff_state_penalty>  (223) 
0

>  <ligand_id>  (223) 
69

>  <original_smiles>  (223) 
CC12CCC3C(CC=C4CC(O)CCC43C)C1CCC2=O

>  <smiles>  (223) 
[H]OC1([H])C([H])([H])C2=C([H])C([H])([H])C3([H])C4([H])C([H])([H])C([H])([H])C(=O)C4(C([H])([H])[H])C([H])([H])C([H])([H])C3([H])C2(C([H])([H])[H])C([H])([H])C1([H])[H]

$$$$
69:0:2
     RDKit          3D

 49 52  0  0  1  0  0  0  0  0999 V2000
    4.2444   -5.3360    3.5219 C   0  0  0  0  0  0  0  0  0  0  0  0
    2.8513   -4.7849    3.1492 C   0  0  2  0  0  0  0  0  0  0  0  0
    2.3032   -5.4476    1.8765 C   0  0  0  0  0  0  0  0  0  0  0  0
    3.1485   -5.1335    0.6297 C   0  0  0  0  0  0  0  0  0  0  0  0
    3.7263   -3.6878    0.5671 C   0  0  2  0  0  0  0  0  0  0  0  0
    3.0315   -2.6942    1.5362 C   0  0  2  0  0  0  0  0  0  0  0  0
    3.8239   -1.3671    1.5922 C   0  0  0  0  0  0  0  0  0  0  0  0
    4.2825   -0.8870    0.2327 C   0  0  0  0  0  0  0  0  0  0  0  0
    4.3151   -1.6488   -0.8753 C   0  0  0  0  0  0  0  0  0  0  0  0
    4.6014   -1.0324   -2.2364 C   0  0  0  0  0  0  0  0  0  0  0  0
    3.3525   -1.1339   -3.1181 C   0  0  1  0  0  0  0  0  0  0  0  0
    3.6519   -0.6551   -4.4129 O   0  0  0  0  0  0  0  0  0  0  0  0
    2.8012   -2.5705   -3.1888 C   0  0  0  0  0  0  0  0  0  0  0  0
    2.6460   -3.2107   -1.7886 C   0  0  0  0  0  0  0  0  0  0  0  0
    3.9245   -3.1326   -0.8987 C   0  0  2  0  0  0  0  0  0  0  0  0
    5.0617   -3.9678   -1.5373 C   0  0  0  0  0  0  0  0  0  0  0  0
    2.8283   -3.2423    2.9914 C   0  0  1  0  0  0  0  0  0  0  0  0
    1.5000   -2.7661    3.6284 C   0  0  0  0  0  0  0  0  0  0  0  0
    1.1776   -3.7537    4.7513 C   0  0  0  0  0  0  0  0  0  0  0  0
    1.8908   -5.0186    4.3189 C   0  0  0  0  0  0  0  0  0  0  0  0
    1.7162   -6.1077    4.8636 O   0  0  0  0  0  0  0  0  0  0  0  0
    5.0153   -5.0168    2.8252 H   0  0  0  0  0  0  0  0  0  0  0  0
    4.2454   -6.4257    3.5257 H   0  0  0  0  0  0  0  0  0  0  0  0
    4.5568   -5.0107    4.5146 H   0  0  0  0  0  0  0  0  0  0  0  0
    2.2147   -6.5297    2.0029 H   0  0  0  0  0  0  0  0  0  0  0  0
    1.2922   -5.0829    1.7059 H   0  0  0  0  0  0  0  0  0  0  0  0
    3.9875   -5.8309    0.5884 H   0  0  0  0  0  0  0  0  0  0  0  0
    2.5464   -5.3803   -0.2399 H   0  0  0  0  0  0  0  0  0  0  0  0
    4.7329   -3.7672    0.9790 H   0  0  0  0  0  0  0  0  0  0  0  0
    2.0527   -2.4809    1.1023 H   0  0  0  0  0  0  0  0  0  0  0  0
    3.1982   -0.5906    2.0346 H   0  0  0  0  0  0  0  0  0  0  0  0
    4.7124   -1.4626    2.2196 H   0  0  0  0  0  0  0  0  0  0  0  0
    4.5512    0.1533    0.1758 H   0  0  0  0  0  0  0  0  0  0  0  0
    4.8869    0.0123   -2.1307 H   0  0  0  0  0  0  0  0  0  0  0  0
    5.4377   -1.5399   -2.7091 H   0  0  0  0  0  0  0  0  0  0  0  0
    2.5809   -0.4874   -2.6999 H   0  0  0  0  0  0  0  0  0  0  0  0
    3.5053    0.2797   -4.4178 H   0  0  0  0  0  0  0  0  0  0  0  0
    1.8278   -2.5557   -3.6836 H   0  0  0  0  0  0  0  0  0  0  0  0
    3.4411   -3.1885   -3.8164 H   0  0  0  0  0  0  0  0  0  0  0  0
    1.8253   -2.7213   -1.2732 H   0  0  0  0  0  0  0  0  0  0  0  0
    2.3123   -4.2303   -1.9396 H   0  0  0  0  0  0  0  0  0  0  0  0
    4.8230   -5.0303   -1.5361 H   0  0  0  0  0  0  0  0  0  0  0  0
    6.0001   -3.8480   -0.9948 H   0  0  0  0  0  0  0  0  0  0  0  0
    5.2608   -3.7099   -2.5764 H   0  0  0  0  0  0  0  0  0  0  0  0
    3.6316   -2.8625    3.6262 H   0  0  0  0  0  0  0  0  0  0  0  0
    1.5651   -1.7412    3.9982 H   0  0  0  0  0  0  0  0  0  0  0  0
    0.6844   -2.7977    2.9019 H   0  0  0  0  0  0  0  0  0  0  0  0
    1.5954   -3.4256    5.7028 H   0  0  0  0  0  0  0  0  0  0  0  0
    0.1078   -3.9189    4.8814 H   0  0  0  0  0  0  0  0  0  0  0  0
  2  1  1  1
  1 22  1  0
  1 23  1  0
  1 24  1  0
  2 17  1  0
  2 20  1  0
  2  3  1  0
  3  4  1  0
  3 25  1  0
  3 26  1  0
  4  5  1  0
  4 27  1  0
  4 28  1  0
  5 15  1  0
  5  6  1  0
  5 29  1  1
  6  7  1  0
  6 17  1  0
  6 30  1  6
  7  8  1  0
  7 31  1  0
  7 32  1  0
  8  9  2  0
  8 33  1  0
  9 15  1  0
  9 10  1  0
 10 11  1  0
 10 34  1  0
 10 35  1  0
 11 12  1  0
 11 13  1  0
 11 36  1  1
 12 37  1  0
 13 14  1  0
 13 38  1  0
 13 39  1  0
 14 15  1  0
 14 40  1  0
 14 41  1  0
 15 16  1  6
 16 42  1  0
 16 43  1  0
 16 44  1  0
 17 18  1  0
 17 45  1  1
 18 19  1  0
 18 46  1  0
 18 47  1  0
 19 20  1  0
 19 48  1  0
 19 49  1  0
 20 21  2  0
M  END
>  <i_m_ct_stereo_status>  (224) 
1

>  <s_m_source_file>  (224) 
/var/tmp/pbs.5076255.sched01/tmpyqr7shjn/887d44c5qo.sdf

>  <i_m_source_file_index>  (224) 
7

>  <i_lp_mmshare_version>  (224) 
48012

>  <i_f3d_flags>  (224) 
0

>  <s_epik_input>  (224) 
Tz1DMVtDSDJdW0NIMl1bQ0BASF0oW0NAQF0xMltDSDNdKVtDQEBIXTNbQ0BASF0oW0NIMl1bQ0gyXTIpW0NAXTQoW0NIM10pQyg9W0NIXVtDSDJdMylbQ0gyXVtDQEBIXShbT0hdKVtDSDJdW0NIMl00

>  <s_epik_cmdline>  (224) 
J2VwaWtfcHl0aG9uJywgJy1waHQnLCAnMi4wJywgJy1waCcsICc3LjAnLCAnLXRuJywgJzgnLCAnLW1hJywgJzIwMCcsICctaW1hZScsICc8aW5maWxlLm1hZT4nLCAnLW9tYWUnLCAnPG91dGZpbGUubWFlPic=

>  <r_lp_tautomer_probability>  (224) 
1

>  <r_epik_Ionization_Penalty>  (224) 
1.21648e-06

>  <r_epik_Ionization_Penalty_Charging>  (224) 
0

>  <r_epik_Ionization_Penalty_Neutral>  (224) 
1.21648e-06

>  <r_epik_State_Penalty>  (224) 
-0

>  <r_epik_Charging_Adjusted_Penalty>  (224) 
0

>  <i_epik_Tot_Q>  (224) 
0

>  <i_epik_Tot_abs_Q>  (224) 
0

>  <s_lp_Force_Field>  (224) 
OPLS3e

>  <r_lp_Energy>  (224) 
25.0343

>  <b_lp_Chiralities_Consistent>  (224) 
1

>  <s_lp_Variant>  (224) 
69:0-1

>  <s_i_glide_gridfile>  (224) 
pfpi4k_grid

>  <i_i_glide_lignum>  (224) 
7

>  <i_i_glide_rotatable_bonds>  (224) 
1

>  <r_i_docking_score>  (224) 
-3.47143

>  <r_i_glide_ligand_efficiency>  (224) 
-0.165306

>  <r_i_glide_ligand_efficiency_sa>  (224) 
-0.456067

>  <r_i_glide_ligand_efficiency_ln>  (224) 
-0.858304

>  <r_i_glide_gscore>  (224) 
-3.47143

>  <r_i_glide_lipo>  (224) 
-0.260633

>  <r_i_glide_hbond>  (224) 
0

>  <r_i_glide_metal>  (224) 
-0

>  <r_i_glide_rewards>  (224) 
-1.44256

>  <r_i_glide_evdw>  (224) 
-26.0573

>  <r_i_glide_ecoul>  (224) 
-3.09678

>  <r_i_glide_erotb>  (224) 
0

>  <r_i_glide_esite>  (224) 
-0.000852023

>  <r_i_glide_emodel>  (224) 
-34.6168

>  <r_i_glide_energy>  (224) 
-29.1541

>  <r_i_glide_einternal>  (224) 
0.80245

>  <r_i_glide_intrahb_reward>  (224) 
-0

>  <i_i_glide_confnum>  (224) 
1

>  <i_i_glide_posenum>  (224) 
20

>  <r_i_glide_eff_state_penalty>  (224) 
0

>  <ligand_id>  (224) 
69

>  <original_smiles>  (224) 
CC12CCC3C(CC=C4CC(O)CCC43C)C1CCC2=O

>  <smiles>  (224) 
[H]OC1([H])C([H])([H])C2=C([H])C([H])([H])C3([H])C4([H])C([H])([H])C([H])([H])C(=O)C4(C([H])([H])[H])C([H])([H])C([H])([H])C3([H])C2(C([H])([H])[H])C([H])([H])C1([H])[H]

$$$$
70:0:0
     RDKit          3D

 38 41  0  0  1  0  0  0  0  0999 V2000
    4.8441   -6.1569    0.0953 C   0  0  0  0  0  0  0  0  0  0  0  0
    4.1778   -4.8981    0.6938 C   0  0  1  0  0  0  0  0  0  0  0  0
    2.9983   -5.4008    1.4338 N   0  0  0  0  0  0  0  0  0  0  0  0
    3.0805   -5.8567    2.7027 N   0  0  0  0  0  0  0  0  0  0  0  0
    1.8657   -6.3575    2.8586 C   0  0  0  0  0  0  0  0  0  0  0  0
    1.0833   -6.2637    1.7453 N   0  0  0  0  0  0  0  0  0  0  0  0
    1.8193   -5.7146    0.8335 N   0  0  0  0  0  0  0  0  0  0  0  0
    5.1614   -4.1234    1.6446 C   0  0  1  0  0  0  0  0  0  0  0  0
    6.4063   -3.6095    0.8798 C   0  0  0  0  0  0  0  0  0  0  0  0
    5.9590   -2.6399   -0.2303 C   0  0  1  0  0  0  0  0  0  0  0  0
    4.9949   -3.3492   -1.2035 C   0  0  0  0  0  0  0  0  0  0  0  0
    3.7669   -3.8657   -0.4089 C   0  0  2  0  0  0  0  0  0  0  0  0
    3.0451   -2.6568    0.2271 C   0  0  0  0  0  0  0  0  0  0  0  0
    3.9966   -1.9034    1.2026 C   0  0  2  0  0  0  0  0  0  0  0  0
    3.3048   -0.6829    1.8629 C   0  0  0  0  0  0  0  0  0  0  0  0
    2.2169   -0.1775    1.2862 N   0  0  0  0  0  0  0  0  0  0  0  0
    3.7526   -0.1939    2.8985 O   0  0  0  0  0  0  0  0  0  0  0  0
    5.2440   -1.4278    0.4118 C   0  0  0  0  0  0  0  0  0  0  0  0
    4.4584   -2.9026    2.2974 C   0  0  0  0  0  0  0  0  0  0  0  0
    5.7495   -5.9339   -0.4603 H   0  0  0  0  0  0  0  0  0  0  0  0
    4.1738   -6.6632   -0.5987 H   0  0  0  0  0  0  0  0  0  0  0  0
    5.1229   -6.8669    0.8748 H   0  0  0  0  0  0  0  0  0  0  0  0
    1.5409   -6.8053    3.7928 H   0  0  0  0  0  0  0  0  0  0  0  0
    5.5106   -4.7855    2.4384 H   0  0  0  0  0  0  0  0  0  0  0  0
    7.0758   -3.1060    1.5750 H   0  0  0  0  0  0  0  0  0  0  0  0
    6.9957   -4.4265    0.4708 H   0  0  0  0  0  0  0  0  0  0  0  0
    6.8354   -2.2973   -0.7776 H   0  0  0  0  0  0  0  0  0  0  0  0
    4.6726   -2.6695   -1.9930 H   0  0  0  0  0  0  0  0  0  0  0  0
    5.5042   -4.1583   -1.7230 H   0  0  0  0  0  0  0  0  0  0  0  0
    3.0765   -4.3211   -1.1207 H   0  0  0  0  0  0  0  0  0  0  0  0
    2.7067   -2.0115   -0.5832 H   0  0  0  0  0  0  0  0  0  0  0  0
    2.1439   -2.9679    0.7572 H   0  0  0  0  0  0  0  0  0  0  0  0
    1.8159   -0.6065    0.4417 H   0  0  0  0  0  0  0  0  0  0  0  0
    1.7280    0.5854    1.7212 H   0  0  0  0  0  0  0  0  0  0  0  0
    5.9355   -0.8993    1.0752 H   0  0  0  0  0  0  0  0  0  0  0  0
    4.9499   -0.7163   -0.3664 H   0  0  0  0  0  0  0  0  0  0  0  0
    3.6068   -3.2062    2.9066 H   0  0  0  0  0  0  0  0  0  0  0  0
    5.1500   -2.4277    2.9940 H   0  0  0  0  0  0  0  0  0  0  0  0
  2  1  1  6
  1 20  1  0
  1 21  1  0
  1 22  1  0
  2 12  1  0
  2  3  1  0
  2  8  1  0
  3  7  1  0
  3  4  1  0
  4  5  2  0
  5  6  1  0
  5 23  1  0
  6  7  2  0
  8 19  1  0
  8  9  1  0
  8 24  1  1
  9 10  1  0
  9 25  1  0
  9 26  1  0
 10 18  1  0
 10 11  1  0
 10 27  1  6
 11 12  1  0
 11 28  1  0
 11 29  1  0
 12 13  1  0
 12 30  1  6
 13 14  1  0
 13 31  1  0
 13 32  1  0
 14 15  1  1
 14 18  1  0
 14 19  1  0
 15 16  1  0
 15 17  2  0
 16 33  1  0
 16 34  1  0
 18 35  1  0
 18 36  1  0
 19 37  1  0
 19 38  1  0
M  END
>  <i_m_ct_stereo_status>  (225) 
1

>  <s_m_source_file>  (225) 
/var/tmp/pbs.5076255.sched01/tmpyqr7shjn/887d44c5qo.sdf

>  <i_m_source_file_index>  (225) 
8

>  <i_lp_mmshare_version>  (225) 
48012

>  <i_f3d_flags>  (225) 
0

>  <s_epik_input>  (225) 
W05IMl1DKD1PKVtDQEBdMTJbQ0gyXVtDQEBIXTNbQ0BdKFtDSDNdKShuNG5bY0hdbm40KVtDQEhdKFtDSDJdMilbQ0gyXVtDQEBIXShbQ0gyXTMpW0NIMl0x

>  <s_epik_cmdline>  (225) 
J2VwaWtfcHl0aG9uJywgJy1waHQnLCAnMi4wJywgJy1waCcsICc3LjAnLCAnLXRuJywgJzgnLCAnLW1hJywgJzIwMCcsICctaW1hZScsICc8aW5maWxlLm1hZT4nLCAnLW9tYWUnLCAnPG91dGZpbGUubWFlPic=

>  <r_lp_tautomer_probability>  (225) 
1

>  <r_epik_Ionization_Penalty>  (225) 
1.68861e-06

>  <r_epik_Ionization_Penalty_Charging>  (225) 
0

>  <r_epik_Ionization_Penalty_Neutral>  (225) 
1.68861e-06

>  <r_epik_State_Penalty>  (225) 
-0

>  <r_epik_Charging_Adjusted_Penalty>  (225) 
0

>  <i_epik_Tot_Q>  (225) 
0

>  <i_epik_Tot_abs_Q>  (225) 
0

>  <s_lp_Force_Field>  (225) 
OPLS3e

>  <r_lp_Energy>  (225) 
13.8451

>  <b_lp_Chiralities_Consistent>  (225) 
1

>  <s_lp_Variant>  (225) 
70:0-1

>  <s_i_glide_gridfile>  (225) 
pfpi4k_grid

>  <i_i_glide_lignum>  (225) 
8

>  <i_i_glide_rotatable_bonds>  (225) 
2

>  <r_i_docking_score>  (225) 
-4.19052

>  <r_i_glide_ligand_efficiency>  (225) 
-0.220554

>  <r_i_glide_ligand_efficiency_sa>  (225) 
-0.588526

>  <r_i_glide_ligand_efficiency_ln>  (225) 
-1.06239

>  <r_i_glide_gscore>  (225) 
-4.19052

>  <r_i_glide_lipo>  (225) 
-0.401727

>  <r_i_glide_hbond>  (225) 
-0.16

>  <r_i_glide_metal>  (225) 
-0

>  <r_i_glide_rewards>  (225) 
-1.62734

>  <r_i_glide_evdw>  (225) 
-19.5151

>  <r_i_glide_ecoul>  (225) 
-6.81708

>  <r_i_glide_erotb>  (225) 
0.259474

>  <r_i_glide_esite>  (225) 
-0.262606

>  <r_i_glide_emodel>  (225) 
-34.483

>  <r_i_glide_energy>  (225) 
-26.3322

>  <r_i_glide_einternal>  (225) 
0.130303

>  <r_i_glide_intrahb_reward>  (225) 
-0

>  <i_i_glide_confnum>  (225) 
3

>  <i_i_glide_posenum>  (225) 
11

>  <r_i_glide_eff_state_penalty>  (225) 
0

>  <ligand_id>  (225) 
70

>  <original_smiles>  (225) 
CC1(n2ncnn2)C2CC3CC1CC(C(N)=O)(C3)C2

>  <smiles>  (225) 
[H]c1nnn(C2(C([H])([H])[H])C3([H])C([H])([H])C4([H])C([H])([H])C2([H])C([H])([H])C(C(=O)N([H])[H])(C4([H])[H])C3([H])[H])n1

$$$$
70:0:1
     RDKit          3D

 38 41  0  0  1  0  0  0  0  0999 V2000
    5.8143   -3.6679   -1.4598 C   0  0  0  0  0  0  0  0  0  0  0  0
    4.8035   -2.7637   -0.7207 C   0  0  1  0  0  0  0  0  0  0  0  0
    3.9513   -2.1997   -1.7834 N   0  0  0  0  0  0  0  0  0  0  0  0
    2.9347   -2.8962   -2.3329 N   0  0  0  0  0  0  0  0  0  0  0  0
    2.6136   -2.0940   -3.3324 C   0  0  0  0  0  0  0  0  0  0  0  0
    3.4351   -1.0096   -3.4587 N   0  0  0  0  0  0  0  0  0  0  0  0
    4.2961   -1.0967   -2.5002 N   0  0  0  0  0  0  0  0  0  0  0  0
    3.9508   -3.5830    0.3178 C   0  0  1  0  0  0  0  0  0  0  0  0
    4.8346   -4.1977    1.4251 C   0  0  0  0  0  0  0  0  0  0  0  0
    5.5623   -3.0613    2.1609 C   0  0  1  0  0  0  0  0  0  0  0  0
    6.4261   -2.2327    1.1903 C   0  0  0  0  0  0  0  0  0  0  0  0
    5.5148   -1.6341    0.0976 C   0  0  2  0  0  0  0  0  0  0  0  0
    4.4718   -0.7000    0.7749 C   0  0  0  0  0  0  0  0  0  0  0  0
    3.5906   -1.5106    1.7640 C   0  0  2  0  0  0  0  0  0  0  0  0
    2.5340   -0.5862    2.4099 C   0  0  0  0  0  0  0  0  0  0  0  0
    1.4580   -0.2674    1.6872 N   0  0  0  0  0  0  0  0  0  0  0  0
    2.6706   -0.1567    3.5545 O   0  0  0  0  0  0  0  0  0  0  0  0
    4.5319   -2.1343    2.8354 C   0  0  0  0  0  0  0  0  0  0  0  0
    2.8994   -2.6760    0.9989 C   0  0  0  0  0  0  0  0  0  0  0  0
    6.5093   -4.1882   -0.8013 H   0  0  0  0  0  0  0  0  0  0  0  0
    6.4245   -3.0932   -2.1600 H   0  0  0  0  0  0  0  0  0  0  0  0
    5.2958   -4.4478   -2.0180 H   0  0  0  0  0  0  0  0  0  0  0  0
    1.7836   -2.3065   -3.9976 H   0  0  0  0  0  0  0  0  0  0  0  0
    3.4262   -4.3986   -0.1840 H   0  0  0  0  0  0  0  0  0  0  0  0
    4.2166   -4.7688    2.1199 H   0  0  0  0  0  0  0  0  0  0  0  0
    5.5415   -4.9200    1.0237 H   0  0  0  0  0  0  0  0  0  0  0  0
    6.2032   -3.5092    2.9123 H   0  0  0  0  0  0  0  0  0  0  0  0
    6.9446   -1.4266    1.7088 H   0  0  0  0  0  0  0  0  0  0  0  0
    7.2196   -2.8502    0.7753 H   0  0  0  0  0  0  0  0  0  0  0  0
    6.1399   -1.0293   -0.5599 H   0  0  0  0  0  0  0  0  0  0  0  0
    4.9759    0.1234    1.2835 H   0  0  0  0  0  0  0  0  0  0  0  0
    3.8325   -0.2280    0.0291 H   0  0  0  0  0  0  0  0  0  0  0  0
    1.3390   -0.6174    0.7267 H   0  0  0  0  0  0  0  0  0  0  0  0
    0.7533    0.3305    2.0821 H   0  0  0  0  0  0  0  0  0  0  0  0
    3.9509   -2.7024    3.5646 H   0  0  0  0  0  0  0  0  0  0  0  0
    5.0615   -1.3560    3.3917 H   0  0  0  0  0  0  0  0  0  0  0  0
    2.2155   -2.3093    0.2396 H   0  0  0  0  0  0  0  0  0  0  0  0
    2.2826   -3.2595    1.6833 H   0  0  0  0  0  0  0  0  0  0  0  0
  2  1  1  6
  1 20  1  0
  1 21  1  0
  1 22  1  0
  2 12  1  0
  2  3  1  0
  2  8  1  0
  3  7  1  0
  3  4  1  0
  4  5  2  0
  5  6  1  0
  5 23  1  0
  6  7  2  0
  8 19  1  0
  8  9  1  0
  8 24  1  6
  9 10  1  0
  9 25  1  0
  9 26  1  0
 10 18  1  0
 10 11  1  0
 10 27  1  1
 11 12  1  0
 11 28  1  0
 11 29  1  0
 12 13  1  0
 12 30  1  6
 13 14  1  0
 13 31  1  0
 13 32  1  0
 14 15  1  1
 14 18  1  0
 14 19  1  0
 15 16  1  0
 15 17  2  0
 16 33  1  0
 16 34  1  0
 18 35  1  0
 18 36  1  0
 19 37  1  0
 19 38  1  0
M  END
>  <i_m_ct_stereo_status>  (226) 
1

>  <s_m_source_file>  (226) 
/var/tmp/pbs.5076255.sched01/tmpyqr7shjn/887d44c5qo.sdf

>  <i_m_source_file_index>  (226) 
8

>  <i_lp_mmshare_version>  (226) 
48012

>  <i_f3d_flags>  (226) 
0

>  <s_epik_input>  (226) 
W05IMl1DKD1PKVtDQEBdMTJbQ0gyXVtDQEBIXTNbQ0BdKFtDSDNdKShuNG5bY0hdbm40KVtDQEhdKFtDSDJdMilbQ0gyXVtDQEBIXShbQ0gyXTMpW0NIMl0x

>  <s_epik_cmdline>  (226) 
J2VwaWtfcHl0aG9uJywgJy1waHQnLCAnMi4wJywgJy1waCcsICc3LjAnLCAnLXRuJywgJzgnLCAnLW1hJywgJzIwMCcsICctaW1hZScsICc8aW5maWxlLm1hZT4nLCAnLW9tYWUnLCAnPG91dGZpbGUubWFlPic=

>  <r_lp_tautomer_probability>  (226) 
1

>  <r_epik_Ionization_Penalty>  (226) 
1.68861e-06

>  <r_epik_Ionization_Penalty_Charging>  (226) 
0

>  <r_epik_Ionization_Penalty_Neutral>  (226) 
1.68861e-06

>  <r_epik_State_Penalty>  (226) 
-0

>  <r_epik_Charging_Adjusted_Penalty>  (226) 
0

>  <i_epik_Tot_Q>  (226) 
0

>  <i_epik_Tot_abs_Q>  (226) 
0

>  <s_lp_Force_Field>  (226) 
OPLS3e

>  <r_lp_Energy>  (226) 
13.8451

>  <b_lp_Chiralities_Consistent>  (226) 
1

>  <s_lp_Variant>  (226) 
70:0-1

>  <s_i_glide_gridfile>  (226) 
pfpi4k_grid

>  <i_i_glide_lignum>  (226) 
8

>  <i_i_glide_rotatable_bonds>  (226) 
2

>  <r_i_docking_score>  (226) 
-4.13191

>  <r_i_glide_ligand_efficiency>  (226) 
-0.217469

>  <r_i_glide_ligand_efficiency_sa>  (226) 
-0.580294

>  <r_i_glide_ligand_efficiency_ln>  (226) 
-1.04753

>  <r_i_glide_gscore>  (226) 
-4.13191

>  <r_i_glide_lipo>  (226) 
-0.391352

>  <r_i_glide_hbond>  (226) 
-0.16

>  <r_i_glide_metal>  (226) 
-0

>  <r_i_glide_rewards>  (226) 
-1.78334

>  <r_i_glide_evdw>  (226) 
-24.5616

>  <r_i_glide_ecoul>  (226) 
-4.41229

>  <r_i_glide_erotb>  (226) 
0.259474

>  <r_i_glide_esite>  (226) 
-0.166762

>  <r_i_glide_emodel>  (226) 
-36.7787

>  <r_i_glide_energy>  (226) 
-28.9739

>  <r_i_glide_einternal>  (226) 
0.543416

>  <r_i_glide_intrahb_reward>  (226) 
-0

>  <i_i_glide_confnum>  (226) 
1

>  <i_i_glide_posenum>  (226) 
1

>  <r_i_glide_eff_state_penalty>  (226) 
0

>  <ligand_id>  (226) 
70

>  <original_smiles>  (226) 
CC1(n2ncnn2)C2CC3CC1CC(C(N)=O)(C3)C2

>  <smiles>  (226) 
[H]c1nnn(C2(C([H])([H])[H])C3([H])C([H])([H])C4([H])C([H])([H])C2([H])C([H])([H])C(C(=O)N([H])[H])(C4([H])[H])C3([H])[H])n1

$$$$
70:0:2
     RDKit          3D

 38 41  0  0  1  0  0  0  0  0999 V2000
    5.2904   -3.8387   -2.7377 C   0  0  0  0  0  0  0  0  0  0  0  0
    4.7382   -2.7929   -1.7425 C   0  0  1  0  0  0  0  0  0  0  0  0
    4.0474   -1.8092   -2.6000 N   0  0  0  0  0  0  0  0  0  0  0  0
    2.9435   -2.1236   -3.3158 N   0  0  0  0  0  0  0  0  0  0  0  0
    2.8484   -1.0254   -4.0504 C   0  0  0  0  0  0  0  0  0  0  0  0
    3.8304   -0.1093   -3.8302 N   0  0  0  0  0  0  0  0  0  0  0  0
    4.6070   -0.6400   -2.9600 N   0  0  0  0  0  0  0  0  0  0  0  0
    3.7595   -3.4541   -0.7016 C   0  0  1  0  0  0  0  0  0  0  0  0
    4.4566   -4.5064    0.1952 C   0  0  0  0  0  0  0  0  0  0  0  0
    5.6059   -3.8300    0.9707 C   0  0  1  0  0  0  0  0  0  0  0  0
    6.6180   -3.1887    0.0069 C   0  0  0  0  0  0  0  0  0  0  0  0
    5.8793   -2.1407   -0.8640 C   0  0  2  0  0  0  0  0  0  0  0  0
    5.3160   -1.0401    0.1000 C   0  0  0  0  0  0  0  0  0  0  0  0
    4.2757   -1.6561    1.0632 C   0  0  2  0  0  0  0  0  0  0  0  0
    3.6809   -0.5367    1.9605 C   0  0  0  0  0  0  0  0  0  0  0  0
    2.5171    0.0126    1.6032 N   0  0  0  0  0  0  0  0  0  0  0  0
    4.2766   -0.1688    2.9734 O   0  0  0  0  0  0  0  0  0  0  0  0
    5.0245   -2.7353    1.8961 C   0  0  0  0  0  0  0  0  0  0  0  0
    3.1668   -2.3789    0.2343 C   0  0  0  0  0  0  0  0  0  0  0  0
    5.7793   -4.6593   -2.2298 H   0  0  0  0  0  0  0  0  0  0  0  0
    6.0135   -3.3982   -3.4298 H   0  0  0  0  0  0  0  0  0  0  0  0
    4.4914   -4.3088   -3.3164 H   0  0  0  0  0  0  0  0  0  0  0  0
    2.0358   -0.8682   -4.7382 H   0  0  0  0  0  0  0  0  0  0  0  0
    2.9260   -3.9272   -1.2253 H   0  0  0  0  0  0  0  0  0  0  0  0
    3.7277   -4.9292    0.8872 H   0  0  0  0  0  0  0  0  0  0  0  0
    4.8056   -5.3588   -0.3812 H   0  0  0  0  0  0  0  0  0  0  0  0
    6.1098   -4.5778    1.5755 H   0  0  0  0  0  0  0  0  0  0  0  0
    7.4322   -2.7064    0.5508 H   0  0  0  0  0  0  0  0  0  0  0  0
    7.1148   -3.9493   -0.5861 H   0  0  0  0  0  0  0  0  0  0  0  0
    6.6154   -1.7010   -1.5291 H   0  0  0  0  0  0  0  0  0  0  0  0
    6.1377   -0.5595    0.6404 H   0  0  0  0  0  0  0  0  0  0  0  0
    4.8273   -0.2081   -0.4032 H   0  0  0  0  0  0  0  0  0  0  0  0
    2.0462   -0.3092    0.7646 H   0  0  0  0  0  0  0  0  0  0  0  0
    2.0916    0.7296    2.1700 H   0  0  0  0  0  0  0  0  0  0  0  0
    4.3454   -3.1844    2.6218 H   0  0  0  0  0  0  0  0  0  0  0  0
    5.8424   -2.2827    2.4630 H   0  0  0  0  0  0  0  0  0  0  0  0
    2.6146   -1.6892   -0.3959 H   0  0  0  0  0  0  0  0  0  0  0  0
    2.4279   -2.8248    0.9002 H   0  0  0  0  0  0  0  0  0  0  0  0
  2  1  1  6
  1 20  1  0
  1 21  1  0
  1 22  1  0
  2 12  1  0
  2  3  1  0
  2  8  1  0
  3  7  1  0
  3  4  1  0
  4  5  2  0
  5  6  1  0
  5 23  1  0
  6  7  2  0
  8 19  1  0
  8  9  1  0
  8 24  1  6
  9 10  1  0
  9 25  1  0
  9 26  1  0
 10 18  1  0
 10 11  1  0
 10 27  1  1
 11 12  1  0
 11 28  1  0
 11 29  1  0
 12 13  1  0
 12 30  1  6
 13 14  1  0
 13 31  1  0
 13 32  1  0
 14 15  1  1
 14 18  1  0
 14 19  1  0
 15 16  1  0
 15 17  2  0
 16 33  1  0
 16 34  1  0
 18 35  1  0
 18 36  1  0
 19 37  1  0
 19 38  1  0
M  END
>  <i_m_ct_stereo_status>  (227) 
1

>  <s_m_source_file>  (227) 
/var/tmp/pbs.5076255.sched01/tmpyqr7shjn/887d44c5qo.sdf

>  <i_m_source_file_index>  (227) 
8

>  <i_lp_mmshare_version>  (227) 
48012

>  <i_f3d_flags>  (227) 
0

>  <s_epik_input>  (227) 
W05IMl1DKD1PKVtDQEBdMTJbQ0gyXVtDQEBIXTNbQ0BdKFtDSDNdKShuNG5bY0hdbm40KVtDQEhdKFtDSDJdMilbQ0gyXVtDQEBIXShbQ0gyXTMpW0NIMl0x

>  <s_epik_cmdline>  (227) 
J2VwaWtfcHl0aG9uJywgJy1waHQnLCAnMi4wJywgJy1waCcsICc3LjAnLCAnLXRuJywgJzgnLCAnLW1hJywgJzIwMCcsICctaW1hZScsICc8aW5maWxlLm1hZT4nLCAnLW9tYWUnLCAnPG91dGZpbGUubWFlPic=

>  <r_lp_tautomer_probability>  (227) 
1

>  <r_epik_Ionization_Penalty>  (227) 
1.68861e-06

>  <r_epik_Ionization_Penalty_Charging>  (227) 
0

>  <r_epik_Ionization_Penalty_Neutral>  (227) 
1.68861e-06

>  <r_epik_State_Penalty>  (227) 
-0

>  <r_epik_Charging_Adjusted_Penalty>  (227) 
0

>  <i_epik_Tot_Q>  (227) 
0

>  <i_epik_Tot_abs_Q>  (227) 
0

>  <s_lp_Force_Field>  (227) 
OPLS3e

>  <r_lp_Energy>  (227) 
13.8451

>  <b_lp_Chiralities_Consistent>  (227) 
1

>  <s_lp_Variant>  (227) 
70:0-1

>  <s_i_glide_gridfile>  (227) 
pfpi4k_grid

>  <i_i_glide_lignum>  (227) 
8

>  <i_i_glide_rotatable_bonds>  (227) 
2

>  <r_i_docking_score>  (227) 
-3.72407

>  <r_i_glide_ligand_efficiency>  (227) 
-0.196004

>  <r_i_glide_ligand_efficiency_sa>  (227) 
-0.523016

>  <r_i_glide_ligand_efficiency_ln>  (227) 
-0.944131

>  <r_i_glide_gscore>  (227) 
-3.72407

>  <r_i_glide_lipo>  (227) 
-0.355331

>  <r_i_glide_hbond>  (227) 
-0.115567

>  <r_i_glide_metal>  (227) 
-0

>  <r_i_glide_rewards>  (227) 
-1.77169

>  <r_i_glide_evdw>  (227) 
-25.1175

>  <r_i_glide_ecoul>  (227) 
-2.88285

>  <r_i_glide_erotb>  (227) 
0.259474

>  <r_i_glide_esite>  (227) 
-0.0526456

>  <r_i_glide_emodel>  (227) 
-33.169

>  <r_i_glide_energy>  (227) 
-28.0003

>  <r_i_glide_einternal>  (227) 
3.12405

>  <r_i_glide_intrahb_reward>  (227) 
-0

>  <i_i_glide_confnum>  (227) 
3

>  <i_i_glide_posenum>  (227) 
4

>  <r_i_glide_eff_state_penalty>  (227) 
0

>  <ligand_id>  (227) 
70

>  <original_smiles>  (227) 
CC1(n2ncnn2)C2CC3CC1CC(C(N)=O)(C3)C2

>  <smiles>  (227) 
[H]c1nnn(C2(C([H])([H])[H])C3([H])C([H])([H])C4([H])C([H])([H])C2([H])C([H])([H])C(C(=O)N([H])[H])(C4([H])[H])C3([H])[H])n1

$$$$
72:0:0
     RDKit          3D

 38 40  0  0  1  0  0  0  0  0999 V2000
    4.4038   -2.3772   -3.3327 C   0  0  0  0  0  0  0  0  0  0  0  0
    4.8110   -2.4191   -1.8455 C   0  0  2  0  0  0  0  0  0  0  0  0
    4.4987   -1.0686   -1.1597 C   0  0  0  0  0  0  0  0  0  0  0  0
    4.8856   -1.1272    0.3372 C   0  0  2  0  0  0  0  0  0  0  0  0
    6.3974   -1.4202    0.4751 C   0  0  0  0  0  0  0  0  0  0  0  0
    6.7423   -2.7670   -0.2113 C   0  0  2  0  0  0  0  0  0  0  0  0
    8.2508   -3.0488   -0.0967 C   0  0  0  0  0  0  0  0  0  0  0  0
    6.3227   -2.7116   -1.6996 C   0  0  0  0  0  0  0  0  0  0  0  0
    5.9296   -3.8910    0.4751 C   0  0  0  0  0  0  0  0  0  0  0  0
    4.4024   -3.6145    0.3801 C   0  0  2  0  0  0  0  0  0  0  0  0
    3.5995   -4.7599    1.0400 C   0  0  0  0  0  0  0  0  0  0  0  0
    4.0217   -3.5319   -1.1186 C   0  0  0  0  0  0  0  0  0  0  0  0
    4.0721   -2.2427    1.0383 C   0  0  1  0  0  0  0  0  0  0  0  0
    4.3535   -2.2608    2.4882 N   0  0  0  0  0  0  0  0  0  0  0  0
    3.3392   -2.1675   -3.4531 H   0  0  0  0  0  0  0  0  0  0  0  0
    4.6062   -3.3287   -3.8245 H   0  0  0  0  0  0  0  0  0  0  0  0
    4.9503   -1.6063   -3.8757 H   0  0  0  0  0  0  0  0  0  0  0  0
    5.0345   -0.2554   -1.6527 H   0  0  0  0  0  0  0  0  0  0  0  0
    3.4359   -0.8374   -1.2571 H   0  0  0  0  0  0  0  0  0  0  0  0
    4.6554   -0.1604    0.7913 H   0  0  0  0  0  0  0  0  0  0  0  0
    6.9699   -0.5966    0.0515 H   0  0  0  0  0  0  0  0  0  0  0  0
    6.6935   -1.4432    1.5248 H   0  0  0  0  0  0  0  0  0  0  0  0
    8.5128   -4.0018   -0.5560 H   0  0  0  0  0  0  0  0  0  0  0  0
    8.5669   -3.0922    0.9442 H   0  0  0  0  0  0  0  0  0  0  0  0
    8.8466   -2.2766   -0.5853 H   0  0  0  0  0  0  0  0  0  0  0  0
    6.5544   -3.6582   -2.1869 H   0  0  0  0  0  0  0  0  0  0  0  0
    6.8985   -1.9553   -2.2291 H   0  0  0  0  0  0  0  0  0  0  0  0
    6.1544   -4.8483    0.0030 H   0  0  0  0  0  0  0  0  0  0  0  0
    6.2429   -4.0008    1.5141 H   0  0  0  0  0  0  0  0  0  0  0  0
    2.5264   -4.5628    1.0133 H   0  0  0  0  0  0  0  0  0  0  0  0
    3.8784   -4.9216    2.0825 H   0  0  0  0  0  0  0  0  0  0  0  0
    3.7607   -5.7063    0.5211 H   0  0  0  0  0  0  0  0  0  0  0  0
    2.9484   -3.3610   -1.2256 H   0  0  0  0  0  0  0  0  0  0  0  0
    4.2272   -4.4919   -1.5922 H   0  0  0  0  0  0  0  0  0  0  0  0
    3.0063   -2.0295    0.9190 H   0  0  0  0  0  0  0  0  0  0  0  0
    5.3393   -2.4352    2.6141 H   0  0  0  0  0  0  0  0  0  0  0  0
    3.8208   -3.0020    2.9250 H   0  0  0  0  0  0  0  0  0  0  0  0
    4.1095   -1.3765    2.9074 H   0  0  0  0  0  0  0  0  0  0  0  0
  2  1  1  6
  1 15  1  0
  1 16  1  0
  1 17  1  0
  2  8  1  0
  2 12  1  0
  2  3  1  0
  3  4  1  0
  3 18  1  0
  3 19  1  0
  4 13  1  0
  4  5  1  0
  4 20  1  1
  5  6  1  0
  5 21  1  0
  5 22  1  0
  6  7  1  6
  6  8  1  0
  6  9  1  0
  7 23  1  0
  7 24  1  0
  7 25  1  0
  8 26  1  0
  8 27  1  0
  9 10  1  0
  9 28  1  0
  9 29  1  0
 10 11  1  1
 10 12  1  0
 10 13  1  0
 11 30  1  0
 11 31  1  0
 11 32  1  0
 12 33  1  0
 12 34  1  0
 13 14  1  0
 13 35  1  1
 14 36  1  0
 14 37  1  0
 14 38  1  0
M  CHG  1  14   1
M  END
>  <i_m_ct_stereo_status>  (228) 
1

>  <s_m_source_file>  (228) 
/var/tmp/pbs.5076255.sched01/tmpyqr7shjn/887d44c5qo.sdf

>  <i_m_source_file_index>  (228) 
10

>  <i_lp_mmshare_version>  (228) 
48012

>  <i_f3d_flags>  (228) 
0

>  <s_epik_input>  (228) 
W0NIM11bQ0BdMTJbQ0gyXVtDQEBIXTNbQ0gyXVtDQF0oW0NIM10pKFtDSDJdMSlbQ0gyXVtDQF0oW0NIM10pKFtDSDJdMilbQ0BIXTNbTkgyXQ==

>  <s_epik_cmdline>  (228) 
J2VwaWtfcHl0aG9uJywgJy1waHQnLCAnMi4wJywgJy1waCcsICc3LjAnLCAnLXRuJywgJzgnLCAnLW1hJywgJzIwMCcsICctaW1hZScsICc8aW5maWxlLm1hZT4nLCAnLW9tYWUnLCAnPG91dGZpbGUubWFlPic=

>  <r_lp_tautomer_probability>  (228) 
1

>  <r_epik_Ionization_Penalty>  (228) 
0.00013254

>  <r_epik_Ionization_Penalty_Charging>  (228) 
0.00013254

>  <r_epik_Ionization_Penalty_Neutral>  (228) 
0

>  <r_epik_State_Penalty>  (228) 
-0

>  <r_epik_Charging_Adjusted_Penalty>  (228) 
0.00013254

>  <i_epik_Tot_Q>  (228) 
1

>  <i_epik_Tot_abs_Q>  (228) 
1

>  <s_lp_Force_Field>  (228) 
OPLS3e

>  <r_lp_Energy>  (228) 
14.0444

>  <b_lp_Chiralities_Consistent>  (228) 
1

>  <s_lp_Variant>  (228) 
72:0-1

>  <s_i_glide_gridfile>  (228) 
pfpi4k_grid

>  <i_i_glide_lignum>  (228) 
10

>  <i_i_glide_rotatable_bonds>  (228) 
0

>  <r_i_docking_score>  (228) 
-3.95752

>  <r_i_glide_ligand_efficiency>  (228) 
-0.28268

>  <r_i_glide_ligand_efficiency_sa>  (228) 
-0.6813

>  <r_i_glide_ligand_efficiency_ln>  (228) 
-1.08751

>  <r_i_glide_gscore>  (228) 
-3.95752

>  <r_i_glide_lipo>  (228) 
-0.501457

>  <r_i_glide_hbond>  (228) 
0

>  <r_i_glide_metal>  (228) 
-0

>  <r_i_glide_rewards>  (228) 
-2.08407

>  <r_i_glide_evdw>  (228) 
-21.0269

>  <r_i_glide_ecoul>  (228) 
-2.13766

>  <r_i_glide_erotb>  (228) 
0

>  <r_i_glide_esite>  (228) 
0

>  <r_i_glide_emodel>  (228) 
-28.5942

>  <r_i_glide_energy>  (228) 
-23.1646

>  <r_i_glide_einternal>  (228) 
0

>  <r_i_glide_intrahb_reward>  (228) 
-0

>  <i_i_glide_confnum>  (228) 
1

>  <i_i_glide_posenum>  (228) 
1

>  <r_i_glide_eff_state_penalty>  (228) 
0

>  <ligand_id>  (228) 
72

>  <original_smiles>  (228) 
CC12CC3CC(C)(C1)CC(C)(C2)C3N

>  <smiles>  (228) 
[H]C([H])([H])C12C([H])([H])C3([H])C([H])([H])C(C([H])([H])[H])(C1([H])[H])C([H])([H])C(C([H])([H])[H])(C2([H])[H])C3([H])[N+]([H])([H])[H]

$$$$
72:0:1
     RDKit          3D

 38 40  0  0  1  0  0  0  0  0999 V2000
    2.7142   -3.1571   -3.6250 C   0  0  0  0  0  0  0  0  0  0  0  0
    3.5046   -2.7564   -2.3613 C   0  0  2  0  0  0  0  0  0  0  0  0
    3.5057   -1.2345   -2.3833 C   0  0  0  0  0  0  0  0  0  0  0  0
    4.2585   -0.7268   -1.1656 C   0  0  2  0  0  0  0  0  0  0  0  0
    5.7035   -1.1866   -1.1999 C   0  0  0  0  0  0  0  0  0  0  0  0
    5.7365   -2.7145   -1.1245 C   0  0  2  0  0  0  0  0  0  0  0  0
    7.2077   -3.1511   -1.1206 C   0  0  0  0  0  0  0  0  0  0  0  0
    4.9703   -3.2655   -2.3601 C   0  0  0  0  0  0  0  0  0  0  0  0
    5.0503   -3.1916    0.1770 C   0  0  0  0  0  0  0  0  0  0  0  0
    3.5853   -2.6855    0.2231 C   0  0  2  0  0  0  0  0  0  0  0  0
    2.8634   -3.1562    1.5064 C   0  0  0  0  0  0  0  0  0  0  0  0
    2.8468   -3.2418   -1.0393 C   0  0  0  0  0  0  0  0  0  0  0  0
    3.6003   -1.1274    0.1493 C   0  0  1  0  0  0  0  0  0  0  0  0
    4.2249   -0.4947    1.3230 N   0  0  0  0  0  0  0  0  0  0  0  0
    1.6649   -2.8345   -3.6131 H   0  0  0  0  0  0  0  0  0  0  0  0
    2.6622   -4.2459   -3.6430 H   0  0  0  0  0  0  0  0  0  0  0  0
    3.1736   -2.8243   -4.5705 H   0  0  0  0  0  0  0  0  0  0  0  0
    3.9806   -0.8716   -3.2930 H   0  0  0  0  0  0  0  0  0  0  0  0
    2.4905   -0.8429   -2.3914 H   0  0  0  0  0  0  0  0  0  0  0  0
    4.2164    0.3532   -1.2880 H   0  0  0  0  0  0  0  0  0  0  0  0
    6.1300   -0.8530   -2.1357 H   0  0  0  0  0  0  0  0  0  0  0  0
    6.2429   -0.7254   -0.3779 H   0  0  0  0  0  0  0  0  0  0  0  0
    7.2654   -4.2321   -0.9938 H   0  0  0  0  0  0  0  0  0  0  0  0
    7.7730   -2.6694   -0.3051 H   0  0  0  0  0  0  0  0  0  0  0  0
    7.7128   -2.8314   -2.0455 H   0  0  0  0  0  0  0  0  0  0  0  0
    4.9783   -4.3516   -2.3230 H   0  0  0  0  0  0  0  0  0  0  0  0
    5.4594   -2.9614   -3.2819 H   0  0  0  0  0  0  0  0  0  0  0  0
    5.0560   -4.2825    0.2193 H   0  0  0  0  0  0  0  0  0  0  0  0
    5.6042   -2.8400    1.0475 H   0  0  0  0  0  0  0  0  0  0  0  0
    1.8445   -2.7547    1.5703 H   0  0  0  0  0  0  0  0  0  0  0  0
    3.3821   -2.8525    2.4209 H   0  0  0  0  0  0  0  0  0  0  0  0
    2.7831   -4.2498    1.5403 H   0  0  0  0  0  0  0  0  0  0  0  0
    1.8079   -2.9323   -1.0218 H   0  0  0  0  0  0  0  0  0  0  0  0
    2.8279   -4.3341   -0.9991 H   0  0  0  0  0  0  0  0  0  0  0  0
    2.6055   -0.6976    0.1623 H   0  0  0  0  0  0  0  0  0  0  0  0
    5.1979   -0.7732    1.3598 H   0  0  0  0  0  0  0  0  0  0  0  0
    3.7411   -0.7924    2.1516 H   0  0  0  0  0  0  0  0  0  0  0  0
    4.1564    0.5154    1.2491 H   0  0  0  0  0  0  0  0  0  0  0  0
  2  1  1  6
  1 15  1  0
  1 16  1  0
  1 17  1  0
  2  8  1  0
  2 12  1  0
  2  3  1  0
  3  4  1  0
  3 18  1  0
  3 19  1  0
  4 13  1  0
  4  5  1  0
  4 20  1  6
  5  6  1  0
  5 21  1  0
  5 22  1  0
  6  7  1  1
  6  8  1  0
  6  9  1  0
  7 23  1  0
  7 24  1  0
  7 25  1  0
  8 26  1  0
  8 27  1  0
  9 10  1  0
  9 28  1  0
  9 29  1  0
 10 11  1  1
 10 12  1  0
 10 13  1  0
 11 30  1  0
 11 31  1  0
 11 32  1  0
 12 33  1  0
 12 34  1  0
 13 14  1  0
 13 35  1  6
 14 36  1  0
 14 37  1  0
 14 38  1  0
M  CHG  1  14   1
M  END
>  <i_m_ct_stereo_status>  (229) 
1

>  <s_m_source_file>  (229) 
/var/tmp/pbs.5076255.sched01/tmpyqr7shjn/887d44c5qo.sdf

>  <i_m_source_file_index>  (229) 
10

>  <i_lp_mmshare_version>  (229) 
48012

>  <i_f3d_flags>  (229) 
0

>  <s_epik_input>  (229) 
W0NIM11bQ0BdMTJbQ0gyXVtDQEBIXTNbQ0gyXVtDQF0oW0NIM10pKFtDSDJdMSlbQ0gyXVtDQF0oW0NIM10pKFtDSDJdMilbQ0BIXTNbTkgyXQ==

>  <s_epik_cmdline>  (229) 
J2VwaWtfcHl0aG9uJywgJy1waHQnLCAnMi4wJywgJy1waCcsICc3LjAnLCAnLXRuJywgJzgnLCAnLW1hJywgJzIwMCcsICctaW1hZScsICc8aW5maWxlLm1hZT4nLCAnLW9tYWUnLCAnPG91dGZpbGUubWFlPic=

>  <r_lp_tautomer_probability>  (229) 
1

>  <r_epik_Ionization_Penalty>  (229) 
0.00013254

>  <r_epik_Ionization_Penalty_Charging>  (229) 
0.00013254

>  <r_epik_Ionization_Penalty_Neutral>  (229) 
0

>  <r_epik_State_Penalty>  (229) 
-0

>  <r_epik_Charging_Adjusted_Penalty>  (229) 
0.00013254

>  <i_epik_Tot_Q>  (229) 
1

>  <i_epik_Tot_abs_Q>  (229) 
1

>  <s_lp_Force_Field>  (229) 
OPLS3e

>  <r_lp_Energy>  (229) 
14.0444

>  <b_lp_Chiralities_Consistent>  (229) 
1

>  <s_lp_Variant>  (229) 
72:0-1

>  <s_i_glide_gridfile>  (229) 
pfpi4k_grid

>  <i_i_glide_lignum>  (229) 
10

>  <i_i_glide_rotatable_bonds>  (229) 
0

>  <r_i_docking_score>  (229) 
-3.56773

>  <r_i_glide_ligand_efficiency>  (229) 
-0.254838

>  <r_i_glide_ligand_efficiency_sa>  (229) 
-0.614196

>  <r_i_glide_ligand_efficiency_ln>  (229) 
-0.9804

>  <r_i_glide_gscore>  (229) 
-3.56773

>  <r_i_glide_lipo>  (229) 
-0.488734

>  <r_i_glide_hbond>  (229) 
0

>  <r_i_glide_metal>  (229) 
-0

>  <r_i_glide_rewards>  (229) 
-2.08407

>  <r_i_glide_evdw>  (229) 
-10.2564

>  <r_i_glide_ecoul>  (229) 
-3.21404

>  <r_i_glide_erotb>  (229) 
0

>  <r_i_glide_esite>  (229) 
0

>  <r_i_glide_emodel>  (229) 
-17.85

>  <r_i_glide_energy>  (229) 
-13.4704

>  <r_i_glide_einternal>  (229) 
0

>  <r_i_glide_intrahb_reward>  (229) 
-0

>  <i_i_glide_confnum>  (229) 
1

>  <i_i_glide_posenum>  (229) 
24

>  <r_i_glide_eff_state_penalty>  (229) 
0

>  <ligand_id>  (229) 
72

>  <original_smiles>  (229) 
CC12CC3CC(C)(C1)CC(C)(C2)C3N

>  <smiles>  (229) 
[H]C([H])([H])C12C([H])([H])C3([H])C([H])([H])C(C([H])([H])[H])(C1([H])[H])C([H])([H])C(C([H])([H])[H])(C2([H])[H])C3([H])[N+]([H])([H])[H]

$$$$
72:0:2
     RDKit          3D

 38 40  0  0  1  0  0  0  0  0999 V2000
    2.8839   -4.9852    0.0225 C   0  0  0  0  0  0  0  0  0  0  0  0
    3.5883   -3.8338   -0.7115 C   0  0  2  0  0  0  0  0  0  0  0  0
    2.8229   -3.4162   -1.9991 C   0  0  0  0  0  0  0  0  0  0  0  0
    3.5357   -2.2551   -2.6907 C   0  0  2  0  0  0  0  0  0  0  0  0
    4.9822   -2.6533   -3.0734 C   0  0  0  0  0  0  0  0  0  0  0  0
    5.7451   -3.0243   -1.7610 C   0  0  2  0  0  0  0  0  0  0  0  0
    7.1901   -3.3342   -2.0683 C   0  0  0  0  0  0  0  0  0  0  0  0
    5.0346   -4.2151   -1.0841 C   0  0  0  0  0  0  0  0  0  0  0  0
    5.7774   -1.8700   -0.7573 C   0  0  0  0  0  0  0  0  0  0  0  0
    4.3400   -1.4514   -0.4127 C   0  0  2  0  0  0  0  0  0  0  0  0
    4.3557   -0.3129    0.6157 C   0  0  0  0  0  0  0  0  0  0  0  0
    3.6345   -2.6396    0.2416 C   0  0  0  0  0  0  0  0  0  0  0  0
    3.6185   -1.0822   -1.7402 C   0  0  1  0  0  0  0  0  0  0  0  0
    4.2218    0.0677   -2.4569 N   0  0  0  0  0  0  0  0  0  0  0  0
    1.8453   -4.7356    0.2373 H   0  0  0  0  0  0  0  0  0  0  0  0
    3.4151   -5.2907    0.9240 H   0  0  0  0  0  0  0  0  0  0  0  0
    2.8548   -5.8609   -0.6091 H   0  0  0  0  0  0  0  0  0  0  0  0
    2.7721   -4.1656   -2.7715 H   0  0  0  0  0  0  0  0  0  0  0  0
    1.7980   -3.1324   -1.7836 H   0  0  0  0  0  0  0  0  0  0  0  0
    2.9965   -1.9580   -3.5906 H   0  0  0  0  0  0  0  0  0  0  0  0
    4.9836   -3.4834   -3.7995 H   0  0  0  0  0  0  0  0  0  0  0  0
    5.4119   -1.8132   -3.5624 H   0  0  0  0  0  0  0  0  0  0  0  0
    7.7890   -3.6786   -1.2213 H   0  0  0  0  0  0  0  0  0  0  0  0
    7.6954   -2.5010   -2.5494 H   0  0  0  0  0  0  0  0  0  0  0  0
    7.1922   -4.0912   -2.8295 H   0  0  0  0  0  0  0  0  0  0  0  0
    5.6003   -4.5069   -0.1986 H   0  0  0  0  0  0  0  0  0  0  0  0
    5.0299   -5.0627   -1.7630 H   0  0  0  0  0  0  0  0  0  0  0  0
    6.3604   -2.1232    0.1363 H   0  0  0  0  0  0  0  0  0  0  0  0
    6.2884   -1.0329   -1.2107 H   0  0  0  0  0  0  0  0  0  0  0  0
    3.3466    0.0875    0.8138 H   0  0  0  0  0  0  0  0  0  0  0  0
    4.9726    0.4610    0.1981 H   0  0  0  0  0  0  0  0  0  0  0  0
    4.8419   -0.5748    1.5664 H   0  0  0  0  0  0  0  0  0  0  0  0
    2.6255   -2.3438    0.5138 H   0  0  0  0  0  0  0  0  0  0  0  0
    4.1512   -2.9121    1.1592 H   0  0  0  0  0  0  0  0  0  0  0  0
    2.6203   -0.7596   -1.4914 H   0  0  0  0  0  0  0  0  0  0  0  0
    5.1613   -0.1304   -2.6889 H   0  0  0  0  0  0  0  0  0  0  0  0
    4.2947    0.7793   -1.7654 H   0  0  0  0  0  0  0  0  0  0  0  0
    3.6534    0.3918   -3.2311 H   0  0  0  0  0  0  0  0  0  0  0  0
  2  1  1  1
  1 15  1  0
  1 16  1  0
  1 17  1  0
  2  8  1  0
  2 12  1  0
  2  3  1  0
  3  4  1  0
  3 18  1  0
  3 19  1  0
  4 13  1  0
  4  5  1  0
  4 20  1  6
  5  6  1  0
  5 21  1  0
  5 22  1  0
  6  7  1  6
  6  8  1  0
  6  9  1  0
  7 23  1  0
  7 24  1  0
  7 25  1  0
  8 26  1  0
  8 27  1  0
  9 10  1  0
  9 28  1  0
  9 29  1  0
 10 11  1  1
 10 12  1  0
 10 13  1  0
 11 30  1  0
 11 31  1  0
 11 32  1  0
 12 33  1  0
 12 34  1  0
 13 14  1  0
 13 35  1  1
 14 36  1  0
 14 37  1  0
 14 38  1  0
M  CHG  1  14   1
M  END
>  <i_m_ct_stereo_status>  (230) 
1

>  <s_m_source_file>  (230) 
/var/tmp/pbs.5076255.sched01/tmpyqr7shjn/887d44c5qo.sdf

>  <i_m_source_file_index>  (230) 
10

>  <i_lp_mmshare_version>  (230) 
48012

>  <i_f3d_flags>  (230) 
0

>  <s_epik_input>  (230) 
W0NIM11bQ0BdMTJbQ0gyXVtDQEBIXTNbQ0gyXVtDQF0oW0NIM10pKFtDSDJdMSlbQ0gyXVtDQF0oW0NIM10pKFtDSDJdMilbQ0BIXTNbTkgyXQ==

>  <s_epik_cmdline>  (230) 
J2VwaWtfcHl0aG9uJywgJy1waHQnLCAnMi4wJywgJy1waCcsICc3LjAnLCAnLXRuJywgJzgnLCAnLW1hJywgJzIwMCcsICctaW1hZScsICc8aW5maWxlLm1hZT4nLCAnLW9tYWUnLCAnPG91dGZpbGUubWFlPic=

>  <r_lp_tautomer_probability>  (230) 
1

>  <r_epik_Ionization_Penalty>  (230) 
0.00013254

>  <r_epik_Ionization_Penalty_Charging>  (230) 
0.00013254

>  <r_epik_Ionization_Penalty_Neutral>  (230) 
0

>  <r_epik_State_Penalty>  (230) 
-0

>  <r_epik_Charging_Adjusted_Penalty>  (230) 
0.00013254

>  <i_epik_Tot_Q>  (230) 
1

>  <i_epik_Tot_abs_Q>  (230) 
1

>  <s_lp_Force_Field>  (230) 
OPLS3e

>  <r_lp_Energy>  (230) 
14.0444

>  <b_lp_Chiralities_Consistent>  (230) 
1

>  <s_lp_Variant>  (230) 
72:0-1

>  <s_i_glide_gridfile>  (230) 
pfpi4k_grid

>  <i_i_glide_lignum>  (230) 
10

>  <i_i_glide_rotatable_bonds>  (230) 
0

>  <r_i_docking_score>  (230) 
-3.0301

>  <r_i_glide_ligand_efficiency>  (230) 
-0.216436

>  <r_i_glide_ligand_efficiency_sa>  (230) 
-0.521641

>  <r_i_glide_ligand_efficiency_ln>  (230) 
-0.832662

>  <r_i_glide_gscore>  (230) 
-3.0301

>  <r_i_glide_lipo>  (230) 
-0.410971

>  <r_i_glide_hbond>  (230) 
0

>  <r_i_glide_metal>  (230) 
-0

>  <r_i_glide_rewards>  (230) 
-2.08407

>  <r_i_glide_evdw>  (230) 
0.253962

>  <r_i_glide_ecoul>  (230) 
-3.65174

>  <r_i_glide_erotb>  (230) 
0

>  <r_i_glide_esite>  (230) 
0

>  <r_i_glide_emodel>  (230) 
-7.01455

>  <r_i_glide_energy>  (230) 
-3.39778

>  <r_i_glide_einternal>  (230) 
0

>  <r_i_glide_intrahb_reward>  (230) 
-0

>  <i_i_glide_confnum>  (230) 
2

>  <i_i_glide_posenum>  (230) 
2

>  <r_i_glide_eff_state_penalty>  (230) 
0

>  <ligand_id>  (230) 
72

>  <original_smiles>  (230) 
CC12CC3CC(C)(C1)CC(C)(C2)C3N

>  <smiles>  (230) 
[H]C([H])([H])C12C([H])([H])C3([H])C([H])([H])C(C([H])([H])[H])(C1([H])[H])C([H])([H])C(C([H])([H])[H])(C2([H])[H])C3([H])[N+]([H])([H])[H]

$$$$
73:0:0
     RDKit          3D

 54 59  0  0  1  0  0  0  0  0999 V2000
    2.6189    0.3596   -5.2758 C   0  0  0  0  0  0  0  0  0  0  0  0
    3.4680    0.3211   -4.1414 O   0  0  0  0  0  0  0  0  0  0  0  0
    3.6087   -0.8617   -3.4571 C   0  0  0  0  0  0  0  0  0  0  0  0
    2.7233   -1.9574   -3.5443 C   0  0  0  0  0  0  0  0  0  0  0  0
    2.9732   -3.1206   -2.7978 C   0  0  0  0  0  0  0  0  0  0  0  0
    4.1241   -3.2132   -1.9803 C   0  0  0  0  0  0  0  0  0  0  0  0
    4.9970   -2.1332   -1.8870 C   0  0  0  0  0  0  0  0  0  0  0  0
    4.7234   -0.9509   -2.6011 C   0  0  0  0  0  0  0  0  0  0  0  0
    6.2461   -2.2750   -1.0395 C   0  0  0  0  0  0  0  0  0  0  0  0
    6.0929   -3.0775    0.2963 C   0  0  2  0  0  0  0  0  0  0  0  0
    7.1806   -4.0072    0.3817 O   0  0  0  0  0  0  0  0  0  0  0  0
    8.5208   -3.5189    0.3490 C   0  0  0  0  0  0  0  0  0  0  0  0
    4.8512   -4.0464    0.2943 C   0  0  2  0  0  0  0  0  0  0  0  0
    4.4161   -4.4326   -1.1214 C   0  0  0  0  0  0  0  0  0  0  0  0
    3.7470   -3.3097    1.0377 C   0  0  1  0  0  0  0  0  0  0  0  0
    2.2829   -3.6584    1.1436 C   0  0  0  0  0  0  0  0  0  0  0  0
    1.8351   -2.6301    2.2492 C   0  0  0  0  0  0  0  0  0  0  0  0
    3.0705   -1.9228    2.7168 N   0  0  2  0  0  0  0  0  0  0  0  0
    3.2197   -0.5539    2.0468 C   0  0  0  0  0  0  0  0  0  0  0  0
    4.5063   -0.1996    1.2221 C   0  0  0  0  0  0  0  0  0  0  0  0
    5.7448   -0.7065    1.9024 C   0  0  2  0  0  0  0  0  0  0  0  0
    5.8042   -0.1846    3.2290 O   0  0  0  0  0  0  0  0  0  0  0  0
    7.0150   -1.0497    1.4084 O   0  0  0  0  0  0  0  0  0  0  0  0
    6.1341   -2.1680    1.5870 C   0  0  2  0  0  0  0  0  0  0  0  0
    5.5635   -2.8767    2.7851 C   0  0  0  0  0  0  0  0  0  0  0  0
    4.0595   -3.0093    2.4843 C   0  0  2  0  0  0  0  0  0  0  0  0
    2.5827    1.3824   -5.6480 H   0  0  0  0  0  0  0  0  0  0  0  0
    1.5884    0.0525   -5.0967 H   0  0  0  0  0  0  0  0  0  0  0  0
    3.0492   -0.2569   -6.0608 H   0  0  0  0  0  0  0  0  0  0  0  0
    1.8296   -1.9243   -4.1502 H   0  0  0  0  0  0  0  0  0  0  0  0
    2.2669   -3.9309   -2.8449 H   0  0  0  0  0  0  0  0  0  0  0  0
    5.3983   -0.1154   -2.5180 H   0  0  0  0  0  0  0  0  0  0  0  0
    6.9032   -2.8336   -1.7046 H   0  0  0  0  0  0  0  0  0  0  0  0
    6.7078   -1.3094   -0.8848 H   0  0  0  0  0  0  0  0  0  0  0  0
    9.1842   -4.3809    0.3170 H   0  0  0  0  0  0  0  0  0  0  0  0
    8.7858   -2.9545    1.2380 H   0  0  0  0  0  0  0  0  0  0  0  0
    8.7510   -2.9112   -0.5261 H   0  0  0  0  0  0  0  0  0  0  0  0
    5.0767   -4.9594    0.8495 H   0  0  0  0  0  0  0  0  0  0  0  0
    3.5221   -5.0292   -1.0131 H   0  0  0  0  0  0  0  0  0  0  0  0
    5.1938   -5.0294   -1.6014 H   0  0  0  0  0  0  0  0  0  0  0  0
    3.6539   -2.4125    0.4375 H   0  0  0  0  0  0  0  0  0  0  0  0
    1.8284   -3.4842    0.1638 H   0  0  0  0  0  0  0  0  0  0  0  0
    2.1044   -4.6920    1.4614 H   0  0  0  0  0  0  0  0  0  0  0  0
    1.0356   -1.9515    1.9425 H   0  0  0  0  0  0  0  0  0  0  0  0
    1.4472   -3.1956    3.0989 H   0  0  0  0  0  0  0  0  0  0  0  0
    2.3703   -0.3569    1.3903 H   0  0  0  0  0  0  0  0  0  0  0  0
    3.1273    0.1751    2.8489 H   0  0  0  0  0  0  0  0  0  0  0  0
    4.4782   -0.5412    0.1897 H   0  0  0  0  0  0  0  0  0  0  0  0
    4.5519    0.8870    1.1210 H   0  0  0  0  0  0  0  0  0  0  0  0
    5.2856   -0.7056    3.8237 H   0  0  0  0  0  0  0  0  0  0  0  0
    6.0131   -3.8688    2.8134 H   0  0  0  0  0  0  0  0  0  0  0  0
    5.7874   -2.4453    3.7583 H   0  0  0  0  0  0  0  0  0  0  0  0
    3.7635   -3.8587    3.1052 H   0  0  0  0  0  0  0  0  0  0  0  0
    2.9879   -1.7689    3.7130 H   0  0  0  0  0  0  0  0  0  0  0  0
  1  2  1  0
  1 27  1  0
  1 28  1  0
  1 29  1  0
  2  3  1  0
  3  8  2  0
  3  4  1  0
  4  5  2  0
  4 30  1  0
  5  6  1  0
  5 31  1  0
  6 14  1  0
  6  7  2  0
  7  8  1  0
  7  9  1  0
  8 32  1  0
  9 10  1  0
  9 33  1  0
  9 34  1  0
 10 24  1  0
 10 11  1  1
 10 13  1  0
 11 12  1  0
 12 35  1  0
 12 36  1  0
 12 37  1  0
 13 14  1  0
 13 15  1  0
 13 38  1  1
 14 39  1  0
 14 40  1  0
 15 26  1  0
 15 16  1  0
 15 41  1  6
 16 17  1  0
 16 42  1  0
 16 43  1  0
 17 18  1  0
 17 44  1  0
 17 45  1  0
 18 26  1  0
 18 19  1  0
 18 54  1  1
 19 20  1  0
 19 46  1  0
 19 47  1  0
 20 21  1  0
 20 48  1  0
 20 49  1  0
 21 24  1  0
 21 22  1  1
 21 23  1  0
 22 50  1  0
 24 23  1  1
 24 25  1  0
 25 26  1  0
 25 51  1  0
 25 52  1  0
 26 53  1  1
M  CHG  1  18   1
M  END
>  <i_m_ct_stereo_status>  (231) 
1

>  <s_m_source_file>  (231) 
/var/tmp/pbs.5076255.sched01/tmpyqr7shjn/887d44c5qo.sdf

>  <i_m_source_file_index>  (231) 
11

>  <i_lp_mmshare_version>  (231) 
48012

>  <i_f3d_flags>  (231) 
0

>  <s_epik_input>  (231) 
W0NIM11PYyhbY0hdW2NIXTEpW2NIXWMoW0NIMl0yKWMxW0NIMl1bQ0BASF0oW0NAQF0yKEMzNDUpT1tDSDNdKVtDQEBIXTZbQ0BASF0oW0NIMl01KU4oW0NIMl1bQ0gyXTYpW0NIMl1bQ0gyXVtDQEBdMyhPNClbT0hd

>  <s_epik_cmdline>  (231) 
J2VwaWtfcHl0aG9uJywgJy1waHQnLCAnMi4wJywgJy1waCcsICc3LjAnLCAnLXRuJywgJzgnLCAnLW1hJywgJzIwMCcsICctaW1hZScsICc8aW5maWxlLm1hZT4nLCAnLW9tYWUnLCAnPG91dGZpbGUubWFlPic=

>  <r_lp_tautomer_probability>  (231) 
1

>  <r_epik_Ionization_Penalty>  (231) 
0.0141322

>  <r_epik_Ionization_Penalty_Charging>  (231) 
0.0139415

>  <r_epik_Ionization_Penalty_Neutral>  (231) 
0.000190701

>  <r_epik_State_Penalty>  (231) 
0.010878

>  <r_epik_Charging_Adjusted_Penalty>  (231) 
0.0248194

>  <i_epik_Tot_Q>  (231) 
1

>  <i_epik_Tot_abs_Q>  (231) 
1

>  <s_lp_Force_Field>  (231) 
OPLS3e

>  <r_lp_Energy>  (231) 
117.749

>  <b_lp_Chiralities_Consistent>  (231) 
1

>  <s_lp_Variant>  (231) 
73:0-1

>  <s_i_glide_gridfile>  (231) 
pfpi4k_grid

>  <i_i_glide_lignum>  (231) 
11

>  <i_i_glide_rotatable_bonds>  (231) 
3

>  <r_i_docking_score>  (231) 
-3.71939

>  <r_i_glide_ligand_efficiency>  (231) 
-0.143053

>  <r_i_glide_ligand_efficiency_sa>  (231) 
-0.423795

>  <r_i_glide_ligand_efficiency_ln>  (231) 
-0.873486

>  <r_i_glide_gscore>  (231) 
-3.71939

>  <r_i_glide_lipo>  (231) 
-0.999696

>  <r_i_glide_hbond>  (231) 
0

>  <r_i_glide_metal>  (231) 
-0

>  <r_i_glide_rewards>  (231) 
-1.07023

>  <r_i_glide_evdw>  (231) 
-22.6562

>  <r_i_glide_ecoul>  (231) 
-3.43388

>  <r_i_glide_erotb>  (231) 
0

>  <r_i_glide_esite>  (231) 
-0.00156458

>  <r_i_glide_emodel>  (231) 
-30.7566

>  <r_i_glide_energy>  (231) 
-26.0901

>  <r_i_glide_einternal>  (231) 
2.16527

>  <r_i_glide_intrahb_reward>  (231) 
-0

>  <i_i_glide_confnum>  (231) 
1

>  <i_i_glide_posenum>  (231) 
14

>  <r_i_glide_eff_state_penalty>  (231) 
0

>  <ligand_id>  (231) 
73

>  <original_smiles>  (231) 
COc1ccc2c(c1)CC1(OC)C(C2)C2CCN3CCC4(O)OC41CC23

>  <smiles>  (231) 
[H]OC12OC13C([H])([H])C1([H])C([H])(C([H])([H])C([H])([H])[N+]1([H])C([H])([H])C2([H])[H])C1([H])C([H])([H])c2c([H])c([H])c(OC([H])([H])[H])c([H])c2C([H])([H])C13OC([H])([H])[H]

$$$$
73:0:1
     RDKit          3D

 54 59  0  0  1  0  0  0  0  0999 V2000
    0.0464   -7.5065    1.3557 C   0  0  0  0  0  0  0  0  0  0  0  0
    0.2673   -6.4201    2.2423 O   0  0  0  0  0  0  0  0  0  0  0  0
    1.5687   -6.0435    2.4521 C   0  0  0  0  0  0  0  0  0  0  0  0
    1.9433   -5.5641    3.7266 C   0  0  0  0  0  0  0  0  0  0  0  0
    3.2562   -5.1467    3.9800 C   0  0  0  0  0  0  0  0  0  0  0  0
    4.2082   -5.1798    2.9466 C   0  0  0  0  0  0  0  0  0  0  0  0
    3.8375   -5.6371    1.6600 C   0  0  0  0  0  0  0  0  0  0  0  0
    2.5374   -6.0626    1.4137 C   0  0  0  0  0  0  0  0  0  0  0  0
    4.8725   -5.7243    0.5459 C   0  0  0  0  0  0  0  0  0  0  0  0
    5.9572   -4.5950    0.5640 C   0  0  2  0  0  0  0  0  0  0  0  0
    7.2655   -5.1412    0.3005 O   0  0  0  0  0  0  0  0  0  0  0  0
    7.9083   -6.0531    1.1924 C   0  0  0  0  0  0  0  0  0  0  0  0
    6.0840   -3.8560    1.9593 C   0  0  2  0  0  0  0  0  0  0  0  0
    5.6178   -4.7011    3.1769 C   0  0  0  0  0  0  0  0  0  0  0  0
    5.2596   -2.5801    1.8479 C   0  0  1  0  0  0  0  0  0  0  0  0
    4.8686   -1.5928    2.9377 C   0  0  0  0  0  0  0  0  0  0  0  0
    4.2800   -0.4306    2.0702 C   0  0  0  0  0  0  0  0  0  0  0  0
    4.5155   -0.7960    0.6250 N   0  0  2  0  0  0  0  0  0  0  0  0
    3.2680   -1.4039   -0.0141 C   0  0  0  0  0  0  0  0  0  0  0  0
    3.2897   -2.8320   -0.6812 C   0  0  0  0  0  0  0  0  0  0  0  0
    4.5481   -3.0377   -1.4727 C   0  0  2  0  0  0  0  0  0  0  0  0
    4.6641   -2.0111   -2.4634 O   0  0  0  0  0  0  0  0  0  0  0  0
    5.2377   -4.2029   -1.8425 O   0  0  0  0  0  0  0  0  0  0  0  0
    5.7614   -3.5697   -0.6512 C   0  0  2  0  0  0  0  0  0  0  0  0
    6.4928   -2.2744   -0.4057 C   0  0  0  0  0  0  0  0  0  0  0  0
    5.7541   -1.6154    0.7853 C   0  0  2  0  0  0  0  0  0  0  0  0
   -1.0248   -7.6919    1.2508 H   0  0  0  0  0  0  0  0  0  0  0  0
    0.5137   -8.4009    1.7695 H   0  0  0  0  0  0  0  0  0  0  0  0
    0.4454   -7.3219    0.3608 H   0  0  0  0  0  0  0  0  0  0  0  0
    1.2009   -5.5227    4.5171 H   0  0  0  0  0  0  0  0  0  0  0  0
    3.5515   -4.8108    4.9657 H   0  0  0  0  0  0  0  0  0  0  0  0
    2.3186   -6.3896    0.4057 H   0  0  0  0  0  0  0  0  0  0  0  0
    5.3427   -6.6928    0.6908 H   0  0  0  0  0  0  0  0  0  0  0  0
    4.3929   -5.8168   -0.4313 H   0  0  0  0  0  0  0  0  0  0  0  0
    8.9070   -6.2820    0.8033 H   0  0  0  0  0  0  0  0  0  0  0  0
    7.3758   -6.9953    1.2516 H   0  0  0  0  0  0  0  0  0  0  0  0
    7.9977   -5.6484    2.1987 H   0  0  0  0  0  0  0  0  0  0  0  0
    7.1111   -3.5233    2.0777 H   0  0  0  0  0  0  0  0  0  0  0  0
    5.6769   -4.1162    4.1066 H   0  0  0  0  0  0  0  0  0  0  0  0
    6.2066   -5.6117    3.3066 H   0  0  0  0  0  0  0  0  0  0  0  0
    4.2806   -2.9796    1.6139 H   0  0  0  0  0  0  0  0  0  0  0  0
    4.1179   -2.0043    3.6200 H   0  0  0  0  0  0  0  0  0  0  0  0
    5.7319   -1.2377    3.5073 H   0  0  0  0  0  0  0  0  0  0  0  0
    3.2380   -0.1895    2.2944 H   0  0  0  0  0  0  0  0  0  0  0  0
    4.8657    0.4711    2.2715 H   0  0  0  0  0  0  0  0  0  0  0  0
    2.4542   -1.4039    0.7178 H   0  0  0  0  0  0  0  0  0  0  0  0
    3.0165   -0.6770   -0.7852 H   0  0  0  0  0  0  0  0  0  0  0  0
    3.1298   -3.6441    0.0230 H   0  0  0  0  0  0  0  0  0  0  0  0
    2.4442   -2.8916   -1.3595 H   0  0  0  0  0  0  0  0  0  0  0  0
    4.4710   -1.1601   -2.0794 H   0  0  0  0  0  0  0  0  0  0  0  0
    7.5112   -2.5301   -0.1092 H   0  0  0  0  0  0  0  0  0  0  0  0
    6.6065   -1.6273   -1.2748 H   0  0  0  0  0  0  0  0  0  0  0  0
    6.5237   -0.9500    1.1974 H   0  0  0  0  0  0  0  0  0  0  0  0
    4.7422    0.0444    0.1182 H   0  0  0  0  0  0  0  0  0  0  0  0
  1  2  1  0
  1 27  1  0
  1 28  1  0
  1 29  1  0
  2  3  1  0
  3  8  2  0
  3  4  1  0
  4  5  2  0
  4 30  1  0
  5  6  1  0
  5 31  1  0
  6 14  1  0
  6  7  2  0
  7  8  1  0
  7  9  1  0
  8 32  1  0
  9 10  1  0
  9 33  1  0
  9 34  1  0
 10 24  1  0
 10 11  1  6
 10 13  1  0
 11 12  1  0
 12 35  1  0
 12 36  1  0
 12 37  1  0
 13 14  1  0
 13 15  1  0
 13 38  1  1
 14 39  1  0
 14 40  1  0
 15 26  1  0
 15 16  1  0
 15 41  1  6
 16 17  1  0
 16 42  1  0
 16 43  1  0
 17 18  1  0
 17 44  1  0
 17 45  1  0
 18 26  1  0
 18 19  1  0
 18 54  1  6
 19 20  1  0
 19 46  1  0
 19 47  1  0
 20 21  1  0
 20 48  1  0
 20 49  1  0
 21 24  1  0
 21 22  1  6
 21 23  1  0
 22 50  1  0
 24 23  1  6
 24 25  1  0
 25 26  1  0
 25 51  1  0
 25 52  1  0
 26 53  1  1
M  CHG  1  18   1
M  END
>  <i_m_ct_stereo_status>  (232) 
1

>  <s_m_source_file>  (232) 
/var/tmp/pbs.5076255.sched01/tmpyqr7shjn/887d44c5qo.sdf

>  <i_m_source_file_index>  (232) 
11

>  <i_lp_mmshare_version>  (232) 
48012

>  <i_f3d_flags>  (232) 
0

>  <s_epik_input>  (232) 
W0NIM11PYyhbY0hdW2NIXTEpW2NIXWMoW0NIMl0yKWMxW0NIMl1bQ0BASF0oW0NAQF0yKEMzNDUpT1tDSDNdKVtDQEBIXTZbQ0BASF0oW0NIMl01KU4oW0NIMl1bQ0gyXTYpW0NIMl1bQ0gyXVtDQEBdMyhPNClbT0hd

>  <s_epik_cmdline>  (232) 
J2VwaWtfcHl0aG9uJywgJy1waHQnLCAnMi4wJywgJy1waCcsICc3LjAnLCAnLXRuJywgJzgnLCAnLW1hJywgJzIwMCcsICctaW1hZScsICc8aW5maWxlLm1hZT4nLCAnLW9tYWUnLCAnPG91dGZpbGUubWFlPic=

>  <r_lp_tautomer_probability>  (232) 
1

>  <r_epik_Ionization_Penalty>  (232) 
0.0141322

>  <r_epik_Ionization_Penalty_Charging>  (232) 
0.0139415

>  <r_epik_Ionization_Penalty_Neutral>  (232) 
0.000190701

>  <r_epik_State_Penalty>  (232) 
0.010878

>  <r_epik_Charging_Adjusted_Penalty>  (232) 
0.0248194

>  <i_epik_Tot_Q>  (232) 
1

>  <i_epik_Tot_abs_Q>  (232) 
1

>  <s_lp_Force_Field>  (232) 
OPLS3e

>  <r_lp_Energy>  (232) 
117.749

>  <b_lp_Chiralities_Consistent>  (232) 
1

>  <s_lp_Variant>  (232) 
73:0-1

>  <s_i_glide_gridfile>  (232) 
pfpi4k_grid

>  <i_i_glide_lignum>  (232) 
11

>  <i_i_glide_rotatable_bonds>  (232) 
3

>  <r_i_docking_score>  (232) 
-3.57946

>  <r_i_glide_ligand_efficiency>  (232) 
-0.137672

>  <r_i_glide_ligand_efficiency_sa>  (232) 
-0.407852

>  <r_i_glide_ligand_efficiency_ln>  (232) 
-0.840625

>  <r_i_glide_gscore>  (232) 
-3.57946

>  <r_i_glide_lipo>  (232) 
-0.65458

>  <r_i_glide_hbond>  (232) 
-0.14309

>  <r_i_glide_metal>  (232) 
-0

>  <r_i_glide_rewards>  (232) 
-0.965105

>  <r_i_glide_evdw>  (232) 
-20.5535

>  <r_i_glide_ecoul>  (232) 
-5.2239

>  <r_i_glide_erotb>  (232) 
0

>  <r_i_glide_esite>  (232) 
-0.00542936

>  <r_i_glide_emodel>  (232) 
-25.6995

>  <r_i_glide_energy>  (232) 
-25.7774

>  <r_i_glide_einternal>  (232) 
10.6645

>  <r_i_glide_intrahb_reward>  (232) 
-0

>  <i_i_glide_confnum>  (232) 
1

>  <i_i_glide_posenum>  (232) 
10

>  <r_i_glide_eff_state_penalty>  (232) 
0

>  <ligand_id>  (232) 
73

>  <original_smiles>  (232) 
COc1ccc2c(c1)CC1(OC)C(C2)C2CCN3CCC4(O)OC41CC23

>  <smiles>  (232) 
[H]OC12OC13C([H])([H])C1([H])C([H])(C([H])([H])C([H])([H])[N+]1([H])C([H])([H])C2([H])[H])C1([H])C([H])([H])c2c([H])c([H])c(OC([H])([H])[H])c([H])c2C([H])([H])C13OC([H])([H])[H]

$$$$
73:0:2
     RDKit          3D

 54 59  0  0  1  0  0  0  0  0999 V2000
    3.8219    1.0242   -4.4726 C   0  0  0  0  0  0  0  0  0  0  0  0
    2.8756    0.0082   -4.1782 O   0  0  0  0  0  0  0  0  0  0  0  0
    3.3109   -1.0770   -3.4517 C   0  0  0  0  0  0  0  0  0  0  0  0
    2.5170   -2.2351   -3.4606 C   0  0  0  0  0  0  0  0  0  0  0  0
    2.8756   -3.3770   -2.7269 C   0  0  0  0  0  0  0  0  0  0  0  0
    4.0796   -3.3760   -1.9894 C   0  0  0  0  0  0  0  0  0  0  0  0
    4.8682   -2.2209   -1.9623 C   0  0  0  0  0  0  0  0  0  0  0  0
    4.5008   -1.0743   -2.6648 C   0  0  0  0  0  0  0  0  0  0  0  0
    6.1597   -2.2381   -1.1918 C   0  0  0  0  0  0  0  0  0  0  0  0
    6.1582   -3.0521    0.1426 C   0  0  2  0  0  0  0  0  0  0  0  0
    7.3351   -3.8723    0.1471 O   0  0  0  0  0  0  0  0  0  0  0  0
    8.6162   -3.2482    0.0261 C   0  0  0  0  0  0  0  0  0  0  0  0
    5.0127   -4.1228    0.2181 C   0  0  2  0  0  0  0  0  0  0  0  0
    4.5630   -4.5517   -1.1653 C   0  0  0  0  0  0  0  0  0  0  0  0
    3.8711   -3.4780    1.0104 C   0  0  1  0  0  0  0  0  0  0  0  0
    2.4464   -3.9517    1.2441 C   0  0  0  0  0  0  0  0  0  0  0  0
    2.0084   -2.9599    2.3806 C   0  0  0  0  0  0  0  0  0  0  0  0
    3.2125   -2.1510    2.7580 N   0  0  2  0  0  0  0  0  0  0  0  0
    3.2034   -0.7824    2.0882 C   0  0  0  0  0  0  0  0  0  0  0  0
    4.4009   -0.3162    1.1754 C   0  0  0  0  0  0  0  0  0  0  0  0
    5.7425   -0.7139    1.7663 C   0  0  2  0  0  0  0  0  0  0  0  0
    5.8313   -0.2220    3.0971 O   0  0  0  0  0  0  0  0  0  0  0  0
    7.0245   -1.0432    1.2345 O   0  0  0  0  0  0  0  0  0  0  0  0
    6.1749   -2.1596    1.4305 C   0  0  2  0  0  0  0  0  0  0  0  0
    5.7433   -2.9143    2.6449 C   0  0  0  0  0  0  0  0  0  0  0  0
    4.2541   -3.1570    2.4332 C   0  0  2  0  0  0  0  0  0  0  0  0
    3.3599    1.8655   -4.9938 H   0  0  0  0  0  0  0  0  0  0  0  0
    4.5814    0.5882   -5.1240 H   0  0  0  0  0  0  0  0  0  0  0  0
    4.3085    1.4471   -3.5896 H   0  0  0  0  0  0  0  0  0  0  0  0
    1.5767   -2.2620   -4.0029 H   0  0  0  0  0  0  0  0  0  0  0  0
    2.2057   -4.2272   -2.7483 H   0  0  0  0  0  0  0  0  0  0  0  0
    5.1432   -0.2181   -2.5553 H   0  0  0  0  0  0  0  0  0  0  0  0
    6.8185   -2.7261   -1.9055 H   0  0  0  0  0  0  0  0  0  0  0  0
    6.5304   -1.2296   -1.0634 H   0  0  0  0  0  0  0  0  0  0  0  0
    9.3628   -4.0382   -0.0451 H   0  0  0  0  0  0  0  0  0  0  0  0
    8.8722   -2.6322    0.8807 H   0  0  0  0  0  0  0  0  0  0  0  0
    8.7343   -2.6280   -0.8614 H   0  0  0  0  0  0  0  0  0  0  0  0
    5.3562   -5.0064    0.7632 H   0  0  0  0  0  0  0  0  0  0  0  0
    3.7835   -5.2597   -0.9519 H   0  0  0  0  0  0  0  0  0  0  0  0
    5.3789   -5.0331   -1.7070 H   0  0  0  0  0  0  0  0  0  0  0  0
    3.6687   -2.5894    0.4239 H   0  0  0  0  0  0  0  0  0  0  0  0
    1.8546   -3.8407    0.3302 H   0  0  0  0  0  0  0  0  0  0  0  0
    2.4104   -4.9923    1.5807 H   0  0  0  0  0  0  0  0  0  0  0  0
    1.1408   -2.3541    2.1302 H   0  0  0  0  0  0  0  0  0  0  0  0
    1.7346   -3.5633    3.2476 H   0  0  0  0  0  0  0  0  0  0  0  0
    2.3021   -0.6586    1.4924 H   0  0  0  0  0  0  0  0  0  0  0  0
    3.1023   -0.0610    2.8958 H   0  0  0  0  0  0  0  0  0  0  0  0
    4.3197   -0.6502    0.1442 H   0  0  0  0  0  0  0  0  0  0  0  0
    4.3527    0.7670    1.1030 H   0  0  0  0  0  0  0  0  0  0  0  0
    6.7102    0.1287    3.2089 H   0  0  0  0  0  0  0  0  0  0  0  0
    6.2551   -3.8725    2.6241 H   0  0  0  0  0  0  0  0  0  0  0  0
    5.9578   -2.4586    3.6032 H   0  0  0  0  0  0  0  0  0  0  0  0
    4.0881   -4.0233    3.0785 H   0  0  0  0  0  0  0  0  0  0  0  0
    3.2180   -1.9985    3.7531 H   0  0  0  0  0  0  0  0  0  0  0  0
  1  2  1  0
  1 27  1  0
  1 28  1  0
  1 29  1  0
  2  3  1  0
  3  8  2  0
  3  4  1  0
  4  5  2  0
  4 30  1  0
  5  6  1  0
  5 31  1  0
  6 14  1  0
  6  7  2  0
  7  8  1  0
  7  9  1  0
  8 32  1  0
  9 10  1  0
  9 33  1  0
  9 34  1  0
 10 24  1  0
 10 11  1  6
 10 13  1  0
 11 12  1  0
 12 35  1  0
 12 36  1  0
 12 37  1  0
 13 14  1  0
 13 15  1  0
 13 38  1  1
 14 39  1  0
 14 40  1  0
 15 26  1  0
 15 16  1  0
 15 41  1  6
 16 17  1  0
 16 42  1  0
 16 43  1  0
 17 18  1  0
 17 44  1  0
 17 45  1  0
 18 26  1  0
 18 19  1  0
 18 54  1  1
 19 20  1  0
 19 46  1  0
 19 47  1  0
 20 21  1  0
 20 48  1  0
 20 49  1  0
 21 24  1  0
 21 22  1  1
 21 23  1  0
 22 50  1  0
 24 23  1  1
 24 25  1  0
 25 26  1  0
 25 51  1  0
 25 52  1  0
 26 53  1  1
M  CHG  1  18   1
M  END
>  <i_m_ct_stereo_status>  (233) 
1

>  <s_m_source_file>  (233) 
/var/tmp/pbs.5076255.sched01/tmpyqr7shjn/887d44c5qo.sdf

>  <i_m_source_file_index>  (233) 
11

>  <i_lp_mmshare_version>  (233) 
48012

>  <i_f3d_flags>  (233) 
0

>  <s_epik_input>  (233) 
W0NIM11PYyhbY0hdW2NIXTEpW2NIXWMoW0NIMl0yKWMxW0NIMl1bQ0BASF0oW0NAQF0yKEMzNDUpT1tDSDNdKVtDQEBIXTZbQ0BASF0oW0NIMl01KU4oW0NIMl1bQ0gyXTYpW0NIMl1bQ0gyXVtDQEBdMyhPNClbT0hd

>  <s_epik_cmdline>  (233) 
J2VwaWtfcHl0aG9uJywgJy1waHQnLCAnMi4wJywgJy1waCcsICc3LjAnLCAnLXRuJywgJzgnLCAnLW1hJywgJzIwMCcsICctaW1hZScsICc8aW5maWxlLm1hZT4nLCAnLW9tYWUnLCAnPG91dGZpbGUubWFlPic=

>  <r_lp_tautomer_probability>  (233) 
1

>  <r_epik_Ionization_Penalty>  (233) 
0.0141322

>  <r_epik_Ionization_Penalty_Charging>  (233) 
0.0139415

>  <r_epik_Ionization_Penalty_Neutral>  (233) 
0.000190701

>  <r_epik_State_Penalty>  (233) 
0.010878

>  <r_epik_Charging_Adjusted_Penalty>  (233) 
0.0248194

>  <i_epik_Tot_Q>  (233) 
1

>  <i_epik_Tot_abs_Q>  (233) 
1

>  <s_lp_Force_Field>  (233) 
OPLS3e

>  <r_lp_Energy>  (233) 
117.749

>  <b_lp_Chiralities_Consistent>  (233) 
1

>  <s_lp_Variant>  (233) 
73:0-1

>  <s_i_glide_gridfile>  (233) 
pfpi4k_grid

>  <i_i_glide_lignum>  (233) 
11

>  <i_i_glide_rotatable_bonds>  (233) 
3

>  <r_i_docking_score>  (233) 
-3.57375

>  <r_i_glide_ligand_efficiency>  (233) 
-0.137452

>  <r_i_glide_ligand_efficiency_sa>  (233) 
-0.4072

>  <r_i_glide_ligand_efficiency_ln>  (233) 
-0.839283

>  <r_i_glide_gscore>  (233) 
-3.57375

>  <r_i_glide_lipo>  (233) 
-0.881473

>  <r_i_glide_hbond>  (233) 
0

>  <r_i_glide_metal>  (233) 
-0

>  <r_i_glide_rewards>  (233) 
-1.07658

>  <r_i_glide_evdw>  (233) 
-20.8955

>  <r_i_glide_ecoul>  (233) 
-3.80319

>  <r_i_glide_erotb>  (233) 
0

>  <r_i_glide_esite>  (233) 
-0.00043916

>  <r_i_glide_emodel>  (233) 
-26.8994

>  <r_i_glide_energy>  (233) 
-24.6986

>  <r_i_glide_einternal>  (233) 
6.05435

>  <r_i_glide_intrahb_reward>  (233) 
-0

>  <i_i_glide_confnum>  (233) 
2

>  <i_i_glide_posenum>  (233) 
27

>  <r_i_glide_eff_state_penalty>  (233) 
0

>  <ligand_id>  (233) 
73

>  <original_smiles>  (233) 
COc1ccc2c(c1)CC1(OC)C(C2)C2CCN3CCC4(O)OC41CC23

>  <smiles>  (233) 
[H]OC12OC13C([H])([H])C1([H])C([H])(C([H])([H])C([H])([H])[N+]1([H])C([H])([H])C2([H])[H])C1([H])C([H])([H])c2c([H])c([H])c(OC([H])([H])[H])c([H])c2C([H])([H])C13OC([H])([H])[H]

$$$$
73:1:0
     RDKit          3D

 54 59  0  0  1  0  0  0  0  0999 V2000
    3.0166    0.5841   -4.9788 C   0  0  0  0  0  0  0  0  0  0  0  0
    2.6148   -0.1021   -3.8015 O   0  0  0  0  0  0  0  0  0  0  0  0
    3.5017   -1.0234   -3.3432 C   0  0  0  0  0  0  0  0  0  0  0  0
    3.5028   -2.3445   -3.8479 C   0  0  0  0  0  0  0  0  0  0  0  0
    4.3237   -3.3054   -3.2552 C   0  0  0  0  0  0  0  0  0  0  0  0
    5.0946   -2.9549   -2.1346 C   0  0  0  0  0  0  0  0  0  0  0  0
    5.0867   -1.6461   -1.6143 C   0  0  0  0  0  0  0  0  0  0  0  0
    4.3082   -0.6768   -2.2416 C   0  0  0  0  0  0  0  0  0  0  0  0
    5.9735   -1.2827   -0.4337 C   0  0  0  0  0  0  0  0  0  0  0  0
    6.2734   -2.4074    0.6088 C   0  0  2  0  0  0  0  0  0  0  0  0
    7.7035   -2.4388    0.8723 O   0  0  0  0  0  0  0  0  0  0  0  0
    8.6904   -2.8300   -0.1270 C   0  0  0  0  0  0  0  0  0  0  0  0
    5.9186   -3.8615    0.0860 C   0  0  2  0  0  0  0  0  0  0  0  0
    5.9551   -3.9865   -1.4585 C   0  0  0  0  0  0  0  0  0  0  0  0
    4.5136   -4.1216    0.6125 C   0  0  1  0  0  0  0  0  0  0  0  0
    3.5025   -5.1853    0.2112 C   0  0  0  0  0  0  0  0  0  0  0  0
    2.3402   -4.8668    1.1889 C   0  0  0  0  0  0  0  0  0  0  0  0
    2.9232   -3.7636    2.0194 N   0  0  1  0  0  0  0  0  0  0  0  0
    2.3168   -2.4111    2.2760 C   0  0  0  0  0  0  0  0  0  0  0  0
    3.1876   -1.2048    1.7912 C   0  0  0  0  0  0  0  0  0  0  0  0
    4.4775   -1.1830    2.5668 C   0  0  2  0  0  0  0  0  0  0  0  0
    4.1847   -1.0810    3.9529 O   0  0  0  0  0  0  0  0  0  0  0  0
    5.7167   -0.6277    2.2819 O   0  0  0  0  0  0  0  0  0  0  0  0
    5.6523   -2.0506    2.0227 C   0  0  2  0  0  0  0  0  0  0  0  0
    5.4077   -3.2827    2.8465 C   0  0  0  0  0  0  0  0  0  0  0  0
    4.3604   -4.1223    2.1163 C   0  0  2  0  0  0  0  0  0  0  0  0
    2.2525    1.3331   -5.1720 H   0  0  0  0  0  0  0  0  0  0  0  0
    3.0547   -0.0972   -5.8203 H   0  0  0  0  0  0  0  0  0  0  0  0
    3.9604    1.0983   -4.8456 H   0  0  0  0  0  0  0  0  0  0  0  0
    2.8134   -2.6132   -4.6223 H   0  0  0  0  0  0  0  0  0  0  0  0
    4.3378   -4.3266   -3.6090 H   0  0  0  0  0  0  0  0  0  0  0  0
    4.2521    0.3118   -1.8285 H   0  0  0  0  0  0  0  0  0  0  0  0
    6.9276   -1.1148   -0.9087 H   0  0  0  0  0  0  0  0  0  0  0  0
    5.7381   -0.3023   -0.0048 H   0  0  0  0  0  0  0  0  0  0  0  0
    9.6568   -2.9338    0.4006 H   0  0  0  0  0  0  0  0  0  0  0  0
    8.8448   -2.0360   -0.8635 H   0  0  0  0  0  0  0  0  0  0  0  0
    8.5008   -3.7669   -0.6057 H   0  0  0  0  0  0  0  0  0  0  0  0
    6.5773   -4.6146    0.5326 H   0  0  0  0  0  0  0  0  0  0  0  0
    5.5181   -4.9699   -1.7002 H   0  0  0  0  0  0  0  0  0  0  0  0
    6.9214   -3.8441   -1.9217 H   0  0  0  0  0  0  0  0  0  0  0  0
    4.0310   -3.2447    0.1713 H   0  0  0  0  0  0  0  0  0  0  0  0
    3.1838   -4.9829   -0.7959 H   0  0  0  0  0  0  0  0  0  0  0  0
    3.8599   -6.2091    0.3052 H   0  0  0  0  0  0  0  0  0  0  0  0
    1.4505   -4.6074    0.6310 H   0  0  0  0  0  0  0  0  0  0  0  0
    2.0991   -5.7168    1.8207 H   0  0  0  0  0  0  0  0  0  0  0  0
    1.3785   -2.3719    1.7402 H   0  0  0  0  0  0  0  0  0  0  0  0
    2.0541   -2.3572    3.3308 H   0  0  0  0  0  0  0  0  0  0  0  0
    3.3581   -1.2158    0.7101 H   0  0  0  0  0  0  0  0  0  0  0  0
    2.6371   -0.2922    1.9866 H   0  0  0  0  0  0  0  0  0  0  0  0
    3.8554   -0.2164    4.1350 H   0  0  0  0  0  0  0  0  0  0  0  0
    6.2926   -3.8955    2.8113 H   0  0  0  0  0  0  0  0  0  0  0  0
    5.2045   -3.1339    3.8996 H   0  0  0  0  0  0  0  0  0  0  0  0
    4.4335   -5.1291    2.5262 H   0  0  0  0  0  0  0  0  0  0  0  0
    3.1549   -3.3255    1.1422 H   0  0  0  0  0  0  0  0  0  0  0  0
  1  2  1  0
  1 27  1  0
  1 28  1  0
  1 29  1  0
  2  3  1  0
  3  8  2  0
  3  4  1  0
  4  5  2  0
  4 30  1  0
  5  6  1  0
  5 31  1  0
  6 14  1  0
  6  7  2  0
  7  8  1  0
  7  9  1  0
  8 32  1  0
  9 10  1  0
  9 33  1  0
  9 34  1  0
 10 24  1  0
 10 11  1  1
 10 13  1  0
 11 12  1  0
 12 35  1  0
 12 36  1  0
 12 37  1  0
 13 14  1  0
 13 15  1  0
 13 38  1  1
 14 39  1  0
 14 40  1  0
 15 26  1  0
 15 16  1  0
 15 41  1  6
 16 17  1  0
 16 42  1  0
 16 43  1  0
 17 18  1  0
 17 44  1  0
 17 45  1  0
 18 26  1  0
 18 19  1  0
 18 54  1  1
 19 20  1  0
 19 46  1  0
 19 47  1  0
 20 21  1  0
 20 48  1  0
 20 49  1  0
 21 24  1  0
 21 22  1  1
 21 23  1  0
 22 50  1  0
 24 23  1  1
 24 25  1  0
 25 26  1  0
 25 51  1  0
 25 52  1  0
 26 53  1  1
M  CHG  1  18   1
M  END
>  <i_m_ct_stereo_status>  (234) 
1

>  <s_m_source_file>  (234) 
/var/tmp/pbs.5076255.sched01/tmpyqr7shjn/887d44c5qo.sdf

>  <i_m_source_file_index>  (234) 
12

>  <i_lp_mmshare_version>  (234) 
48012

>  <i_f3d_flags>  (234) 
0

>  <s_epik_input>  (234) 
W0NIM11PYyhbY0hdW2NIXTEpW2NIXWMoW0NIMl0yKWMxW0NIMl1bQ0BASF0oW0NAQF0yKEMzNDUpT1tDSDNdKVtDQEBIXTZbQ0BASF0oW0NIMl01KU4oW0NIMl1bQ0gyXTYpW0NIMl1bQ0gyXVtDQEBdMyhPNClbT0hd

>  <s_epik_cmdline>  (234) 
J2VwaWtfcHl0aG9uJywgJy1waHQnLCAnMi4wJywgJy1waCcsICc3LjAnLCAnLXRuJywgJzgnLCAnLW1hJywgJzIwMCcsICctaW1hZScsICc8aW5maWxlLm1hZT4nLCAnLW9tYWUnLCAnPG91dGZpbGUubWFlPic=

>  <r_lp_tautomer_probability>  (234) 
1

>  <r_epik_Ionization_Penalty>  (234) 
0.0141322

>  <r_epik_Ionization_Penalty_Charging>  (234) 
0.0139415

>  <r_epik_Ionization_Penalty_Neutral>  (234) 
0.000190701

>  <r_epik_State_Penalty>  (234) 
0.010878

>  <r_epik_Charging_Adjusted_Penalty>  (234) 
0.0248194

>  <i_epik_Tot_Q>  (234) 
1

>  <i_epik_Tot_abs_Q>  (234) 
1

>  <s_lp_Force_Field>  (234) 
OPLS3e

>  <r_lp_Energy>  (234) 
148.64

>  <b_lp_Chiralities_Consistent>  (234) 
1

>  <s_lp_Variant>  (234) 
73:0-2

>  <s_i_glide_gridfile>  (234) 
pfpi4k_grid

>  <i_i_glide_lignum>  (234) 
12

>  <i_i_glide_rotatable_bonds>  (234) 
3

>  <r_i_docking_score>  (234) 
-3.16644

>  <r_i_glide_ligand_efficiency>  (234) 
-0.121786

>  <r_i_glide_ligand_efficiency_sa>  (234) 
-0.360791

>  <r_i_glide_ligand_efficiency_ln>  (234) 
-0.743627

>  <r_i_glide_gscore>  (234) 
-3.16644

>  <r_i_glide_lipo>  (234) 
-0.861823

>  <r_i_glide_hbond>  (234) 
0

>  <r_i_glide_metal>  (234) 
-0

>  <r_i_glide_rewards>  (234) 
-1.02851

>  <r_i_glide_evdw>  (234) 
-19.3168

>  <r_i_glide_ecoul>  (234) 
-2.05144

>  <r_i_glide_erotb>  (234) 
0

>  <r_i_glide_esite>  (234) 
-0.00254465

>  <r_i_glide_emodel>  (234) 
-16.4591

>  <r_i_glide_energy>  (234) 
-21.3682

>  <r_i_glide_einternal>  (234) 
11.6059

>  <r_i_glide_intrahb_reward>  (234) 
-0

>  <i_i_glide_confnum>  (234) 
1

>  <i_i_glide_posenum>  (234) 
4

>  <r_i_glide_eff_state_penalty>  (234) 
0

>  <ligand_id>  (234) 
73

>  <original_smiles>  (234) 
COc1ccc2c(c1)CC1(OC)C(C2)C2CCN3CCC4(O)OC41CC23

>  <smiles>  (234) 
[H]OC12OC13C([H])([H])C1([H])C([H])(C([H])([H])C([H])([H])[N+]1([H])C([H])([H])C2([H])[H])C1([H])C([H])([H])c2c([H])c([H])c(OC([H])([H])[H])c([H])c2C([H])([H])C13OC([H])([H])[H]

$$$$
73:1:1
     RDKit          3D

 54 59  0  0  1  0  0  0  0  0999 V2000
    6.4461   -9.2720    1.8429 C   0  0  0  0  0  0  0  0  0  0  0  0
    5.1798   -9.0834    1.2147 O   0  0  0  0  0  0  0  0  0  0  0  0
    4.4532   -7.9723    1.5577 C   0  0  0  0  0  0  0  0  0  0  0  0
    3.0628   -8.0111    1.3390 C   0  0  0  0  0  0  0  0  0  0  0  0
    2.2431   -6.9053    1.6356 C   0  0  0  0  0  0  0  0  0  0  0  0
    2.8379   -5.7345    2.1869 C   0  0  0  0  0  0  0  0  0  0  0  0
    4.2165   -5.6894    2.4001 C   0  0  0  0  0  0  0  0  0  0  0  0
    5.0292   -6.7828    2.0960 C   0  0  0  0  0  0  0  0  0  0  0  0
    4.8496   -4.4472    2.9805 C   0  0  0  0  0  0  0  0  0  0  0  0
    4.2259   -3.0925    2.5373 C   0  0  2  0  0  0  0  0  0  0  0  0
    3.9719   -2.3283    3.7137 O   0  0  0  0  0  0  0  0  0  0  0  0
    5.0740   -1.8681    4.4907 C   0  0  0  0  0  0  0  0  0  0  0  0
    2.7648   -3.2285    1.9245 C   0  0  2  0  0  0  0  0  0  0  0  0
    2.0399   -4.4837    2.4893 C   0  0  0  0  0  0  0  0  0  0  0  0
    2.9963   -3.2702    0.4046 C   0  0  1  0  0  0  0  0  0  0  0  0
    2.0761   -3.6963   -0.7682 C   0  0  0  0  0  0  0  0  0  0  0  0
    2.9920   -3.3541   -1.9877 C   0  0  0  0  0  0  0  0  0  0  0  0
    4.1491   -2.7275   -1.3370 N   0  0  1  0  0  0  0  0  0  0  0  0
    5.5437   -3.1897   -1.5922 C   0  0  0  0  0  0  0  0  0  0  0  0
    6.2817   -3.6912   -0.3090 C   0  0  0  0  0  0  0  0  0  0  0  0
    6.3959   -2.5308    0.6494 C   0  0  2  0  0  0  0  0  0  0  0  0
    7.0939   -1.4757   -0.0004 O   0  0  0  0  0  0  0  0  0  0  0  0
    6.6127   -2.4672    2.0056 O   0  0  0  0  0  0  0  0  0  0  0  0
    5.2203   -2.2392    1.6361 C   0  0  2  0  0  0  0  0  0  0  0  0
    4.4653   -1.2086    0.8242 C   0  0  0  0  0  0  0  0  0  0  0  0
    3.6159   -2.0024   -0.1693 C   0  0  2  0  0  0  0  0  0  0  0  0
    6.9381  -10.1918    1.5016 H   0  0  0  0  0  0  0  0  0  0  0  0
    6.2795   -9.3523    2.9212 H   0  0  0  0  0  0  0  0  0  0  0  0
    7.1626   -8.4705    1.6498 H   0  0  0  0  0  0  0  0  0  0  0  0
    2.6147   -8.9175    0.9270 H   0  0  0  0  0  0  0  0  0  0  0  0
    1.1750   -6.9428    1.4493 H   0  0  0  0  0  0  0  0  0  0  0  0
    6.0835   -6.6481    2.2772 H   0  0  0  0  0  0  0  0  0  0  0  0
    4.6736   -4.5683    4.0436 H   0  0  0  0  0  0  0  0  0  0  0  0
    5.9381   -4.4955    2.8864 H   0  0  0  0  0  0  0  0  0  0  0  0
    4.6970   -1.4393    5.4213 H   0  0  0  0  0  0  0  0  0  0  0  0
    5.6339   -1.0822    3.9836 H   0  0  0  0  0  0  0  0  0  0  0  0
    5.7663   -2.6630    4.7649 H   0  0  0  0  0  0  0  0  0  0  0  0
    2.1785   -2.3350    2.1626 H   0  0  0  0  0  0  0  0  0  0  0  0
    1.0335   -4.6217    2.0876 H   0  0  0  0  0  0  0  0  0  0  0  0
    1.9600   -4.3948    3.5787 H   0  0  0  0  0  0  0  0  0  0  0  0
    3.6928   -4.1163    0.3767 H   0  0  0  0  0  0  0  0  0  0  0  0
    1.7893   -4.7531   -0.7166 H   0  0  0  0  0  0  0  0  0  0  0  0
    1.1918   -3.0635   -0.8851 H   0  0  0  0  0  0  0  0  0  0  0  0
    3.2807   -4.2122   -2.5881 H   0  0  0  0  0  0  0  0  0  0  0  0
    2.4744   -2.6305   -2.6181 H   0  0  0  0  0  0  0  0  0  0  0  0
    5.5205   -4.0196   -2.2892 H   0  0  0  0  0  0  0  0  0  0  0  0
    6.0982   -2.4042   -2.0835 H   0  0  0  0  0  0  0  0  0  0  0  0
    5.8263   -4.5641    0.1835 H   0  0  0  0  0  0  0  0  0  0  0  0
    7.3062   -3.9841   -0.5692 H   0  0  0  0  0  0  0  0  0  0  0  0
    6.4768   -0.7724   -0.1070 H   0  0  0  0  0  0  0  0  0  0  0  0
    3.8203   -0.6867    1.5216 H   0  0  0  0  0  0  0  0  0  0  0  0
    5.0678   -0.4340    0.3695 H   0  0  0  0  0  0  0  0  0  0  0  0
    2.8837   -1.2958   -0.5160 H   0  0  0  0  0  0  0  0  0  0  0  0
    4.1407   -3.5476   -0.7449 H   0  0  0  0  0  0  0  0  0  0  0  0
  1  2  1  0
  1 27  1  0
  1 28  1  0
  1 29  1  0
  2  3  1  0
  3  8  2  0
  3  4  1  0
  4  5  2  0
  4 30  1  0
  5  6  1  0
  5 31  1  0
  6 14  1  0
  6  7  2  0
  7  8  1  0
  7  9  1  0
  8 32  1  0
  9 10  1  0
  9 33  1  0
  9 34  1  0
 10 24  1  0
 10 11  1  1
 10 13  1  0
 11 12  1  0
 12 35  1  0
 12 36  1  0
 12 37  1  0
 13 14  1  0
 13 15  1  0
 13 38  1  6
 14 39  1  0
 14 40  1  0
 15 26  1  0
 15 16  1  0
 15 41  1  1
 16 17  1  0
 16 42  1  0
 16 43  1  0
 17 18  1  0
 17 44  1  0
 17 45  1  0
 18 26  1  0
 18 19  1  0
 18 54  1  6
 19 20  1  0
 19 46  1  0
 19 47  1  0
 20 21  1  0
 20 48  1  0
 20 49  1  0
 21 24  1  0
 21 22  1  6
 21 23  1  0
 22 50  1  0
 24 23  1  1
 24 25  1  0
 25 26  1  0
 25 51  1  0
 25 52  1  0
 26 53  1  6
M  CHG  1  18   1
M  END
>  <i_m_ct_stereo_status>  (235) 
1

>  <s_m_source_file>  (235) 
/var/tmp/pbs.5076255.sched01/tmpyqr7shjn/887d44c5qo.sdf

>  <i_m_source_file_index>  (235) 
12

>  <i_lp_mmshare_version>  (235) 
48012

>  <i_f3d_flags>  (235) 
0

>  <s_epik_input>  (235) 
W0NIM11PYyhbY0hdW2NIXTEpW2NIXWMoW0NIMl0yKWMxW0NIMl1bQ0BASF0oW0NAQF0yKEMzNDUpT1tDSDNdKVtDQEBIXTZbQ0BASF0oW0NIMl01KU4oW0NIMl1bQ0gyXTYpW0NIMl1bQ0gyXVtDQEBdMyhPNClbT0hd

>  <s_epik_cmdline>  (235) 
J2VwaWtfcHl0aG9uJywgJy1waHQnLCAnMi4wJywgJy1waCcsICc3LjAnLCAnLXRuJywgJzgnLCAnLW1hJywgJzIwMCcsICctaW1hZScsICc8aW5maWxlLm1hZT4nLCAnLW9tYWUnLCAnPG91dGZpbGUubWFlPic=

>  <r_lp_tautomer_probability>  (235) 
1

>  <r_epik_Ionization_Penalty>  (235) 
0.0141322

>  <r_epik_Ionization_Penalty_Charging>  (235) 
0.0139415

>  <r_epik_Ionization_Penalty_Neutral>  (235) 
0.000190701

>  <r_epik_State_Penalty>  (235) 
0.010878

>  <r_epik_Charging_Adjusted_Penalty>  (235) 
0.0248194

>  <i_epik_Tot_Q>  (235) 
1

>  <i_epik_Tot_abs_Q>  (235) 
1

>  <s_lp_Force_Field>  (235) 
OPLS3e

>  <r_lp_Energy>  (235) 
148.64

>  <b_lp_Chiralities_Consistent>  (235) 
1

>  <s_lp_Variant>  (235) 
73:0-2

>  <s_i_glide_gridfile>  (235) 
pfpi4k_grid

>  <i_i_glide_lignum>  (235) 
12

>  <i_i_glide_rotatable_bonds>  (235) 
3

>  <r_i_docking_score>  (235) 
-2.88508

>  <r_i_glide_ligand_efficiency>  (235) 
-0.110965

>  <r_i_glide_ligand_efficiency_sa>  (235) 
-0.328732

>  <r_i_glide_ligand_efficiency_ln>  (235) 
-0.677552

>  <r_i_glide_gscore>  (235) 
-2.88508

>  <r_i_glide_lipo>  (235) 
-0.451918

>  <r_i_glide_hbond>  (235) 
0

>  <r_i_glide_metal>  (235) 
-0

>  <r_i_glide_rewards>  (235) 
-1.07811

>  <r_i_glide_evdw>  (235) 
-10.6921

>  <r_i_glide_ecoul>  (235) 
-5.348

>  <r_i_glide_erotb>  (235) 
0

>  <r_i_glide_esite>  (235) 
-0.0182465

>  <r_i_glide_emodel>  (235) 
-14.4638

>  <r_i_glide_energy>  (235) 
-16.0401

>  <r_i_glide_einternal>  (235) 
4.8631

>  <r_i_glide_intrahb_reward>  (235) 
-0

>  <i_i_glide_confnum>  (235) 
2

>  <i_i_glide_posenum>  (235) 
7

>  <r_i_glide_eff_state_penalty>  (235) 
0

>  <ligand_id>  (235) 
73

>  <original_smiles>  (235) 
COc1ccc2c(c1)CC1(OC)C(C2)C2CCN3CCC4(O)OC41CC23

>  <smiles>  (235) 
[H]OC12OC13C([H])([H])C1([H])C([H])(C([H])([H])C([H])([H])[N+]1([H])C([H])([H])C2([H])[H])C1([H])C([H])([H])c2c([H])c([H])c(OC([H])([H])[H])c([H])c2C([H])([H])C13OC([H])([H])[H]

$$$$
73:1:2
     RDKit          3D

 54 59  0  0  1  0  0  0  0  0999 V2000
    2.2590   -0.0979   -5.1424 C   0  0  0  0  0  0  0  0  0  0  0  0
    2.9193    0.1530   -3.9257 O   0  0  0  0  0  0  0  0  0  0  0  0
    3.6868   -0.8329   -3.3913 C   0  0  0  0  0  0  0  0  0  0  0  0
    3.8267   -2.1486   -3.8912 C   0  0  0  0  0  0  0  0  0  0  0  0
    4.6640   -3.0639   -3.2341 C   0  0  0  0  0  0  0  0  0  0  0  0
    5.2989   -2.6736   -2.0328 C   0  0  0  0  0  0  0  0  0  0  0  0
    5.1396   -1.3812   -1.5248 C   0  0  0  0  0  0  0  0  0  0  0  0
    4.3719   -0.4644   -2.2317 C   0  0  0  0  0  0  0  0  0  0  0  0
    5.8060   -0.9586   -0.2268 C   0  0  0  0  0  0  0  0  0  0  0  0
    6.0567   -2.0728    0.8233 C   0  0  2  0  0  0  0  0  0  0  0  0
    7.4378   -1.9965    1.2551 O   0  0  0  0  0  0  0  0  0  0  0  0
    8.5649   -2.3287    0.4089 C   0  0  0  0  0  0  0  0  0  0  0  0
    5.8839   -3.5568    0.2489 C   0  0  2  0  0  0  0  0  0  0  0  0
    6.1506   -3.6589   -1.2835 C   0  0  0  0  0  0  0  0  0  0  0  0
    4.4593   -3.9030    0.6047 C   0  0  1  0  0  0  0  0  0  0  0  0
    3.5733   -5.0201    0.0803 C   0  0  0  0  0  0  0  0  0  0  0  0
    2.2836   -4.7617    0.9034 C   0  0  0  0  0  0  0  0  0  0  0  0
    2.7122   -3.6500    1.8211 N   0  0  1  0  0  0  0  0  0  0  0  0
    1.9933   -2.3137    2.0377 C   0  0  0  0  0  0  0  0  0  0  0  0
    2.8437   -1.0714    1.6701 C   0  0  0  0  0  0  0  0  0  0  0  0
    4.0070   -0.9851    2.5853 C   0  0  2  0  0  0  0  0  0  0  0  0
    3.5616   -0.9460    3.9337 O   0  0  0  0  0  0  0  0  0  0  0  0
    5.2650   -0.3677    2.4639 O   0  0  0  0  0  0  0  0  0  0  0  0
    5.2656   -1.7923    2.1580 C   0  0  2  0  0  0  0  0  0  0  0  0
    5.0541   -3.0321    2.9417 C   0  0  0  0  0  0  0  0  0  0  0  0
    4.1404   -3.9297    2.0838 C   0  0  2  0  0  0  0  0  0  0  0  0
    1.6578    0.7558   -5.4334 H   0  0  0  0  0  0  0  0  0  0  0  0
    1.5604   -0.9262   -5.0606 H   0  0  0  0  0  0  0  0  0  0  0  0
    3.0040   -0.2696   -5.9204 H   0  0  0  0  0  0  0  0  0  0  0  0
    3.2896   -2.4709   -4.7561 H   0  0  0  0  0  0  0  0  0  0  0  0
    4.8074   -4.0612   -3.5962 H   0  0  0  0  0  0  0  0  0  0  0  0
    4.2507    0.5330   -1.8761 H   0  0  0  0  0  0  0  0  0  0  0  0
    6.7905   -0.6918   -0.5219 H   0  0  0  0  0  0  0  0  0  0  0  0
    5.4886    0.0072    0.1784 H   0  0  0  0  0  0  0  0  0  0  0  0
    9.4648   -2.3758    1.0477 H   0  0  0  0  0  0  0  0  0  0  0  0
    8.7922   -1.5062   -0.2968 H   0  0  0  0  0  0  0  0  0  0  0  0
    8.5408   -3.2675   -0.0830 H   0  0  0  0  0  0  0  0  0  0  0  0
    6.5439   -4.2504    0.7876 H   0  0  0  0  0  0  0  0  0  0  0  0
    5.7842   -4.6553   -1.5714 H   0  0  0  0  0  0  0  0  0  0  0  0
    7.1336   -3.4568   -1.6369 H   0  0  0  0  0  0  0  0  0  0  0  0
    3.9725   -3.0467    0.1204 H   0  0  0  0  0  0  0  0  0  0  0  0
    3.4022   -4.8369   -0.9693 H   0  0  0  0  0  0  0  0  0  0  0  0
    3.9830   -6.0135    0.2341 H   0  0  0  0  0  0  0  0  0  0  0  0
    1.4667   -4.5484    0.2325 H   0  0  0  0  0  0  0  0  0  0  0  0
    2.0227   -5.6338    1.4926 H   0  0  0  0  0  0  0  0  0  0  0  0
    1.1349   -2.2065    1.4079 H   0  0  0  0  0  0  0  0  0  0  0  0
    1.5994   -2.3189    3.0479 H   0  0  0  0  0  0  0  0  0  0  0  0
    3.1259   -1.0590    0.6069 H   0  0  0  0  0  0  0  0  0  0  0  0
    2.2012   -0.2065    1.7997 H   0  0  0  0  0  0  0  0  0  0  0  0
    3.5775   -1.8013    4.3078 H   0  0  0  0  0  0  0  0  0  0  0  0
    6.0017   -3.5392    3.0358 H   0  0  0  0  0  0  0  0  0  0  0  0
    4.7144   -2.9282    3.9658 H   0  0  0  0  0  0  0  0  0  0  0  0
    4.2256   -4.9352    2.4927 H   0  0  0  0  0  0  0  0  0  0  0  0
    3.0089   -3.1827    0.9802 H   0  0  0  0  0  0  0  0  0  0  0  0
  1  2  1  0
  1 27  1  0
  1 28  1  0
  1 29  1  0
  2  3  1  0
  3  8  2  0
  3  4  1  0
  4  5  2  0
  4 30  1  0
  5  6  1  0
  5 31  1  0
  6 14  1  0
  6  7  2  0
  7  8  1  0
  7  9  1  0
  8 32  1  0
  9 10  1  0
  9 33  1  0
  9 34  1  0
 10 24  1  0
 10 11  1  1
 10 13  1  0
 11 12  1  0
 12 35  1  0
 12 36  1  0
 12 37  1  0
 13 14  1  0
 13 15  1  0
 13 38  1  1
 14 39  1  0
 14 40  1  0
 15 26  1  0
 15 16  1  0
 15 41  1  6
 16 17  1  0
 16 42  1  0
 16 43  1  0
 17 18  1  0
 17 44  1  0
 17 45  1  0
 18 26  1  0
 18 19  1  0
 18 54  1  1
 19 20  1  0
 19 46  1  0
 19 47  1  0
 20 21  1  0
 20 48  1  0
 20 49  1  0
 21 24  1  0
 21 22  1  1
 21 23  1  0
 22 50  1  0
 24 23  1  1
 24 25  1  0
 25 26  1  0
 25 51  1  0
 25 52  1  0
 26 53  1  1
M  CHG  1  18   1
M  END
>  <i_m_ct_stereo_status>  (236) 
1

>  <s_m_source_file>  (236) 
/var/tmp/pbs.5076255.sched01/tmpyqr7shjn/887d44c5qo.sdf

>  <i_m_source_file_index>  (236) 
12

>  <i_lp_mmshare_version>  (236) 
48012

>  <i_f3d_flags>  (236) 
0

>  <s_epik_input>  (236) 
W0NIM11PYyhbY0hdW2NIXTEpW2NIXWMoW0NIMl0yKWMxW0NIMl1bQ0BASF0oW0NAQF0yKEMzNDUpT1tDSDNdKVtDQEBIXTZbQ0BASF0oW0NIMl01KU4oW0NIMl1bQ0gyXTYpW0NIMl1bQ0gyXVtDQEBdMyhPNClbT0hd

>  <s_epik_cmdline>  (236) 
J2VwaWtfcHl0aG9uJywgJy1waHQnLCAnMi4wJywgJy1waCcsICc3LjAnLCAnLXRuJywgJzgnLCAnLW1hJywgJzIwMCcsICctaW1hZScsICc8aW5maWxlLm1hZT4nLCAnLW9tYWUnLCAnPG91dGZpbGUubWFlPic=

>  <r_lp_tautomer_probability>  (236) 
1

>  <r_epik_Ionization_Penalty>  (236) 
0.0141322

>  <r_epik_Ionization_Penalty_Charging>  (236) 
0.0139415

>  <r_epik_Ionization_Penalty_Neutral>  (236) 
0.000190701

>  <r_epik_State_Penalty>  (236) 
0.010878

>  <r_epik_Charging_Adjusted_Penalty>  (236) 
0.0248194

>  <i_epik_Tot_Q>  (236) 
1

>  <i_epik_Tot_abs_Q>  (236) 
1

>  <s_lp_Force_Field>  (236) 
OPLS3e

>  <r_lp_Energy>  (236) 
148.64

>  <b_lp_Chiralities_Consistent>  (236) 
1

>  <s_lp_Variant>  (236) 
73:0-2

>  <s_i_glide_gridfile>  (236) 
pfpi4k_grid

>  <i_i_glide_lignum>  (236) 
12

>  <i_i_glide_rotatable_bonds>  (236) 
3

>  <r_i_docking_score>  (236) 
-2.83981

>  <r_i_glide_ligand_efficiency>  (236) 
-0.109223

>  <r_i_glide_ligand_efficiency_sa>  (236) 
-0.323574

>  <r_i_glide_ligand_efficiency_ln>  (236) 
-0.66692

>  <r_i_glide_gscore>  (236) 
-2.83981

>  <r_i_glide_lipo>  (236) 
-0.942964

>  <r_i_glide_hbond>  (236) 
-0.0643535

>  <r_i_glide_metal>  (236) 
-0

>  <r_i_glide_rewards>  (236) 
-0.988913

>  <r_i_glide_evdw>  (236) 
-8.71384

>  <r_i_glide_ecoul>  (236) 
-2.67725

>  <r_i_glide_erotb>  (236) 
0

>  <r_i_glide_esite>  (236) 
-0.00629771

>  <r_i_glide_emodel>  (236) 
-9.1161

>  <r_i_glide_energy>  (236) 
-11.3911

>  <r_i_glide_einternal>  (236) 
5.87945

>  <r_i_glide_intrahb_reward>  (236) 
-0

>  <i_i_glide_confnum>  (236) 
1

>  <i_i_glide_posenum>  (236) 
16

>  <r_i_glide_eff_state_penalty>  (236) 
0

>  <ligand_id>  (236) 
73

>  <original_smiles>  (236) 
COc1ccc2c(c1)CC1(OC)C(C2)C2CCN3CCC4(O)OC41CC23

>  <smiles>  (236) 
[H]OC12OC13C([H])([H])C1([H])C([H])(C([H])([H])C([H])([H])[N+]1([H])C([H])([H])C2([H])[H])C1([H])C([H])([H])c2c([H])c([H])c(OC([H])([H])[H])c([H])c2C([H])([H])C13OC([H])([H])[H]

$$$$
73:3:0
     RDKit          3D

 54 59  0  0  1  0  0  0  0  0999 V2000
    0.2223   -8.3166    3.3704 C   0  0  0  0  0  0  0  0  0  0  0  0
    1.2049   -8.0931    2.3683 O   0  0  0  0  0  0  0  0  0  0  0  0
    2.1953   -7.1714    2.6127 C   0  0  0  0  0  0  0  0  0  0  0  0
    2.2454   -6.3280    3.7534 C   0  0  0  0  0  0  0  0  0  0  0  0
    3.2829   -5.3920    3.9101 C   0  0  0  0  0  0  0  0  0  0  0  0
    4.2749   -5.2832    2.9188 C   0  0  0  0  0  0  0  0  0  0  0  0
    4.2400   -6.1173    1.7904 C   0  0  0  0  0  0  0  0  0  0  0  0
    3.2122   -7.0651    1.6463 C   0  0  0  0  0  0  0  0  0  0  0  0
    5.3173   -5.9766    0.7340 C   0  0  0  0  0  0  0  0  0  0  0  0
    5.6909   -4.4914    0.4094 C   0  0  2  0  0  0  0  0  0  0  0  0
    7.0892   -4.4595    0.0884 O   0  0  0  0  0  0  0  0  0  0  0  0
    8.0975   -4.6820    1.0753 C   0  0  0  0  0  0  0  0  0  0  0  0
    5.4437   -3.4626    1.6691 C   0  0  2  0  0  0  0  0  0  0  0  0
    5.3646   -4.2285    3.0016 C   0  0  0  0  0  0  0  0  0  0  0  0
    4.2208   -2.4454    1.5764 C   0  0  1  0  0  0  0  0  0  0  0  0
    4.4414   -0.9417    1.8397 C   0  0  0  0  0  0  0  0  0  0  0  0
    3.6207   -0.1975    0.7323 C   0  0  0  0  0  0  0  0  0  0  0  0
    3.4184   -1.1313   -0.4181 N   0  0  1  0  0  0  0  0  0  0  0  0
    4.0905   -0.8560   -1.7507 C   0  0  0  0  0  0  0  0  0  0  0  0
    4.4292   -2.1018   -2.6747 C   0  0  0  0  0  0  0  0  0  0  0  0
    5.3575   -3.2044   -2.0811 C   0  0  2  0  0  0  0  0  0  0  0  0
    6.7279   -2.8526   -2.0587 O   0  0  0  0  0  0  0  0  0  0  0  0
    5.0185   -4.5970   -2.1956 O   0  0  0  0  0  0  0  0  0  0  0  0
    4.8723   -4.0509   -0.8833 C   0  0  1  0  0  0  0  0  0  0  0  0
    3.5153   -3.6480   -0.4801 C   0  0  0  0  0  0  0  0  0  0  0  0
    3.9541   -2.3496    0.1343 C   0  0  2  0  0  0  0  0  0  0  0  0
   -0.4766   -9.0807    3.0292 H   0  0  0  0  0  0  0  0  0  0  0  0
   -0.3562   -7.4149    3.5735 H   0  0  0  0  0  0  0  0  0  0  0  0
    0.6716   -8.6743    4.2978 H   0  0  0  0  0  0  0  0  0  0  0  0
    1.4873   -6.3795    4.5188 H   0  0  0  0  0  0  0  0  0  0  0  0
    3.3075   -4.7393    4.7711 H   0  0  0  0  0  0  0  0  0  0  0  0
    3.1992   -7.7110    0.7811 H   0  0  0  0  0  0  0  0  0  0  0  0
    6.1500   -6.5169    1.1731 H   0  0  0  0  0  0  0  0  0  0  0  0
    5.0972   -6.5408   -0.1752 H   0  0  0  0  0  0  0  0  0  0  0  0
    9.0781   -4.7215    0.6007 H   0  0  0  0  0  0  0  0  0  0  0  0
    7.9857   -5.6085    1.6408 H   0  0  0  0  0  0  0  0  0  0  0  0
    8.1549   -3.8617    1.7836 H   0  0  0  0  0  0  0  0  0  0  0  0
    6.2976   -2.7834    1.7085 H   0  0  0  0  0  0  0  0  0  0  0  0
    5.2022   -3.5485    3.8386 H   0  0  0  0  0  0  0  0  0  0  0  0
    6.2978   -4.7527    3.1998 H   0  0  0  0  0  0  0  0  0  0  0  0
    3.3281   -2.8080    2.0917 H   0  0  0  0  0  0  0  0  0  0  0  0
    4.1246   -0.6547    2.8413 H   0  0  0  0  0  0  0  0  0  0  0  0
    5.4941   -0.6677    1.7468 H   0  0  0  0  0  0  0  0  0  0  0  0
    2.6323    0.0198    1.1276 H   0  0  0  0  0  0  0  0  0  0  0  0
    4.0591    0.7580    0.4557 H   0  0  0  0  0  0  0  0  0  0  0  0
    3.4251   -0.2262   -2.3291 H   0  0  0  0  0  0  0  0  0  0  0  0
    4.9995   -0.2735   -1.5837 H   0  0  0  0  0  0  0  0  0  0  0  0
    3.5030   -2.5359   -3.0585 H   0  0  0  0  0  0  0  0  0  0  0  0
    4.9024   -1.7177   -3.5728 H   0  0  0  0  0  0  0  0  0  0  0  0
    7.1196   -3.0765   -2.8964 H   0  0  0  0  0  0  0  0  0  0  0  0
    2.8303   -3.5490   -1.3223 H   0  0  0  0  0  0  0  0  0  0  0  0
    3.0604   -4.3420    0.2331 H   0  0  0  0  0  0  0  0  0  0  0  0
    4.9951   -2.0528   -0.0768 H   0  0  0  0  0  0  0  0  0  0  0  0
    2.4043   -1.2113   -0.5689 H   0  0  0  0  0  0  0  0  0  0  0  0
  1  2  1  0
  1 27  1  0
  1 28  1  0
  1 29  1  0
  2  3  1  0
  3  8  2  0
  3  4  1  0
  4  5  2  0
  4 30  1  0
  5  6  1  0
  5 31  1  0
  6 14  1  0
  6  7  2  0
  7  8  1  0
  7  9  1  0
  8 32  1  0
  9 10  1  0
  9 33  1  0
  9 34  1  0
 10 24  1  0
 10 11  1  6
 10 13  1  0
 11 12  1  0
 12 35  1  0
 12 36  1  0
 12 37  1  0
 13 14  1  0
 13 15  1  0
 13 38  1  1
 14 39  1  0
 14 40  1  0
 15 26  1  0
 15 16  1  0
 15 41  1  1
 16 17  1  0
 16 42  1  0
 16 43  1  0
 17 18  1  0
 17 44  1  0
 17 45  1  0
 18 26  1  0
 18 19  1  0
 18 54  1  6
 19 20  1  0
 19 46  1  0
 19 47  1  0
 20 21  1  0
 20 48  1  0
 20 49  1  0
 21 24  1  0
 21 22  1  1
 21 23  1  0
 22 50  1  0
 24 23  1  6
 24 25  1  0
 25 26  1  0
 25 51  1  0
 25 52  1  0
 26 53  1  6
M  CHG  1  18   1
M  END
>  <i_m_ct_stereo_status>  (237) 
1

>  <s_m_source_file>  (237) 
/var/tmp/pbs.5076255.sched01/tmpyqr7shjn/887d44c5qo.sdf

>  <i_m_source_file_index>  (237) 
14

>  <i_lp_mmshare_version>  (237) 
48012

>  <i_f3d_flags>  (237) 
0

>  <s_epik_input>  (237) 
W0NIM11PYyhbY0hdW2NIXTEpW2NIXWMoW0NIMl0yKWMxW0NIMl1bQ0BASF0oW0NAQF0yKEMzNDUpT1tDSDNdKVtDQEBIXTZbQ0BASF0oW0NIMl01KU4oW0NIMl1bQ0gyXTYpW0NIMl1bQ0gyXVtDQEBdMyhPNClbT0hd

>  <s_epik_cmdline>  (237) 
J2VwaWtfcHl0aG9uJywgJy1waHQnLCAnMi4wJywgJy1waCcsICc3LjAnLCAnLXRuJywgJzgnLCAnLW1hJywgJzIwMCcsICctaW1hZScsICc8aW5maWxlLm1hZT4nLCAnLW9tYWUnLCAnPG91dGZpbGUubWFlPic=

>  <r_lp_tautomer_probability>  (237) 
1

>  <r_epik_Ionization_Penalty>  (237) 
0.0141322

>  <r_epik_Ionization_Penalty_Charging>  (237) 
0.0139415

>  <r_epik_Ionization_Penalty_Neutral>  (237) 
0.000190701

>  <r_epik_State_Penalty>  (237) 
0.010878

>  <r_epik_Charging_Adjusted_Penalty>  (237) 
0.0248194

>  <i_epik_Tot_Q>  (237) 
1

>  <i_epik_Tot_abs_Q>  (237) 
1

>  <s_lp_Force_Field>  (237) 
OPLS3e

>  <r_lp_Energy>  (237) 
108.852

>  <b_lp_Chiralities_Consistent>  (237) 
1

>  <s_lp_Variant>  (237) 
73:0-4

>  <s_i_glide_gridfile>  (237) 
pfpi4k_grid

>  <i_i_glide_lignum>  (237) 
14

>  <i_i_glide_rotatable_bonds>  (237) 
3

>  <r_i_docking_score>  (237) 
-4.03549

>  <r_i_glide_ligand_efficiency>  (237) 
-0.155211

>  <r_i_glide_ligand_efficiency_sa>  (237) 
-0.459812

>  <r_i_glide_ligand_efficiency_ln>  (237) 
-0.947722

>  <r_i_glide_gscore>  (237) 
-4.03549

>  <r_i_glide_lipo>  (237) 
-0.627351

>  <r_i_glide_hbond>  (237) 
-0.2

>  <r_i_glide_metal>  (237) 
-0

>  <r_i_glide_rewards>  (237) 
-1.16805

>  <r_i_glide_evdw>  (237) 
-18.9497

>  <r_i_glide_ecoul>  (237) 
-6.6608

>  <r_i_glide_erotb>  (237) 
0

>  <r_i_glide_esite>  (237) 
-0.0934835

>  <r_i_glide_emodel>  (237) 
-32.0599

>  <r_i_glide_energy>  (237) 
-25.6105

>  <r_i_glide_einternal>  (237) 
2.4635

>  <r_i_glide_intrahb_reward>  (237) 
-0

>  <i_i_glide_confnum>  (237) 
1

>  <i_i_glide_posenum>  (237) 
14

>  <r_i_glide_eff_state_penalty>  (237) 
0

>  <ligand_id>  (237) 
73

>  <original_smiles>  (237) 
COc1ccc2c(c1)CC1(OC)C(C2)C2CCN3CCC4(O)OC41CC23

>  <smiles>  (237) 
[H]OC12OC13C([H])([H])C1([H])C([H])(C([H])([H])C([H])([H])[N+]1([H])C([H])([H])C2([H])[H])C1([H])C([H])([H])c2c([H])c([H])c(OC([H])([H])[H])c([H])c2C([H])([H])C13OC([H])([H])[H]

$$$$
73:3:1
     RDKit          3D

 54 59  0  0  1  0  0  0  0  0999 V2000
   -1.0522   -7.5783    3.1679 C   0  0  0  0  0  0  0  0  0  0  0  0
   -0.0704   -7.3186    2.1807 O   0  0  0  0  0  0  0  0  0  0  0  0
    1.0690   -6.6406    2.5615 C   0  0  0  0  0  0  0  0  0  0  0  0
    1.1832   -5.8689    3.7381 C   0  0  0  0  0  0  0  0  0  0  0  0
    2.3691   -5.1566    4.0191 C   0  0  0  0  0  0  0  0  0  0  0  0
    3.4434   -5.2127    3.1130 C   0  0  0  0  0  0  0  0  0  0  0  0
    3.3443   -5.9882    1.9457 C   0  0  0  0  0  0  0  0  0  0  0  0
    2.1615   -6.7073    1.6774 C   0  0  0  0  0  0  0  0  0  0  0  0
    4.5219   -6.0474    0.9875 C   0  0  0  0  0  0  0  0  0  0  0  0
    5.2456   -4.6653    0.7956 C   0  0  2  0  0  0  0  0  0  0  0  0
    6.6445   -4.8958    0.5488 O   0  0  0  0  0  0  0  0  0  0  0  0
    7.4847   -5.3794    1.6009 C   0  0  0  0  0  0  0  0  0  0  0  0
    5.0707   -3.6396    2.0615 C   0  0  2  0  0  0  0  0  0  0  0  0
    4.7082   -4.4028    3.3467 C   0  0  0  0  0  0  0  0  0  0  0  0
    4.0699   -2.4010    1.8998 C   0  0  1  0  0  0  0  0  0  0  0  0
    4.5602   -0.9606    2.2364 C   0  0  0  0  0  0  0  0  0  0  0  0
    3.9978   -0.0476    1.0795 C   0  0  0  0  0  0  0  0  0  0  0  0
    3.7064   -0.9122   -0.0924 N   0  0  1  0  0  0  0  0  0  0  0  0
    4.5791   -0.7082   -1.3187 C   0  0  0  0  0  0  0  0  0  0  0  0
    4.7511   -1.9683   -2.2666 C   0  0  0  0  0  0  0  0  0  0  0  0
    5.4442   -3.2291   -1.6384 C   0  0  2  0  0  0  0  0  0  0  0  0
    6.8245   -3.0625   -1.3916 O   0  0  0  0  0  0  0  0  0  0  0  0
    4.9889   -4.5743   -1.8642 O   0  0  0  0  0  0  0  0  0  0  0  0
    4.6901   -4.0427   -0.5531 C   0  0  1  0  0  0  0  0  0  0  0  0
    3.3785   -3.3942   -0.2659 C   0  0  0  0  0  0  0  0  0  0  0  0
    3.9720   -2.2235    0.4520 C   0  0  2  0  0  0  0  0  0  0  0  0
   -1.8594   -8.1616    2.7241 H   0  0  0  0  0  0  0  0  0  0  0  0
   -1.4940   -6.6628    3.5568 H   0  0  0  0  0  0  0  0  0  0  0  0
   -0.6371   -8.1601    3.9904 H   0  0  0  0  0  0  0  0  0  0  0  0
    0.3628   -5.7806    4.4331 H   0  0  0  0  0  0  0  0  0  0  0  0
    2.4412   -4.5451    4.9060 H   0  0  0  0  0  0  0  0  0  0  0  0
    2.0897   -7.3108    0.7917 H   0  0  0  0  0  0  0  0  0  0  0  0
    5.1656   -6.7786    1.4628 H   0  0  0  0  0  0  0  0  0  0  0  0
    4.2720   -6.4967    0.0220 H   0  0  0  0  0  0  0  0  0  0  0  0
    8.4858   -5.5652    1.2042 H   0  0  0  0  0  0  0  0  0  0  0  0
    7.1454   -6.3059    2.0593 H   0  0  0  0  0  0  0  0  0  0  0  0
    7.5950   -4.6479    2.3896 H   0  0  0  0  0  0  0  0  0  0  0  0
    6.0319   -3.1342    2.2036 H   0  0  0  0  0  0  0  0  0  0  0  0
    4.5987   -3.7237    4.1926 H   0  0  0  0  0  0  0  0  0  0  0  0
    5.5010   -5.1035    3.6024 H   0  0  0  0  0  0  0  0  0  0  0  0
    3.0752   -2.5849    2.3156 H   0  0  0  0  0  0  0  0  0  0  0  0
    4.2208   -0.6384    3.2256 H   0  0  0  0  0  0  0  0  0  0  0  0
    5.6627   -0.9126    2.2415 H   0  0  0  0  0  0  0  0  0  0  0  0
    3.0477    0.3630    1.4243 H   0  0  0  0  0  0  0  0  0  0  0  0
    4.6396    0.7984    0.8296 H   0  0  0  0  0  0  0  0  0  0  0  0
    4.2153    0.1097   -1.9383 H   0  0  0  0  0  0  0  0  0  0  0  0
    5.5695   -0.3868   -1.0257 H   0  0  0  0  0  0  0  0  0  0  0  0
    3.7958   -2.2270   -2.7300 H   0  0  0  0  0  0  0  0  0  0  0  0
    5.3636   -1.6790   -3.1049 H   0  0  0  0  0  0  0  0  0  0  0  0
    7.0323   -3.7310   -0.7368 H   0  0  0  0  0  0  0  0  0  0  0  0
    2.8077   -3.1511   -1.1562 H   0  0  0  0  0  0  0  0  0  0  0  0
    2.7217   -3.9875    0.3728 H   0  0  0  0  0  0  0  0  0  0  0  0
    5.0586   -2.1078    0.3717 H   0  0  0  0  0  0  0  0  0  0  0  0
    2.7313   -0.8455   -0.3248 H   0  0  0  0  0  0  0  0  0  0  0  0
  1  2  1  0
  1 27  1  0
  1 28  1  0
  1 29  1  0
  2  3  1  0
  3  8  2  0
  3  4  1  0
  4  5  2  0
  4 30  1  0
  5  6  1  0
  5 31  1  0
  6 14  1  0
  6  7  2  0
  7  8  1  0
  7  9  1  0
  8 32  1  0
  9 10  1  0
  9 33  1  0
  9 34  1  0
 10 24  1  0
 10 11  1  6
 10 13  1  0
 11 12  1  0
 12 35  1  0
 12 36  1  0
 12 37  1  0
 13 14  1  0
 13 15  1  0
 13 38  1  1
 14 39  1  0
 14 40  1  0
 15 26  1  0
 15 16  1  0
 15 41  1  1
 16 17  1  0
 16 42  1  0
 16 43  1  0
 17 18  1  0
 17 44  1  0
 17 45  1  0
 18 26  1  0
 18 19  1  0
 18 54  1  6
 19 20  1  0
 19 46  1  0
 19 47  1  0
 20 21  1  0
 20 48  1  0
 20 49  1  0
 21 24  1  0
 21 22  1  1
 21 23  1  0
 22 50  1  0
 24 23  1  6
 24 25  1  0
 25 26  1  0
 25 51  1  0
 25 52  1  0
 26 53  1  6
M  CHG  1  18   1
M  END
>  <i_m_ct_stereo_status>  (238) 
1

>  <s_m_source_file>  (238) 
/var/tmp/pbs.5076255.sched01/tmpyqr7shjn/887d44c5qo.sdf

>  <i_m_source_file_index>  (238) 
14

>  <i_lp_mmshare_version>  (238) 
48012

>  <i_f3d_flags>  (238) 
0

>  <s_epik_input>  (238) 
W0NIM11PYyhbY0hdW2NIXTEpW2NIXWMoW0NIMl0yKWMxW0NIMl1bQ0BASF0oW0NAQF0yKEMzNDUpT1tDSDNdKVtDQEBIXTZbQ0BASF0oW0NIMl01KU4oW0NIMl1bQ0gyXTYpW0NIMl1bQ0gyXVtDQEBdMyhPNClbT0hd

>  <s_epik_cmdline>  (238) 
J2VwaWtfcHl0aG9uJywgJy1waHQnLCAnMi4wJywgJy1waCcsICc3LjAnLCAnLXRuJywgJzgnLCAnLW1hJywgJzIwMCcsICctaW1hZScsICc8aW5maWxlLm1hZT4nLCAnLW9tYWUnLCAnPG91dGZpbGUubWFlPic=

>  <r_lp_tautomer_probability>  (238) 
1

>  <r_epik_Ionization_Penalty>  (238) 
0.0141322

>  <r_epik_Ionization_Penalty_Charging>  (238) 
0.0139415

>  <r_epik_Ionization_Penalty_Neutral>  (238) 
0.000190701

>  <r_epik_State_Penalty>  (238) 
0.010878

>  <r_epik_Charging_Adjusted_Penalty>  (238) 
0.0248194

>  <i_epik_Tot_Q>  (238) 
1

>  <i_epik_Tot_abs_Q>  (238) 
1

>  <s_lp_Force_Field>  (238) 
OPLS3e

>  <r_lp_Energy>  (238) 
108.852

>  <b_lp_Chiralities_Consistent>  (238) 
1

>  <s_lp_Variant>  (238) 
73:0-4

>  <s_i_glide_gridfile>  (238) 
pfpi4k_grid

>  <i_i_glide_lignum>  (238) 
14

>  <i_i_glide_rotatable_bonds>  (238) 
3

>  <r_i_docking_score>  (238) 
-3.81917

>  <r_i_glide_ligand_efficiency>  (238) 
-0.146891

>  <r_i_glide_ligand_efficiency_sa>  (238) 
-0.435165

>  <r_i_glide_ligand_efficiency_ln>  (238) 
-0.89692

>  <r_i_glide_gscore>  (238) 
-3.81917

>  <r_i_glide_lipo>  (238) 
-0.473323

>  <r_i_glide_hbond>  (238) 
-0.18357

>  <r_i_glide_metal>  (238) 
-0

>  <r_i_glide_rewards>  (238) 
-1.59549

>  <r_i_glide_evdw>  (238) 
-21.057

>  <r_i_glide_ecoul>  (238) 
-3.1176

>  <r_i_glide_erotb>  (238) 
0

>  <r_i_glide_esite>  (238) 
-0.0462974

>  <r_i_glide_emodel>  (238) 
-34.7404

>  <r_i_glide_energy>  (238) 
-24.1746

>  <r_i_glide_einternal>  (238) 
3.25597

>  <r_i_glide_intrahb_reward>  (238) 
-0.5

>  <i_i_glide_confnum>  (238) 
1

>  <i_i_glide_posenum>  (238) 
36

>  <r_i_glide_eff_state_penalty>  (238) 
0

>  <ligand_id>  (238) 
73

>  <original_smiles>  (238) 
COc1ccc2c(c1)CC1(OC)C(C2)C2CCN3CCC4(O)OC41CC23

>  <smiles>  (238) 
[H]OC12OC13C([H])([H])C1([H])C([H])(C([H])([H])C([H])([H])[N+]1([H])C([H])([H])C2([H])[H])C1([H])C([H])([H])c2c([H])c([H])c(OC([H])([H])[H])c([H])c2C([H])([H])C13OC([H])([H])[H]

$$$$
73:3:2
     RDKit          3D

 54 59  0  0  1  0  0  0  0  0999 V2000
    3.7834    1.0866   -4.4926 C   0  0  0  0  0  0  0  0  0  0  0  0
    3.0389   -0.1083   -4.3153 O   0  0  0  0  0  0  0  0  0  0  0  0
    3.6360   -1.0641   -3.5344 C   0  0  0  0  0  0  0  0  0  0  0  0
    3.4910   -2.4023   -3.9542 C   0  0  0  0  0  0  0  0  0  0  0  0
    4.1113   -3.4536   -3.2626 C   0  0  0  0  0  0  0  0  0  0  0  0
    4.8068   -3.1800   -2.0784 C   0  0  0  0  0  0  0  0  0  0  0  0
    4.9365   -1.8579   -1.6255 C   0  0  0  0  0  0  0  0  0  0  0  0
    4.3502   -0.8059   -2.3464 C   0  0  0  0  0  0  0  0  0  0  0  0
    5.6815   -1.5994   -0.3390 C   0  0  0  0  0  0  0  0  0  0  0  0
    5.3649   -2.6271    0.7932 C   0  0  2  0  0  0  0  0  0  0  0  0
    6.5721   -2.7870    1.5534 O   0  0  0  0  0  0  0  0  0  0  0  0
    7.6713   -3.5393    1.0186 C   0  0  0  0  0  0  0  0  0  0  0  0
    4.9003   -4.1012    0.2360 C   0  0  2  0  0  0  0  0  0  0  0  0
    5.3389   -4.3000   -1.2165 C   0  0  0  0  0  0  0  0  0  0  0  0
    3.3835   -4.5327    0.3956 C   0  0  1  0  0  0  0  0  0  0  0  0
    3.0479   -5.9017    1.0452 C   0  0  0  0  0  0  0  0  0  0  0  0
    1.8521   -5.6190    2.0219 C   0  0  0  0  0  0  0  0  0  0  0  0
    1.8634   -4.1621    2.3518 N   0  0  1  0  0  0  0  0  0  0  0  0
    2.1458   -3.7465    3.7753 C   0  0  0  0  0  0  0  0  0  0  0  0
    2.7892   -2.2982    3.9682 C   0  0  0  0  0  0  0  0  0  0  0  0
    4.1763   -2.0145    3.2802 C   0  0  2  0  0  0  0  0  0  0  0  0
    5.2539   -2.6273    3.9429 O   0  0  0  0  0  0  0  0  0  0  0  0
    4.4669   -0.7878    2.5467 O   0  0  0  0  0  0  0  0  0  0  0  0
    4.2688   -1.9697    1.7331 C   0  0  1  0  0  0  0  0  0  0  0  0
    2.9274   -2.2205    1.1517 C   0  0  0  0  0  0  0  0  0  0  0  0
    2.9132   -3.6846    1.4947 C   0  0  2  0  0  0  0  0  0  0  0  0
    3.1899    1.8478   -4.9995 H   0  0  0  0  0  0  0  0  0  0  0  0
    4.6167    0.8421   -5.1430 H   0  0  0  0  0  0  0  0  0  0  0  0
    4.1900    1.5294   -3.5822 H   0  0  0  0  0  0  0  0  0  0  0  0
    2.9209   -2.6263   -4.8301 H   0  0  0  0  0  0  0  0  0  0  0  0
    4.0073   -4.4599   -3.6338 H   0  0  0  0  0  0  0  0  0  0  0  0
    4.4351    0.1844   -1.9313 H   0  0  0  0  0  0  0  0  0  0  0  0
    6.7196   -1.6677   -0.6391 H   0  0  0  0  0  0  0  0  0  0  0  0
    5.5659   -0.5686    0.0041 H   0  0  0  0  0  0  0  0  0  0  0  0
    8.5505   -3.4705    1.6567 H   0  0  0  0  0  0  0  0  0  0  0  0
    8.0105   -3.2040    0.0449 H   0  0  0  0  0  0  0  0  0  0  0  0
    7.5017   -4.6114    0.9893 H   0  0  0  0  0  0  0  0  0  0  0  0
    5.3853   -4.8590    0.8488 H   0  0  0  0  0  0  0  0  0  0  0  0
    5.0263   -5.2758   -1.5895 H   0  0  0  0  0  0  0  0  0  0  0  0
    6.4174   -4.2326   -1.2809 H   0  0  0  0  0  0  0  0  0  0  0  0
    2.7969   -4.3690   -0.5127 H   0  0  0  0  0  0  0  0  0  0  0  0
    2.8168   -6.6598    0.2945 H   0  0  0  0  0  0  0  0  0  0  0  0
    3.8953   -6.2902    1.6250 H   0  0  0  0  0  0  0  0  0  0  0  0
    0.9491   -5.8319    1.4591 H   0  0  0  0  0  0  0  0  0  0  0  0
    1.8340   -6.2885    2.8841 H   0  0  0  0  0  0  0  0  0  0  0  0
    1.2076   -3.7797    4.3187 H   0  0  0  0  0  0  0  0  0  0  0  0
    2.7912   -4.4786    4.2603 H   0  0  0  0  0  0  0  0  0  0  0  0
    2.0702   -1.5151    3.7119 H   0  0  0  0  0  0  0  0  0  0  0  0
    2.9392   -2.1484    5.0378 H   0  0  0  0  0  0  0  0  0  0  0  0
    5.3058   -2.2527    4.8133 H   0  0  0  0  0  0  0  0  0  0  0  0
    2.1424   -1.6234    1.6074 H   0  0  0  0  0  0  0  0  0  0  0  0
    2.8969   -2.0206    0.0791 H   0  0  0  0  0  0  0  0  0  0  0  0
    3.7094   -4.0183    2.1743 H   0  0  0  0  0  0  0  0  0  0  0  0
    0.9951   -3.7413    2.0580 H   0  0  0  0  0  0  0  0  0  0  0  0
  1  2  1  0
  1 27  1  0
  1 28  1  0
  1 29  1  0
  2  3  1  0
  3  8  2  0
  3  4  1  0
  4  5  2  0
  4 30  1  0
  5  6  1  0
  5 31  1  0
  6 14  1  0
  6  7  2  0
  7  8  1  0
  7  9  1  0
  8 32  1  0
  9 10  1  0
  9 33  1  0
  9 34  1  0
 10 24  1  0
 10 11  1  1
 10 13  1  0
 11 12  1  0
 12 35  1  0
 12 36  1  0
 12 37  1  0
 13 14  1  0
 13 15  1  0
 13 38  1  1
 14 39  1  0
 14 40  1  0
 15 26  1  0
 15 16  1  0
 15 41  1  6
 16 17  1  0
 16 42  1  0
 16 43  1  0
 17 18  1  0
 17 44  1  0
 17 45  1  0
 18 26  1  0
 18 19  1  0
 18 54  1  6
 19 20  1  0
 19 46  1  0
 19 47  1  0
 20 21  1  0
 20 48  1  0
 20 49  1  0
 21 24  1  0
 21 22  1  1
 21 23  1  0
 22 50  1  0
 24 23  1  1
 24 25  1  0
 25 26  1  0
 25 51  1  0
 25 52  1  0
 26 53  1  1
M  CHG  1  18   1
M  END
>  <i_m_ct_stereo_status>  (239) 
1

>  <s_m_source_file>  (239) 
/var/tmp/pbs.5076255.sched01/tmpyqr7shjn/887d44c5qo.sdf

>  <i_m_source_file_index>  (239) 
14

>  <i_lp_mmshare_version>  (239) 
48012

>  <i_f3d_flags>  (239) 
0

>  <s_epik_input>  (239) 
W0NIM11PYyhbY0hdW2NIXTEpW2NIXWMoW0NIMl0yKWMxW0NIMl1bQ0BASF0oW0NAQF0yKEMzNDUpT1tDSDNdKVtDQEBIXTZbQ0BASF0oW0NIMl01KU4oW0NIMl1bQ0gyXTYpW0NIMl1bQ0gyXVtDQEBdMyhPNClbT0hd

>  <s_epik_cmdline>  (239) 
J2VwaWtfcHl0aG9uJywgJy1waHQnLCAnMi4wJywgJy1waCcsICc3LjAnLCAnLXRuJywgJzgnLCAnLW1hJywgJzIwMCcsICctaW1hZScsICc8aW5maWxlLm1hZT4nLCAnLW9tYWUnLCAnPG91dGZpbGUubWFlPic=

>  <r_lp_tautomer_probability>  (239) 
1

>  <r_epik_Ionization_Penalty>  (239) 
0.0141322

>  <r_epik_Ionization_Penalty_Charging>  (239) 
0.0139415

>  <r_epik_Ionization_Penalty_Neutral>  (239) 
0.000190701

>  <r_epik_State_Penalty>  (239) 
0.010878

>  <r_epik_Charging_Adjusted_Penalty>  (239) 
0.0248194

>  <i_epik_Tot_Q>  (239) 
1

>  <i_epik_Tot_abs_Q>  (239) 
1

>  <s_lp_Force_Field>  (239) 
OPLS3e

>  <r_lp_Energy>  (239) 
108.852

>  <b_lp_Chiralities_Consistent>  (239) 
1

>  <s_lp_Variant>  (239) 
73:0-4

>  <s_i_glide_gridfile>  (239) 
pfpi4k_grid

>  <i_i_glide_lignum>  (239) 
14

>  <i_i_glide_rotatable_bonds>  (239) 
3

>  <r_i_docking_score>  (239) 
-3.39943

>  <r_i_glide_ligand_efficiency>  (239) 
-0.130747

>  <r_i_glide_ligand_efficiency_sa>  (239) 
-0.387338

>  <r_i_glide_ligand_efficiency_ln>  (239) 
-0.798345

>  <r_i_glide_gscore>  (239) 
-3.39943

>  <r_i_glide_lipo>  (239) 
-0.577873

>  <r_i_glide_hbond>  (239) 
0

>  <r_i_glide_metal>  (239) 
-0

>  <r_i_glide_rewards>  (239) 
-0.971797

>  <r_i_glide_evdw>  (239) 
-23.3578

>  <r_i_glide_ecoul>  (239) 
-4.48236

>  <r_i_glide_erotb>  (239) 
0

>  <r_i_glide_esite>  (239) 
-0.00951184

>  <r_i_glide_emodel>  (239) 
-30.3951

>  <r_i_glide_energy>  (239) 
-27.8402

>  <r_i_glide_einternal>  (239) 
7.1883

>  <r_i_glide_intrahb_reward>  (239) 
-0

>  <i_i_glide_confnum>  (239) 
1

>  <i_i_glide_posenum>  (239) 
3

>  <r_i_glide_eff_state_penalty>  (239) 
0

>  <ligand_id>  (239) 
73

>  <original_smiles>  (239) 
COc1ccc2c(c1)CC1(OC)C(C2)C2CCN3CCC4(O)OC41CC23

>  <smiles>  (239) 
[H]OC12OC13C([H])([H])C1([H])C([H])(C([H])([H])C([H])([H])[N+]1([H])C([H])([H])C2([H])[H])C1([H])C([H])([H])c2c([H])c([H])c(OC([H])([H])[H])c([H])c2C([H])([H])C13OC([H])([H])[H]

$$$$
73:4:0
     RDKit          3D

 53 58  0  0  1  0  0  0  0  0999 V2000
    6.3555   -1.7587    1.3142 C   0  0  0  0  0  0  0  0  0  0  0  0
    5.3692   -2.4568    2.0660 O   0  0  0  0  0  0  0  0  0  0  0  0
    4.1956   -1.7807    2.3103 C   0  0  0  0  0  0  0  0  0  0  0  0
    3.0025   -2.5283    2.3277 C   0  0  0  0  0  0  0  0  0  0  0  0
    1.7595   -1.8921    2.5415 C   0  0  0  0  0  0  0  0  0  0  0  0
    1.7159   -0.5011    2.7694 C   0  0  0  0  0  0  0  0  0  0  0  0
    2.9085    0.2419    2.8002 C   0  0  0  0  0  0  0  0  0  0  0  0
    4.1427   -0.3908    2.5835 C   0  0  0  0  0  0  0  0  0  0  0  0
    2.8298    1.7088    3.1574 C   0  0  0  0  0  0  0  0  0  0  0  0
    1.9315    1.8801    4.4099 C   0  0  2  0  0  0  0  0  0  0  0  0
    2.3791    0.9839    5.4446 O   0  0  0  0  0  0  0  0  0  0  0  0
    3.6896    1.1664    5.9825 C   0  0  0  0  0  0  0  0  0  0  0  0
    0.4778    1.3354    4.0931 C   0  0  2  0  0  0  0  0  0  0  0  0
    0.4086    0.2396    2.9917 C   0  0  0  0  0  0  0  0  0  0  0  0
   -0.3287    2.5694    3.7270 C   0  0  1  0  0  0  0  0  0  0  0  0
   -1.7076    2.5920    3.1395 C   0  0  0  0  0  0  0  0  0  0  0  0
   -2.0048    4.1036    3.3166 C   0  0  0  0  0  0  0  0  0  0  0  0
   -0.9469    4.7083    4.1642 N   0  0  0  0  0  0  0  0  0  0  0  0
    0.0410    5.5549    3.4231 C   0  0  0  0  0  0  0  0  0  0  0  0
    1.5406    5.1196    3.2047 C   0  0  0  0  0  0  0  0  0  0  0  0
    2.1695    4.7761    4.5207 C   0  0  2  0  0  0  0  0  0  0  0  0
    2.1295    5.9044    5.3866 O   0  0  0  0  0  0  0  0  0  0  0  0
    3.2509    3.9628    4.8471 O   0  0  0  0  0  0  0  0  0  0  0  0
    1.9470    3.3245    5.0351 C   0  0  2  0  0  0  0  0  0  0  0  0
    0.7170    3.5582    5.8831 C   0  0  0  0  0  0  0  0  0  0  0  0
   -0.4910    3.5271    4.9053 C   0  0  2  0  0  0  0  0  0  0  0  0
    7.2724   -2.3507    1.2567 H   0  0  0  0  0  0  0  0  0  0  0  0
    6.6363   -0.7924    1.7333 H   0  0  0  0  0  0  0  0  0  0  0  0
    5.9825   -1.6038    0.3001 H   0  0  0  0  0  0  0  0  0  0  0  0
    3.0371   -3.5946    2.1584 H   0  0  0  0  0  0  0  0  0  0  0  0
    0.8439   -2.4671    2.5279 H   0  0  0  0  0  0  0  0  0  0  0  0
    5.0310    0.2099    2.6624 H   0  0  0  0  0  0  0  0  0  0  0  0
    3.8121    2.1038    3.3449 H   0  0  0  0  0  0  0  0  0  0  0  0
    2.4211    2.2402    2.2983 H   0  0  0  0  0  0  0  0  0  0  0  0
    3.8794    0.3662    6.6950 H   0  0  0  0  0  0  0  0  0  0  0  0
    3.7962    2.1064    6.5241 H   0  0  0  0  0  0  0  0  0  0  0  0
    4.4714    1.1090    5.2258 H   0  0  0  0  0  0  0  0  0  0  0  0
    0.0674    0.8998    5.0066 H   0  0  0  0  0  0  0  0  0  0  0  0
    0.1881    0.7020    2.0274 H   0  0  0  0  0  0  0  0  0  0  0  0
   -0.4032   -0.4549    3.1991 H   0  0  0  0  0  0  0  0  0  0  0  0
    0.2372    2.9908    2.9052 H   0  0  0  0  0  0  0  0  0  0  0  0
   -1.7340    2.2772    2.0946 H   0  0  0  0  0  0  0  0  0  0  0  0
   -2.4155    1.9795    3.7012 H   0  0  0  0  0  0  0  0  0  0  0  0
   -2.1460    4.6257    2.3712 H   0  0  0  0  0  0  0  0  0  0  0  0
   -2.9447    4.1487    3.8635 H   0  0  0  0  0  0  0  0  0  0  0  0
   -0.3820    5.8988    2.4789 H   0  0  0  0  0  0  0  0  0  0  0  0
    0.0958    6.4611    4.0237 H   0  0  0  0  0  0  0  0  0  0  0  0
    1.6893    4.3309    2.4771 H   0  0  0  0  0  0  0  0  0  0  0  0
    2.0877    5.9597    2.7810 H   0  0  0  0  0  0  0  0  0  0  0  0
    2.6197    6.6115    4.9844 H   0  0  0  0  0  0  0  0  0  0  0  0
    0.6433    2.7191    6.5796 H   0  0  0  0  0  0  0  0  0  0  0  0
    0.7281    4.4439    6.5169 H   0  0  0  0  0  0  0  0  0  0  0  0
   -1.3353    3.2039    5.5182 H   0  0  0  0  0  0  0  0  0  0  0  0
  1  2  1  0
  1 27  1  0
  1 28  1  0
  1 29  1  0
  2  3  1  0
  3  8  2  0
  3  4  1  0
  4  5  2  0
  4 30  1  0
  5  6  1  0
  5 31  1  0
  6 14  1  0
  6  7  2  0
  7  8  1  0
  7  9  1  0
  8 32  1  0
  9 10  1  0
  9 33  1  0
  9 34  1  0
 10 24  1  0
 10 11  1  1
 10 13  1  0
 11 12  1  0
 12 35  1  0
 12 36  1  0
 12 37  1  0
 13 14  1  0
 13 15  1  0
 13 38  1  1
 14 39  1  0
 14 40  1  0
 15 26  1  0
 15 16  1  0
 15 41  1  6
 16 17  1  0
 16 42  1  0
 16 43  1  0
 17 18  1  0
 17 44  1  0
 17 45  1  0
 18 26  1  0
 18 19  1  0
 19 20  1  0
 19 46  1  0
 19 47  1  0
 20 21  1  0
 20 48  1  0
 20 49  1  0
 21 24  1  0
 21 22  1  1
 21 23  1  0
 22 50  1  0
 24 23  1  1
 24 25  1  0
 25 26  1  0
 25 51  1  0
 25 52  1  0
 26 53  1  1
M  END
>  <i_m_ct_stereo_status>  (240) 
1

>  <s_m_source_file>  (240) 
/var/tmp/pbs.5076255.sched01/tmpyqr7shjn/887d44c5qo.sdf

>  <i_m_source_file_index>  (240) 
15

>  <i_lp_mmshare_version>  (240) 
48012

>  <i_f3d_flags>  (240) 
0

>  <s_epik_input>  (240) 
W0NIM11PYyhbY0hdW2NIXTEpW2NIXWMoW0NIMl0yKWMxW0NIMl1bQ0BASF0oW0NAQF0yKEMzNDUpT1tDSDNdKVtDQEBIXTZbQ0BASF0oW0NIMl01KU4oW0NIMl1bQ0gyXTYpW0NIMl1bQ0gyXVtDQEBdMyhPNClbT0hd

>  <s_epik_cmdline>  (240) 
J2VwaWtfcHl0aG9uJywgJy1waHQnLCAnMi4wJywgJy1waCcsICc3LjAnLCAnLXRuJywgJzgnLCAnLW1hJywgJzIwMCcsICctaW1hZScsICc8aW5maWxlLm1hZT4nLCAnLW9tYWUnLCAnPG91dGZpbGUubWFlPic=

>  <r_lp_tautomer_probability>  (240) 
1

>  <r_epik_Ionization_Penalty>  (240) 
2.22846

>  <r_epik_Ionization_Penalty_Charging>  (240) 
0

>  <r_epik_Ionization_Penalty_Neutral>  (240) 
2.22846

>  <r_epik_State_Penalty>  (240) 
2.37395

>  <r_epik_Charging_Adjusted_Penalty>  (240) 
2.37395

>  <i_epik_Tot_Q>  (240) 
0

>  <i_epik_Tot_abs_Q>  (240) 
0

>  <s_lp_Force_Field>  (240) 
OPLS3e

>  <r_lp_Energy>  (240) 
112.704

>  <b_lp_Chiralities_Consistent>  (240) 
1

>  <s_lp_Variant>  (240) 
73:0-5

>  <s_i_glide_gridfile>  (240) 
pfpi4k_grid

>  <i_i_glide_lignum>  (240) 
15

>  <i_i_glide_rotatable_bonds>  (240) 
3

>  <r_i_docking_score>  (240) 
-2.80509

>  <r_i_glide_ligand_efficiency>  (240) 
-0.107888

>  <r_i_glide_ligand_efficiency_sa>  (240) 
-0.319618

>  <r_i_glide_ligand_efficiency_ln>  (240) 
-0.658766

>  <r_i_glide_gscore>  (240) 
-2.80509

>  <r_i_glide_lipo>  (240) 
-0.200947

>  <r_i_glide_hbond>  (240) 
-0.0607957

>  <r_i_glide_metal>  (240) 
-0

>  <r_i_glide_rewards>  (240) 
-0.971977

>  <r_i_glide_evdw>  (240) 
-19.603

>  <r_i_glide_ecoul>  (240) 
-3.86065

>  <r_i_glide_erotb>  (240) 
0

>  <r_i_glide_esite>  (240) 
-0.0121188

>  <r_i_glide_emodel>  (240) 
-24.9566

>  <r_i_glide_energy>  (240) 
-23.4637

>  <r_i_glide_einternal>  (240) 
4.50517

>  <r_i_glide_intrahb_reward>  (240) 
-0

>  <i_i_glide_confnum>  (240) 
1

>  <i_i_glide_posenum>  (240) 
16

>  <r_i_glide_eff_state_penalty>  (240) 
0

>  <ligand_id>  (240) 
73

>  <original_smiles>  (240) 
COc1ccc2c(c1)CC1(OC)C(C2)C2CCN3CCC4(O)OC41CC23

>  <smiles>  (240) 
[H]OC12OC13C([H])([H])C1([H])N(C([H])([H])C2([H])[H])C([H])([H])C([H])([H])C1([H])C1([H])C([H])([H])c2c([H])c([H])c(OC([H])([H])[H])c([H])c2C([H])([H])C13OC([H])([H])[H]

$$$$
73:4:1
     RDKit          3D

 53 58  0  0  1  0  0  0  0  0999 V2000
    5.1705   -3.9946    2.8739 C   0  0  0  0  0  0  0  0  0  0  0  0
    5.1536   -2.5816    3.0163 O   0  0  0  0  0  0  0  0  0  0  0  0
    3.9376   -1.9378    3.0757 C   0  0  0  0  0  0  0  0  0  0  0  0
    2.6845   -2.6035    3.0345 C   0  0  0  0  0  0  0  0  0  0  0  0
    1.4837   -1.8710    3.1063 C   0  0  0  0  0  0  0  0  0  0  0  0
    1.5263   -0.4739    3.2308 C   0  0  0  0  0  0  0  0  0  0  0  0
    2.7648    0.1956    3.2874 C   0  0  0  0  0  0  0  0  0  0  0  0
    3.9652   -0.5344    3.2023 C   0  0  0  0  0  0  0  0  0  0  0  0
    2.7515    1.6932    3.5248 C   0  0  0  0  0  0  0  0  0  0  0  0
    1.7717    2.0259    4.6883 C   0  0  2  0  0  0  0  0  0  0  0  0
    2.0878    1.1967    5.8169 O   0  0  0  0  0  0  0  0  0  0  0  0
    3.3640    1.3621    6.4291 C   0  0  0  0  0  0  0  0  0  0  0  0
    0.3148    1.5307    4.3121 C   0  0  2  0  0  0  0  0  0  0  0  0
    0.2543    0.3527    3.3030 C   0  0  0  0  0  0  0  0  0  0  0  0
   -0.4027    2.7654    3.7909 C   0  0  1  0  0  0  0  0  0  0  0  0
   -1.7423    2.8080    3.1157 C   0  0  0  0  0  0  0  0  0  0  0  0
   -1.9587    4.3394    3.1431 C   0  0  0  0  0  0  0  0  0  0  0  0
   -0.9384    4.9483    4.0237 N   0  0  0  0  0  0  0  0  0  0  0  0
    0.1292    5.6956    3.2943 C   0  0  0  0  0  0  0  0  0  0  0  0
    1.6096    5.1602    3.1905 C   0  0  0  0  0  0  0  0  0  0  0  0
    2.1363    4.9067    4.5749 C   0  0  2  0  0  0  0  0  0  0  0  0
    2.1019    6.1016    5.3535 O   0  0  0  0  0  0  0  0  0  0  0  0
    3.1599    4.0791    5.0258 O   0  0  0  0  0  0  0  0  0  0  0  0
    1.8171    3.5100    5.1943 C   0  0  2  0  0  0  0  0  0  0  0  0
    0.5517    3.8722    5.9350 C   0  0  0  0  0  0  0  0  0  0  0  0
   -0.5959    3.8131    4.8864 C   0  0  2  0  0  0  0  0  0  0  0  0
    6.2035   -4.3429    2.8258 H   0  0  0  0  0  0  0  0  0  0  0  0
    4.6782   -4.3099    1.9531 H   0  0  0  0  0  0  0  0  0  0  0  0
    4.6992   -4.4897    3.7240 H   0  0  0  0  0  0  0  0  0  0  0  0
    2.6202   -3.6760    2.9581 H   0  0  0  0  0  0  0  0  0  0  0  0
    0.5332   -2.3860    3.0771 H   0  0  0  0  0  0  0  0  0  0  0  0
    4.9141   -0.0165    3.2601 H   0  0  0  0  0  0  0  0  0  0  0  0
    3.7584    2.0543    3.7238 H   0  0  0  0  0  0  0  0  0  0  0  0
    2.4308    2.1785    2.6046 H   0  0  0  0  0  0  0  0  0  0  0  0
    3.4627    0.6180    7.2157 H   0  0  0  0  0  0  0  0  0  0  0  0
    3.4845    2.3399    6.8941 H   0  0  0  0  0  0  0  0  0  0  0  0
    4.1877    1.2022    5.7356 H   0  0  0  0  0  0  0  0  0  0  0  0
   -0.1865    1.2018    5.2248 H   0  0  0  0  0  0  0  0  0  0  0  0
    0.1153    0.7497    2.2962 H   0  0  0  0  0  0  0  0  0  0  0  0
   -0.6109   -0.2765    3.5058 H   0  0  0  0  0  0  0  0  0  0  0  0
    0.2310    3.1015    2.9807 H   0  0  0  0  0  0  0  0  0  0  0  0
   -1.7234    2.4087    2.1048 H   0  0  0  0  0  0  0  0  0  0  0  0
   -2.5230    2.2923    3.6752 H   0  0  0  0  0  0  0  0  0  0  0  0
   -1.9836    4.8006    2.1554 H   0  0  0  0  0  0  0  0  0  0  0  0
   -2.9311    4.4960    3.6017 H   0  0  0  0  0  0  0  0  0  0  0  0
   -0.2322    5.9942    2.3108 H   0  0  0  0  0  0  0  0  0  0  0  0
    0.1969    6.6466    3.8125 H   0  0  0  0  0  0  0  0  0  0  0  0
    1.7568    4.3245    2.5214 H   0  0  0  0  0  0  0  0  0  0  0  0
    2.2235    5.9332    2.7468 H   0  0  0  0  0  0  0  0  0  0  0  0
    2.6392    6.7615    4.9205 H   0  0  0  0  0  0  0  0  0  0  0  0
    0.3815    3.1025    6.6941 H   0  0  0  0  0  0  0  0  0  0  0  0
    0.5662    4.8116    6.4800 H   0  0  0  0  0  0  0  0  0  0  0  0
   -1.4990    3.5717    5.4609 H   0  0  0  0  0  0  0  0  0  0  0  0
  1  2  1  0
  1 27  1  0
  1 28  1  0
  1 29  1  0
  2  3  1  0
  3  8  2  0
  3  4  1  0
  4  5  2  0
  4 30  1  0
  5  6  1  0
  5 31  1  0
  6 14  1  0
  6  7  2  0
  7  8  1  0
  7  9  1  0
  8 32  1  0
  9 10  1  0
  9 33  1  0
  9 34  1  0
 10 24  1  0
 10 11  1  1
 10 13  1  0
 11 12  1  0
 12 35  1  0
 12 36  1  0
 12 37  1  0
 13 14  1  0
 13 15  1  0
 13 38  1  1
 14 39  1  0
 14 40  1  0
 15 26  1  0
 15 16  1  0
 15 41  1  6
 16 17  1  0
 16 42  1  0
 16 43  1  0
 17 18  1  0
 17 44  1  0
 17 45  1  0
 18 26  1  0
 18 19  1  0
 19 20  1  0
 19 46  1  0
 19 47  1  0
 20 21  1  0
 20 48  1  0
 20 49  1  0
 21 24  1  0
 21 22  1  1
 21 23  1  0
 22 50  1  0
 24 23  1  1
 24 25  1  0
 25 26  1  0
 25 51  1  0
 25 52  1  0
 26 53  1  1
M  END
>  <i_m_ct_stereo_status>  (241) 
1

>  <s_m_source_file>  (241) 
/var/tmp/pbs.5076255.sched01/tmpyqr7shjn/887d44c5qo.sdf

>  <i_m_source_file_index>  (241) 
15

>  <i_lp_mmshare_version>  (241) 
48012

>  <i_f3d_flags>  (241) 
0

>  <s_epik_input>  (241) 
W0NIM11PYyhbY0hdW2NIXTEpW2NIXWMoW0NIMl0yKWMxW0NIMl1bQ0BASF0oW0NAQF0yKEMzNDUpT1tDSDNdKVtDQEBIXTZbQ0BASF0oW0NIMl01KU4oW0NIMl1bQ0gyXTYpW0NIMl1bQ0gyXVtDQEBdMyhPNClbT0hd

>  <s_epik_cmdline>  (241) 
J2VwaWtfcHl0aG9uJywgJy1waHQnLCAnMi4wJywgJy1waCcsICc3LjAnLCAnLXRuJywgJzgnLCAnLW1hJywgJzIwMCcsICctaW1hZScsICc8aW5maWxlLm1hZT4nLCAnLW9tYWUnLCAnPG91dGZpbGUubWFlPic=

>  <r_lp_tautomer_probability>  (241) 
1

>  <r_epik_Ionization_Penalty>  (241) 
2.22846

>  <r_epik_Ionization_Penalty_Charging>  (241) 
0

>  <r_epik_Ionization_Penalty_Neutral>  (241) 
2.22846

>  <r_epik_State_Penalty>  (241) 
2.37395

>  <r_epik_Charging_Adjusted_Penalty>  (241) 
2.37395

>  <i_epik_Tot_Q>  (241) 
0

>  <i_epik_Tot_abs_Q>  (241) 
0

>  <s_lp_Force_Field>  (241) 
OPLS3e

>  <r_lp_Energy>  (241) 
112.704

>  <b_lp_Chiralities_Consistent>  (241) 
1

>  <s_lp_Variant>  (241) 
73:0-5

>  <s_i_glide_gridfile>  (241) 
pfpi4k_grid

>  <i_i_glide_lignum>  (241) 
15

>  <i_i_glide_rotatable_bonds>  (241) 
3

>  <r_i_docking_score>  (241) 
-2.68717

>  <r_i_glide_ligand_efficiency>  (241) 
-0.103353

>  <r_i_glide_ligand_efficiency_sa>  (241) 
-0.306183

>  <r_i_glide_ligand_efficiency_ln>  (241) 
-0.631074

>  <r_i_glide_gscore>  (241) 
-2.68717

>  <r_i_glide_lipo>  (241) 
-0.0529655

>  <r_i_glide_hbond>  (241) 
-0.113258

>  <r_i_glide_metal>  (241) 
-0

>  <r_i_glide_rewards>  (241) 
-0.971977

>  <r_i_glide_evdw>  (241) 
-17.6394

>  <r_i_glide_ecoul>  (241) 
-4.37046

>  <r_i_glide_erotb>  (241) 
0

>  <r_i_glide_esite>  (241) 
-0.0114333

>  <r_i_glide_emodel>  (241) 
-25.7766

>  <r_i_glide_energy>  (241) 
-22.0099

>  <r_i_glide_einternal>  (241) 
0.101475

>  <r_i_glide_intrahb_reward>  (241) 
-0

>  <i_i_glide_confnum>  (241) 
1

>  <i_i_glide_posenum>  (241) 
21

>  <r_i_glide_eff_state_penalty>  (241) 
0

>  <ligand_id>  (241) 
73

>  <original_smiles>  (241) 
COc1ccc2c(c1)CC1(OC)C(C2)C2CCN3CCC4(O)OC41CC23

>  <smiles>  (241) 
[H]OC12OC13C([H])([H])C1([H])N(C([H])([H])C2([H])[H])C([H])([H])C([H])([H])C1([H])C1([H])C([H])([H])c2c([H])c([H])c(OC([H])([H])[H])c([H])c2C([H])([H])C13OC([H])([H])[H]

$$$$
73:4:2
     RDKit          3D

 53 58  0  0  1  0  0  0  0  0999 V2000
   -1.8798    4.0014    3.0915 C   0  0  0  0  0  0  0  0  0  0  0  0
   -1.9681    2.9329    4.0173 O   0  0  0  0  0  0  0  0  0  0  0  0
   -1.1689    1.8297    3.8128 C   0  0  0  0  0  0  0  0  0  0  0  0
   -0.1993    1.7286    2.7841 C   0  0  0  0  0  0  0  0  0  0  0  0
    0.5917    0.5719    2.6517 C   0  0  0  0  0  0  0  0  0  0  0  0
    0.4299   -0.4907    3.5652 C   0  0  0  0  0  0  0  0  0  0  0  0
   -0.5253   -0.3962    4.5946 C   0  0  0  0  0  0  0  0  0  0  0  0
   -1.3264    0.7523    4.7154 C   0  0  0  0  0  0  0  0  0  0  0  0
   -0.5919   -1.5320    5.5981 C   0  0  0  0  0  0  0  0  0  0  0  0
    0.8472   -1.9016    6.0593 C   0  0  2  0  0  0  0  0  0  0  0  0
    1.5171   -0.7072    6.4883 O   0  0  0  0  0  0  0  0  0  0  0  0
    1.0100   -0.0122    7.6244 C   0  0  0  0  0  0  0  0  0  0  0  0
    1.7130   -2.3496    4.8113 C   0  0  2  0  0  0  0  0  0  0  0  0
    1.2591   -1.7573    3.4504 C   0  0  0  0  0  0  0  0  0  0  0  0
    1.6718   -3.8692    4.8229 C   0  0  1  0  0  0  0  0  0  0  0  0
    2.1566   -4.7973    3.7477 C   0  0  0  0  0  0  0  0  0  0  0  0
    2.0919   -6.1302    4.5495 C   0  0  0  0  0  0  0  0  0  0  0  0
    1.8430   -5.8134    5.9770 N   0  0  0  0  0  0  0  0  0  0  0  0
    0.4607   -6.1235    6.4425 C   0  0  0  0  0  0  0  0  0  0  0  0
   -0.5688   -4.9942    6.8174 C   0  0  0  0  0  0  0  0  0  0  0  0
    0.0415   -4.0650    7.8335 C   0  0  2  0  0  0  0  0  0  0  0  0
    0.3955   -4.7826    9.0034 O   0  0  0  0  0  0  0  0  0  0  0  0
   -0.2108   -2.7309    8.1607 O   0  0  0  0  0  0  0  0  0  0  0  0
    0.9236   -2.9106    7.2663 C   0  0  2  0  0  0  0  0  0  0  0  0
    2.2799   -3.5791    7.3245 C   0  0  0  0  0  0  0  0  0  0  0  0
    2.3782   -4.4516    6.0443 C   0  0  2  0  0  0  0  0  0  0  0  0
   -2.5834    4.7784    3.3693 H   0  0  0  0  0  0  0  0  0  0  0  0
   -2.1479    3.6732    2.0887 H   0  0  0  0  0  0  0  0  0  0  0  0
   -0.8918    4.4540    3.0776 H   0  0  0  0  0  0  0  0  0  0  0  0
   -0.0313    2.5338    2.0859 H   0  0  0  0  0  0  0  0  0  0  0  0
    1.3256    0.5059    1.8580 H   0  0  0  0  0  0  0  0  0  0  0  0
   -2.0506    0.8362    5.5135 H   0  0  0  0  0  0  0  0  0  0  0  0
   -1.2339   -1.2528    6.4303 H   0  0  0  0  0  0  0  0  0  0  0  0
   -1.0667   -2.3780    5.1077 H   0  0  0  0  0  0  0  0  0  0  0  0
    1.5939    0.8966    7.7550 H   0  0  0  0  0  0  0  0  0  0  0  0
    1.1014   -0.5859    8.5462 H   0  0  0  0  0  0  0  0  0  0  0  0
   -0.0286    0.2908    7.5030 H   0  0  0  0  0  0  0  0  0  0  0  0
    2.7416   -2.0254    4.9711 H   0  0  0  0  0  0  0  0  0  0  0  0
    0.6134   -2.4764    2.9476 H   0  0  0  0  0  0  0  0  0  0  0  0
    2.1109   -1.6068    2.7864 H   0  0  0  0  0  0  0  0  0  0  0  0
    0.6100   -4.0807    4.7961 H   0  0  0  0  0  0  0  0  0  0  0  0
    1.5163   -4.8005    2.8641 H   0  0  0  0  0  0  0  0  0  0  0  0
    3.1753   -4.5749    3.4275 H   0  0  0  0  0  0  0  0  0  0  0  0
    1.3805   -6.8463    4.1308 H   0  0  0  0  0  0  0  0  0  0  0  0
    3.0770   -6.5917    4.4834 H   0  0  0  0  0  0  0  0  0  0  0  0
   -0.0065   -6.8454    5.7745 H   0  0  0  0  0  0  0  0  0  0  0  0
    0.6271   -6.6916    7.3559 H   0  0  0  0  0  0  0  0  0  0  0  0
   -0.9706   -4.4484    5.9717 H   0  0  0  0  0  0  0  0  0  0  0  0
   -1.4451   -5.4515    7.2708 H   0  0  0  0  0  0  0  0  0  0  0  0
    1.3268   -4.9690    8.9807 H   0  0  0  0  0  0  0  0  0  0  0  0
    3.0301   -2.7849    7.2900 H   0  0  0  0  0  0  0  0  0  0  0  0
    2.5079   -4.1357    8.2296 H   0  0  0  0  0  0  0  0  0  0  0  0
    3.4479   -4.5299    5.8419 H   0  0  0  0  0  0  0  0  0  0  0  0
  1  2  1  0
  1 27  1  0
  1 28  1  0
  1 29  1  0
  2  3  1  0
  3  8  2  0
  3  4  1  0
  4  5  2  0
  4 30  1  0
  5  6  1  0
  5 31  1  0
  6 14  1  0
  6  7  2  0
  7  8  1  0
  7  9  1  0
  8 32  1  0
  9 10  1  0
  9 33  1  0
  9 34  1  0
 10 24  1  0
 10 11  1  1
 10 13  1  0
 11 12  1  0
 12 35  1  0
 12 36  1  0
 12 37  1  0
 13 14  1  0
 13 15  1  0
 13 38  1  1
 14 39  1  0
 14 40  1  0
 15 26  1  0
 15 16  1  0
 15 41  1  1
 16 17  1  0
 16 42  1  0
 16 43  1  0
 17 18  1  0
 17 44  1  0
 17 45  1  0
 18 26  1  0
 18 19  1  0
 19 20  1  0
 19 46  1  0
 19 47  1  0
 20 21  1  0
 20 48  1  0
 20 49  1  0
 21 24  1  0
 21 22  1  1
 21 23  1  0
 22 50  1  0
 24 23  1  1
 24 25  1  0
 25 26  1  0
 25 51  1  0
 25 52  1  0
 26 53  1  6
M  END
>  <i_m_ct_stereo_status>  (242) 
1

>  <s_m_source_file>  (242) 
/var/tmp/pbs.5076255.sched01/tmpyqr7shjn/887d44c5qo.sdf

>  <i_m_source_file_index>  (242) 
15

>  <i_lp_mmshare_version>  (242) 
48012

>  <i_f3d_flags>  (242) 
0

>  <s_epik_input>  (242) 
W0NIM11PYyhbY0hdW2NIXTEpW2NIXWMoW0NIMl0yKWMxW0NIMl1bQ0BASF0oW0NAQF0yKEMzNDUpT1tDSDNdKVtDQEBIXTZbQ0BASF0oW0NIMl01KU4oW0NIMl1bQ0gyXTYpW0NIMl1bQ0gyXVtDQEBdMyhPNClbT0hd

>  <s_epik_cmdline>  (242) 
J2VwaWtfcHl0aG9uJywgJy1waHQnLCAnMi4wJywgJy1waCcsICc3LjAnLCAnLXRuJywgJzgnLCAnLW1hJywgJzIwMCcsICctaW1hZScsICc8aW5maWxlLm1hZT4nLCAnLW9tYWUnLCAnPG91dGZpbGUubWFlPic=

>  <r_lp_tautomer_probability>  (242) 
1

>  <r_epik_Ionization_Penalty>  (242) 
2.22846

>  <r_epik_Ionization_Penalty_Charging>  (242) 
0

>  <r_epik_Ionization_Penalty_Neutral>  (242) 
2.22846

>  <r_epik_State_Penalty>  (242) 
2.37395

>  <r_epik_Charging_Adjusted_Penalty>  (242) 
2.37395

>  <i_epik_Tot_Q>  (242) 
0

>  <i_epik_Tot_abs_Q>  (242) 
0

>  <s_lp_Force_Field>  (242) 
OPLS3e

>  <r_lp_Energy>  (242) 
112.704

>  <b_lp_Chiralities_Consistent>  (242) 
1

>  <s_lp_Variant>  (242) 
73:0-5

>  <s_i_glide_gridfile>  (242) 
pfpi4k_grid

>  <i_i_glide_lignum>  (242) 
15

>  <i_i_glide_rotatable_bonds>  (242) 
3

>  <r_i_docking_score>  (242) 
-2.28408

>  <r_i_glide_ligand_efficiency>  (242) 
-0.0878491

>  <r_i_glide_ligand_efficiency_sa>  (242) 
-0.260253

>  <r_i_glide_ligand_efficiency_ln>  (242) 
-0.536408

>  <r_i_glide_gscore>  (242) 
-2.28408

>  <r_i_glide_lipo>  (242) 
-0.04801

>  <r_i_glide_hbond>  (242) 
-0.135126

>  <r_i_glide_metal>  (242) 
-0

>  <r_i_glide_rewards>  (242) 
-0.971977

>  <r_i_glide_evdw>  (242) 
-17.7777

>  <r_i_glide_ecoul>  (242) 
-1.49936

>  <r_i_glide_erotb>  (242) 
0

>  <r_i_glide_esite>  (242) 
-0.015173

>  <r_i_glide_emodel>  (242) 
-22.2926

>  <r_i_glide_energy>  (242) 
-19.2771

>  <r_i_glide_einternal>  (242) 
0.454387

>  <r_i_glide_intrahb_reward>  (242) 
-0

>  <i_i_glide_confnum>  (242) 
2

>  <i_i_glide_posenum>  (242) 
2

>  <r_i_glide_eff_state_penalty>  (242) 
0

>  <ligand_id>  (242) 
73

>  <original_smiles>  (242) 
COc1ccc2c(c1)CC1(OC)C(C2)C2CCN3CCC4(O)OC41CC23

>  <smiles>  (242) 
[H]OC12OC13C([H])([H])C1([H])N(C([H])([H])C2([H])[H])C([H])([H])C([H])([H])C1([H])C1([H])C([H])([H])c2c([H])c([H])c(OC([H])([H])[H])c([H])c2C([H])([H])C13OC([H])([H])[H]

$$$$
74:0:0
     RDKit          3D

 42 46  0  0  1  0  0  0  0  0999 V2000
   -0.2027    1.5673    7.2330 C   0  0  0  0  0  0  0  0  0  0  0  0
   -0.1768    0.6791    6.0099 C   0  0  0  0  0  0  0  0  0  0  0  0
   -1.3697    0.1788    5.5475 N   0  0  0  0  0  0  0  0  0  0  0  0
   -1.1612   -0.4160    4.2310 C   0  0  0  0  0  0  0  0  0  0  0  0
    0.3696   -0.5180    4.0800 C   0  0  1  0  0  0  0  0  0  0  0  0
    0.9792   -0.1251    2.7207 C   0  0  0  0  0  0  0  0  0  0  0  0
    2.4795    0.2853    2.7937 C   0  0  2  0  0  0  0  0  0  0  0  0
    3.3565   -0.4160    1.7886 C   0  0  0  0  0  0  0  0  0  0  0  0
    3.0148   -0.7924    0.4975 N   0  0  0  0  0  0  0  0  0  0  0  0
    4.0916   -1.3775   -0.1384 C   0  0  0  0  0  0  0  0  0  0  0  0
    4.2437   -1.9306   -1.4235 C   0  0  0  0  0  0  0  0  0  0  0  0
    5.4765   -2.4835   -1.8139 C   0  0  0  0  0  0  0  0  0  0  0  0
    6.5571   -2.4707   -0.9101 C   0  0  0  0  0  0  0  0  0  0  0  0
    6.3962   -1.9089    0.3794 C   0  0  0  0  0  0  0  0  0  0  0  0
    5.1649   -1.3531    0.7975 C   0  0  0  0  0  0  0  0  0  0  0  0
    4.6684   -0.7342    2.0026 C   0  0  0  0  0  0  0  0  0  0  0  0
    5.3212   -0.4572    3.3224 C   0  0  0  0  0  0  0  0  0  0  0  0
    4.4674    0.5100    4.1882 C   0  0  0  0  0  0  0  0  0  0  0  0
    3.0476    0.1286    4.1563 N   0  0  0  0  0  0  0  0  0  0  0  0
    2.2747    0.8673    5.1620 C   0  0  0  0  0  0  0  0  0  0  0  0
    0.8370    0.3758    5.1915 C   0  0  0  0  0  0  0  0  0  0  0  0
    2.0754   -0.6819    0.0857 H   0  0  0  0  0  0  0  0  0  0  0  0
    0.7563    2.0556    7.4067 H   0  0  0  0  0  0  0  0  0  0  0  0
   -1.5889    0.2629    3.4932 H   0  0  0  0  0  0  0  0  0  0  0  0
   -1.6406   -1.3906    4.1343 H   0  0  0  0  0  0  0  0  0  0  0  0
    0.7196   -1.5189    4.3444 H   0  0  0  0  0  0  0  0  0  0  0  0
    0.8160   -0.9498    2.0219 H   0  0  0  0  0  0  0  0  0  0  0  0
    0.4222    0.7142    2.3034 H   0  0  0  0  0  0  0  0  0  0  0  0
    2.5282    1.3470    2.5482 H   0  0  0  0  0  0  0  0  0  0  0  0
    3.3969   -1.9373   -2.0918 H   0  0  0  0  0  0  0  0  0  0  0  0
    5.5896   -2.9226   -2.7988 H   0  0  0  0  0  0  0  0  0  0  0  0
    7.5044   -2.9078   -1.1977 H   0  0  0  0  0  0  0  0  0  0  0  0
    7.2234   -1.9163    1.0714 H   0  0  0  0  0  0  0  0  0  0  0  0
    5.4551   -1.3929    3.8584 H   0  0  0  0  0  0  0  0  0  0  0  0
    6.3106   -0.0361    3.1639 H   0  0  0  0  0  0  0  0  0  0  0  0
    4.8456    0.5044    5.2169 H   0  0  0  0  0  0  0  0  0  0  0  0
    4.5672    1.5303    3.8154 H   0  0  0  0  0  0  0  0  0  0  0  0
    2.7225    0.7818    6.1560 H   0  0  0  0  0  0  0  0  0  0  0  0
    2.2737    1.9278    4.8941 H   0  0  0  0  0  0  0  0  0  0  0  0
   -0.4421    0.9701    8.1133 H   0  0  0  0  0  0  0  0  0  0  0  0
   -0.9753    2.3310    7.1375 H   0  0  0  0  0  0  0  0  0  0  0  0
   -2.1984    0.7450    5.6869 H   0  0  0  0  0  0  0  0  0  0  0  0
  1  2  1  0
  1 23  1  0
  1 40  1  0
  1 41  1  0
  2 21  2  0
  2  3  1  0
  3  4  1  0
  3 42  1  0
  4  5  1  0
  4 24  1  0
  4 25  1  0
  5  6  1  0
  5 26  1  1
  5 21  1  0
  6  7  1  0
  6 27  1  0
  6 28  1  0
  7 19  1  0
  7  8  1  0
  7 29  1  6
  8 16  2  0
  8  9  1  0
  9 22  1  0
  9 10  1  0
 10 15  2  0
 10 11  1  0
 11 12  2  0
 11 30  1  0
 12 13  1  0
 12 31  1  0
 13 14  2  0
 13 32  1  0
 14 15  1  0
 14 33  1  0
 15 16  1  0
 16 17  1  0
 17 18  1  0
 17 34  1  0
 17 35  1  0
 18 19  1  0
 18 36  1  0
 18 37  1  0
 19 20  1  0
 20 38  1  0
 20 39  1  0
 20 21  1  0
M  END
>  <i_m_ct_stereo_status>  (243) 
1

>  <s_m_source_file>  (243) 
/var/tmp/pbs.5076255.sched01/tmpyqr7shjn/887d44c5qo.sdf

>  <i_m_source_file_index>  (243) 
17

>  <i_lp_mmshare_version>  (243) 
48012

>  <i_f3d_flags>  (243) 
0

>  <s_epik_input>  (243) 
W0NIMl0xTj1DKFtDSDNdKVtDQEBIXShbQ0BASF0xMilbQ0gyXU4zW0NASF0oW0NIMl0yKWM0YyhbQ0gyXVtDSDJdMyljNWMoW25IXTQpW2NIXVtjSF1bY0hdW2NIXTU=

>  <s_epik_cmdline>  (243) 
J2VwaWtfcHl0aG9uJywgJy1waHQnLCAnMi4wJywgJy1waCcsICc3LjAnLCAnLXRuJywgJzgnLCAnLW1hJywgJzIwMCcsICctaW1hZScsICc8aW5maWxlLm1hZT4nLCAnLW9tYWUnLCAnPG91dGZpbGUubWFlPic=

>  <r_lp_tautomer_probability>  (243) 
1

>  <r_epik_Ionization_Penalty>  (243) 
0.670595

>  <r_epik_Ionization_Penalty_Charging>  (243) 
6.93971e-05

>  <r_epik_Ionization_Penalty_Neutral>  (243) 
0.670526

>  <r_epik_State_Penalty>  (243) 
-0

>  <r_epik_Charging_Adjusted_Penalty>  (243) 
6.93971e-05

>  <i_epik_Tot_Q>  (243) 
0

>  <i_epik_Tot_abs_Q>  (243) 
0

>  <s_epik_Chemistry_Notes>  (243) 
This compound has an imine and may undergo hydrolysis.

>  <s_lp_Force_Field>  (243) 
OPLS3e

>  <r_lp_Energy>  (243) 
7.73398

>  <b_lp_Chiralities_Consistent>  (243) 
1

>  <s_lp_Variant>  (243) 
74:0-1

>  <s_i_glide_gridfile>  (243) 
pfpi4k_grid

>  <i_i_glide_lignum>  (243) 
17

>  <i_i_glide_rotatable_bonds>  (243) 
0

>  <r_i_docking_score>  (243) 
-4.22596

>  <r_i_glide_ligand_efficiency>  (243) 
-0.201236

>  <r_i_glide_ligand_efficiency_sa>  (243) 
-0.555195

>  <r_i_glide_ligand_efficiency_ln>  (243) 
-1.04486

>  <r_i_glide_gscore>  (243) 
-4.22596

>  <r_i_glide_lipo>  (243) 
-0.409386

>  <r_i_glide_hbond>  (243) 
-0.16

>  <r_i_glide_metal>  (243) 
-0

>  <r_i_glide_rewards>  (243) 
-1.50423

>  <r_i_glide_evdw>  (243) 
-21.5316

>  <r_i_glide_ecoul>  (243) 
-6.31257

>  <r_i_glide_erotb>  (243) 
0

>  <r_i_glide_esite>  (243) 
-0.128877

>  <r_i_glide_emodel>  (243) 
-35.7677

>  <r_i_glide_energy>  (243) 
-27.8441

>  <r_i_glide_einternal>  (243) 
0

>  <r_i_glide_intrahb_reward>  (243) 
-0

>  <i_i_glide_confnum>  (243) 
1

>  <i_i_glide_posenum>  (243) 
17

>  <r_i_glide_eff_state_penalty>  (243) 
0

>  <ligand_id>  (243) 
74

>  <original_smiles>  (243) 
CC1=NCC2CC3c4[nH]c5ccccc5c4CCN3CC12

>  <smiles>  (243) 
[H]c1c([H])c([H])c2c(c1[H])c1c(n2[H])C2([H])N(C([H])([H])C3=C(C([H])([H])[H])N([H])C([H])([H])C3([H])C2([H])[H])C([H])([H])C1([H])[H]

$$$$
74:0:1
     RDKit          3D

 42 46  0  0  1  0  0  0  0  0999 V2000
    8.5034   -2.5865   -0.1182 C   0  0  0  0  0  0  0  0  0  0  0  0
    7.0799   -2.9292   -0.4789 C   0  0  0  0  0  0  0  0  0  0  0  0
    6.6651   -2.7711   -1.7841 N   0  0  0  0  0  0  0  0  0  0  0  0
    5.3488   -3.3870   -1.9531 C   0  0  0  0  0  0  0  0  0  0  0  0
    4.8594   -3.6628   -0.5112 C   0  0  1  0  0  0  0  0  0  0  0  0
    4.2094   -5.0256   -0.2283 C   0  0  0  0  0  0  0  0  0  0  0  0
    4.2377   -5.4657    1.2623 C   0  0  2  0  0  0  0  0  0  0  0  0
    2.8996   -5.8837    1.8093 C   0  0  0  0  0  0  0  0  0  0  0  0
    1.8970   -6.5457    1.1256 N   0  0  0  0  0  0  0  0  0  0  0  0
    0.8292   -6.8130    1.9649 C   0  0  0  0  0  0  0  0  0  0  0  0
   -0.4081   -7.4442    1.7517 C   0  0  0  0  0  0  0  0  0  0  0  0
   -1.3199   -7.5711    2.8156 C   0  0  0  0  0  0  0  0  0  0  0  0
   -0.9862   -7.0558    4.0808 C   0  0  0  0  0  0  0  0  0  0  0  0
    0.2572   -6.4278    4.2889 C   0  0  0  0  0  0  0  0  0  0  0  0
    1.1962   -6.2863    3.2358 C   0  0  0  0  0  0  0  0  0  0  0  0
    2.5101   -5.7190    3.1061 C   0  0  0  0  0  0  0  0  0  0  0  0
    3.4020   -5.0214    4.0867 C   0  0  0  0  0  0  0  0  0  0  0  0
    4.8529   -4.8777    3.5426 C   0  0  0  0  0  0  0  0  0  0  0  0
    4.8379   -4.4340    2.1404 N   0  0  0  0  0  0  0  0  0  0  0  0
    6.1758   -4.0374    1.6832 C   0  0  0  0  0  0  0  0  0  0  0  0
    6.1231   -3.4856    0.2704 C   0  0  0  0  0  0  0  0  0  0  0  0
    1.9862   -6.8109    0.1588 H   0  0  0  0  0  0  0  0  0  0  0  0
    8.7746   -2.9231    0.8841 H   0  0  0  0  0  0  0  0  0  0  0  0
    5.4672   -4.3173   -2.5154 H   0  0  0  0  0  0  0  0  0  0  0  0
    4.6496   -2.7503   -2.4963 H   0  0  0  0  0  0  0  0  0  0  0  0
    4.1835   -2.8726   -0.1648 H   0  0  0  0  0  0  0  0  0  0  0  0
    3.1874   -4.9826   -0.6057 H   0  0  0  0  0  0  0  0  0  0  0  0
    4.7045   -5.8002   -0.8166 H   0  0  0  0  0  0  0  0  0  0  0  0
    4.8871   -6.3376    1.3198 H   0  0  0  0  0  0  0  0  0  0  0  0
   -0.6404   -7.8586    0.7864 H   0  0  0  0  0  0  0  0  0  0  0  0
   -2.2705   -8.0693    2.6601 H   0  0  0  0  0  0  0  0  0  0  0  0
   -1.6914   -7.1615    4.8938 H   0  0  0  0  0  0  0  0  0  0  0  0
    0.5108   -6.0522    5.2679 H   0  0  0  0  0  0  0  0  0  0  0  0
    2.9969   -4.0327    4.2927 H   0  0  0  0  0  0  0  0  0  0  0  0
    3.4160   -5.5712    5.0252 H   0  0  0  0  0  0  0  0  0  0  0  0
    5.4058   -4.1652    4.1646 H   0  0  0  0  0  0  0  0  0  0  0  0
    5.3738   -5.8363    3.6141 H   0  0  0  0  0  0  0  0  0  0  0  0
    6.6080   -3.2899    2.3521 H   0  0  0  0  0  0  0  0  0  0  0  0
    6.8287   -4.9148    1.6902 H   0  0  0  0  0  0  0  0  0  0  0  0
    8.6476   -1.5044   -0.1652 H   0  0  0  0  0  0  0  0  0  0  0  0
    9.1764   -3.0431   -0.8422 H   0  0  0  0  0  0  0  0  0  0  0  0
    7.3549   -2.8640   -2.5223 H   0  0  0  0  0  0  0  0  0  0  0  0
  1  2  1  0
  1 23  1  0
  1 40  1  0
  1 41  1  0
  2 21  2  0
  2  3  1  0
  3  4  1  0
  3 42  1  0
  4  5  1  0
  4 24  1  0
  4 25  1  0
  5  6  1  0
  5 26  1  1
  5 21  1  0
  6  7  1  0
  6 27  1  0
  6 28  1  0
  7 19  1  0
  7  8  1  0
  7 29  1  6
  8 16  2  0
  8  9  1  0
  9 22  1  0
  9 10  1  0
 10 15  2  0
 10 11  1  0
 11 12  2  0
 11 30  1  0
 12 13  1  0
 12 31  1  0
 13 14  2  0
 13 32  1  0
 14 15  1  0
 14 33  1  0
 15 16  1  0
 16 17  1  0
 17 18  1  0
 17 34  1  0
 17 35  1  0
 18 19  1  0
 18 36  1  0
 18 37  1  0
 19 20  1  0
 20 38  1  0
 20 39  1  0
 20 21  1  0
M  END
>  <i_m_ct_stereo_status>  (244) 
1

>  <s_m_source_file>  (244) 
/var/tmp/pbs.5076255.sched01/tmpyqr7shjn/887d44c5qo.sdf

>  <i_m_source_file_index>  (244) 
17

>  <i_lp_mmshare_version>  (244) 
48012

>  <i_f3d_flags>  (244) 
0

>  <s_epik_input>  (244) 
W0NIMl0xTj1DKFtDSDNdKVtDQEBIXShbQ0BASF0xMilbQ0gyXU4zW0NASF0oW0NIMl0yKWM0YyhbQ0gyXVtDSDJdMyljNWMoW25IXTQpW2NIXVtjSF1bY0hdW2NIXTU=

>  <s_epik_cmdline>  (244) 
J2VwaWtfcHl0aG9uJywgJy1waHQnLCAnMi4wJywgJy1waCcsICc3LjAnLCAnLXRuJywgJzgnLCAnLW1hJywgJzIwMCcsICctaW1hZScsICc8aW5maWxlLm1hZT4nLCAnLW9tYWUnLCAnPG91dGZpbGUubWFlPic=

>  <r_lp_tautomer_probability>  (244) 
1

>  <r_epik_Ionization_Penalty>  (244) 
0.670595

>  <r_epik_Ionization_Penalty_Charging>  (244) 
6.93971e-05

>  <r_epik_Ionization_Penalty_Neutral>  (244) 
0.670526

>  <r_epik_State_Penalty>  (244) 
-0

>  <r_epik_Charging_Adjusted_Penalty>  (244) 
6.93971e-05

>  <i_epik_Tot_Q>  (244) 
0

>  <i_epik_Tot_abs_Q>  (244) 
0

>  <s_epik_Chemistry_Notes>  (244) 
This compound has an imine and may undergo hydrolysis.

>  <s_lp_Force_Field>  (244) 
OPLS3e

>  <r_lp_Energy>  (244) 
7.73398

>  <b_lp_Chiralities_Consistent>  (244) 
1

>  <s_lp_Variant>  (244) 
74:0-1

>  <s_i_glide_gridfile>  (244) 
pfpi4k_grid

>  <i_i_glide_lignum>  (244) 
17

>  <i_i_glide_rotatable_bonds>  (244) 
0

>  <r_i_docking_score>  (244) 
-3.75457

>  <r_i_glide_ligand_efficiency>  (244) 
-0.178789

>  <r_i_glide_ligand_efficiency_sa>  (244) 
-0.493266

>  <r_i_glide_ligand_efficiency_ln>  (244) 
-0.92831

>  <r_i_glide_gscore>  (244) 
-3.75457

>  <r_i_glide_lipo>  (244) 
-0.41362

>  <r_i_glide_hbond>  (244) 
-0.131375

>  <r_i_glide_metal>  (244) 
-0

>  <r_i_glide_rewards>  (244) 
-1.50423

>  <r_i_glide_evdw>  (244) 
-24.7438

>  <r_i_glide_ecoul>  (244) 
-2.72708

>  <r_i_glide_erotb>  (244) 
0

>  <r_i_glide_esite>  (244) 
-0.0590916

>  <r_i_glide_emodel>  (244) 
-34.5024

>  <r_i_glide_energy>  (244) 
-27.4709

>  <r_i_glide_einternal>  (244) 
0

>  <r_i_glide_intrahb_reward>  (244) 
-0

>  <i_i_glide_confnum>  (244) 
1

>  <i_i_glide_posenum>  (244) 
1

>  <r_i_glide_eff_state_penalty>  (244) 
0

>  <ligand_id>  (244) 
74

>  <original_smiles>  (244) 
CC1=NCC2CC3c4[nH]c5ccccc5c4CCN3CC12

>  <smiles>  (244) 
[H]c1c([H])c([H])c2c(c1[H])c1c(n2[H])C2([H])N(C([H])([H])C3=C(C([H])([H])[H])N([H])C([H])([H])C3([H])C2([H])[H])C([H])([H])C1([H])[H]

$$$$
74:0:2
     RDKit          3D

 42 46  0  0  1  0  0  0  0  0999 V2000
   -0.0411    3.5948    5.8869 C   0  0  0  0  0  0  0  0  0  0  0  0
   -0.0870    2.5898    4.7586 C   0  0  0  0  0  0  0  0  0  0  0  0
   -1.2420    2.4811    4.0235 N   0  0  0  0  0  0  0  0  0  0  0  0
   -0.9997    1.6623    2.8377 C   0  0  0  0  0  0  0  0  0  0  0  0
    0.3607    0.9948    3.1121 C   0  0  1  0  0  0  0  0  0  0  0  0
    1.3556    0.9384    1.9469 C   0  0  0  0  0  0  0  0  0  0  0  0
    2.8402    0.7817    2.3851 C   0  0  2  0  0  0  0  0  0  0  0  0
    3.5809   -0.3256    1.6840 C   0  0  0  0  0  0  0  0  0  0  0  0
    3.4161   -0.7408    0.3750 N   0  0  0  0  0  0  0  0  0  0  0  0
    4.2903   -1.7618    0.0644 C   0  0  0  0  0  0  0  0  0  0  0  0
    4.4919   -2.5162   -1.1041 C   0  0  0  0  0  0  0  0  0  0  0  0
    5.4694   -3.5273   -1.1264 C   0  0  0  0  0  0  0  0  0  0  0  0
    6.2396   -3.7688    0.0284 C   0  0  0  0  0  0  0  0  0  0  0  0
    6.0297   -3.0065    1.1984 C   0  0  0  0  0  0  0  0  0  0  0  0
    5.0513   -1.9866    1.2491 C   0  0  0  0  0  0  0  0  0  0  0  0
    4.5819   -1.0571    2.2450 C   0  0  0  0  0  0  0  0  0  0  0  0
    4.9825   -0.8415    3.6721 C   0  0  0  0  0  0  0  0  0  0  0  0
    4.4014    0.4832    4.2358 C   0  0  0  0  0  0  0  0  0  0  0  0
    2.9889    0.6351    3.8556 N   0  0  0  0  0  0  0  0  0  0  0  0
    2.3612    1.7483    4.5810 C   0  0  0  0  0  0  0  0  0  0  0  0
    0.8791    1.8197    4.2544 C   0  0  0  0  0  0  0  0  0  0  0  0
    2.6751   -0.3950   -0.2282 H   0  0  0  0  0  0  0  0  0  0  0  0
    0.9660    3.7241    6.2810 H   0  0  0  0  0  0  0  0  0  0  0  0
   -0.9550    2.3320    1.9747 H   0  0  0  0  0  0  0  0  0  0  0  0
   -1.7764    0.9168    2.6691 H   0  0  0  0  0  0  0  0  0  0  0  0
    0.2267   -0.0144    3.5111 H   0  0  0  0  0  0  0  0  0  0  0  0
    1.0394    0.1292    1.2852 H   0  0  0  0  0  0  0  0  0  0  0  0
    1.2689    1.8496    1.3527 H   0  0  0  0  0  0  0  0  0  0  0  0
    3.3426    1.7078    2.1097 H   0  0  0  0  0  0  0  0  0  0  0  0
    3.8826   -2.3271   -1.9701 H   0  0  0  0  0  0  0  0  0  0  0  0
    5.6176   -4.1168   -2.0172 H   0  0  0  0  0  0  0  0  0  0  0  0
    6.9866   -4.5481    0.0247 H   0  0  0  0  0  0  0  0  0  0  0  0
    6.6134   -3.2122    2.0805 H   0  0  0  0  0  0  0  0  0  0  0  0
    4.6312   -1.6732    4.2771 H   0  0  0  0  0  0  0  0  0  0  0  0
    6.0650   -0.8100    3.7358 H   0  0  0  0  0  0  0  0  0  0  0  0
    4.5084    0.4964    5.3252 H   0  0  0  0  0  0  0  0  0  0  0  0
    4.9705    1.3312    3.8490 H   0  0  0  0  0  0  0  0  0  0  0  0
    2.5069    1.6602    5.6603 H   0  0  0  0  0  0  0  0  0  0  0  0
    2.8267    2.6845    4.2610 H   0  0  0  0  0  0  0  0  0  0  0  0
   -0.6872    3.2592    6.6990 H   0  0  0  0  0  0  0  0  0  0  0  0
   -0.4180    4.5613    5.5497 H   0  0  0  0  0  0  0  0  0  0  0  0
   -1.8310    3.2971    3.9318 H   0  0  0  0  0  0  0  0  0  0  0  0
  1  2  1  0
  1 23  1  0
  1 40  1  0
  1 41  1  0
  2 21  2  0
  2  3  1  0
  3  4  1  0
  3 42  1  0
  4  5  1  0
  4 24  1  0
  4 25  1  0
  5  6  1  0
  5 26  1  1
  5 21  1  0
  6  7  1  0
  6 27  1  0
  6 28  1  0
  7 19  1  0
  7  8  1  0
  7 29  1  6
  8 16  2  0
  8  9  1  0
  9 22  1  0
  9 10  1  0
 10 15  2  0
 10 11  1  0
 11 12  2  0
 11 30  1  0
 12 13  1  0
 12 31  1  0
 13 14  2  0
 13 32  1  0
 14 15  1  0
 14 33  1  0
 15 16  1  0
 16 17  1  0
 17 18  1  0
 17 34  1  0
 17 35  1  0
 18 19  1  0
 18 36  1  0
 18 37  1  0
 19 20  1  0
 20 38  1  0
 20 39  1  0
 20 21  1  0
M  END
>  <i_m_ct_stereo_status>  (245) 
1

>  <s_m_source_file>  (245) 
/var/tmp/pbs.5076255.sched01/tmpyqr7shjn/887d44c5qo.sdf

>  <i_m_source_file_index>  (245) 
17

>  <i_lp_mmshare_version>  (245) 
48012

>  <i_f3d_flags>  (245) 
0

>  <s_epik_input>  (245) 
W0NIMl0xTj1DKFtDSDNdKVtDQEBIXShbQ0BASF0xMilbQ0gyXU4zW0NASF0oW0NIMl0yKWM0YyhbQ0gyXVtDSDJdMyljNWMoW25IXTQpW2NIXVtjSF1bY0hdW2NIXTU=

>  <s_epik_cmdline>  (245) 
J2VwaWtfcHl0aG9uJywgJy1waHQnLCAnMi4wJywgJy1waCcsICc3LjAnLCAnLXRuJywgJzgnLCAnLW1hJywgJzIwMCcsICctaW1hZScsICc8aW5maWxlLm1hZT4nLCAnLW9tYWUnLCAnPG91dGZpbGUubWFlPic=

>  <r_lp_tautomer_probability>  (245) 
1

>  <r_epik_Ionization_Penalty>  (245) 
0.670595

>  <r_epik_Ionization_Penalty_Charging>  (245) 
6.93971e-05

>  <r_epik_Ionization_Penalty_Neutral>  (245) 
0.670526

>  <r_epik_State_Penalty>  (245) 
-0

>  <r_epik_Charging_Adjusted_Penalty>  (245) 
6.93971e-05

>  <i_epik_Tot_Q>  (245) 
0

>  <i_epik_Tot_abs_Q>  (245) 
0

>  <s_epik_Chemistry_Notes>  (245) 
This compound has an imine and may undergo hydrolysis.

>  <s_lp_Force_Field>  (245) 
OPLS3e

>  <r_lp_Energy>  (245) 
7.73398

>  <b_lp_Chiralities_Consistent>  (245) 
1

>  <s_lp_Variant>  (245) 
74:0-1

>  <s_i_glide_gridfile>  (245) 
pfpi4k_grid

>  <i_i_glide_lignum>  (245) 
17

>  <i_i_glide_rotatable_bonds>  (245) 
0

>  <r_i_docking_score>  (245) 
-3.62031

>  <r_i_glide_ligand_efficiency>  (245) 
-0.172396

>  <r_i_glide_ligand_efficiency_sa>  (245) 
-0.475626

>  <r_i_glide_ligand_efficiency_ln>  (245) 
-0.895113

>  <r_i_glide_gscore>  (245) 
-3.62031

>  <r_i_glide_lipo>  (245) 
-0.529718

>  <r_i_glide_hbond>  (245) 
-0.0979982

>  <r_i_glide_metal>  (245) 
-0

>  <r_i_glide_rewards>  (245) 
-1.50423

>  <r_i_glide_evdw>  (245) 
-22.5851

>  <r_i_glide_ecoul>  (245) 
-1.79498

>  <r_i_glide_erotb>  (245) 
0

>  <r_i_glide_esite>  (245) 
-0.0898569

>  <r_i_glide_emodel>  (245) 
-31.1242

>  <r_i_glide_energy>  (245) 
-24.3801

>  <r_i_glide_einternal>  (245) 
0

>  <r_i_glide_intrahb_reward>  (245) 
-0

>  <i_i_glide_confnum>  (245) 
2

>  <i_i_glide_posenum>  (245) 
21

>  <r_i_glide_eff_state_penalty>  (245) 
0

>  <ligand_id>  (245) 
74

>  <original_smiles>  (245) 
CC1=NCC2CC3c4[nH]c5ccccc5c4CCN3CC12

>  <smiles>  (245) 
[H]c1c([H])c([H])c2c(c1[H])c1c(n2[H])C2([H])N(C([H])([H])C3=C(C([H])([H])[H])N([H])C([H])([H])C3([H])C2([H])[H])C([H])([H])C1([H])[H]

$$$$
75:0:0
     RDKit          3D

 41 44  0  0  1  0  0  0  0  0999 V2000
    4.1782   -3.3652   -3.9412 C   0  0  0  0  0  0  0  0  0  0  0  0
    4.4996   -2.3492   -2.8495 C   0  0  2  0  0  0  0  0  0  0  0  0
    5.7428   -2.7893   -2.0902 C   0  0  0  0  0  0  0  0  0  0  0  0
    5.7354   -3.2386   -0.8148 C   0  0  0  0  0  0  0  0  0  0  0  0
    6.9554   -3.6001   -0.2614 N   0  0  0  0  0  0  0  0  0  0  0  0
    7.0215   -4.5642    0.5595 C   0  0  0  0  0  0  0  0  0  0  0  0
    8.6630   -4.8955    1.2336 S   0  0  0  0  0  0  0  0  0  0  0  0
    8.4421   -6.1867    2.4755 C   0  0  0  0  0  0  0  0  0  0  0  0
    7.3654   -7.1872    2.0652 C   0  0  0  0  0  0  0  0  0  0  0  0
    5.9974   -6.5092    1.9735 C   0  0  0  0  0  0  0  0  0  0  0  0
    5.0782   -6.8986    2.6935 O   0  0  0  0  0  0  0  0  0  0  0  0
    5.7860   -5.4201    0.8976 C   0  0  1  0  0  0  0  0  0  0  0  0
    4.4878   -4.5536    1.0299 C   0  0  1  0  0  0  0  0  0  0  0  0
    4.1775   -4.0699    2.4472 C   0  0  0  0  0  0  0  0  0  0  0  0
    3.0388   -4.5356    3.1365 C   0  0  0  0  0  0  0  0  0  0  0  0
    2.7880   -4.0557    4.4365 C   0  0  0  0  0  0  0  0  0  0  0  0
    3.6907   -3.1261    4.9945 C   0  0  0  0  0  0  0  0  0  0  0  0
    4.7835   -2.6789    4.3477 N   0  0  0  0  0  0  0  0  0  0  0  0
    5.0134   -3.1433    3.1027 C   0  0  0  0  0  0  0  0  0  0  0  0
    4.4703   -3.3396    0.0455 C   0  0  2  0  0  0  0  0  0  0  0  0
    3.2178   -3.2171   -0.8329 C   0  0  0  0  0  0  0  0  0  0  0  0
    2.2082   -3.8955   -0.6631 O   0  0  0  0  0  0  0  0  0  0  0  0
    3.2956   -2.1390   -1.9119 C   0  0  0  0  0  0  0  0  0  0  0  0
    5.0059   -3.4782   -4.6363 H   0  0  0  0  0  0  0  0  0  0  0  0
    3.2975   -3.0697   -4.5093 H   0  0  0  0  0  0  0  0  0  0  0  0
    3.9999   -4.3469   -3.5197 H   0  0  0  0  0  0  0  0  0  0  0  0
    4.7346   -1.3904   -3.3178 H   0  0  0  0  0  0  0  0  0  0  0  0
    6.6691   -2.7527   -2.6476 H   0  0  0  0  0  0  0  0  0  0  0  0
    9.4038   -6.6878    2.5826 H   0  0  0  0  0  0  0  0  0  0  0  0
    8.2079   -5.7459    3.4452 H   0  0  0  0  0  0  0  0  0  0  0  0
    7.6010   -7.6453    1.1029 H   0  0  0  0  0  0  0  0  0  0  0  0
    7.3097   -7.9892    2.8046 H   0  0  0  0  0  0  0  0  0  0  0  0
    5.6204   -6.0086   -0.0041 H   0  0  0  0  0  0  0  0  0  0  0  0
    3.6793   -5.2402    0.7669 H   0  0  0  0  0  0  0  0  0  0  0  0
    2.3690   -5.2516    2.6840 H   0  0  0  0  0  0  0  0  0  0  0  0
    1.9278   -4.3882    4.9982 H   0  0  0  0  0  0  0  0  0  0  0  0
    3.5323   -2.7326    5.9904 H   0  0  0  0  0  0  0  0  0  0  0  0
    5.8922   -2.7546    2.6204 H   0  0  0  0  0  0  0  0  0  0  0  0
    4.4882   -2.4241    0.6349 H   0  0  0  0  0  0  0  0  0  0  0  0
    3.4092   -1.1825   -1.4001 H   0  0  0  0  0  0  0  0  0  0  0  0
    2.3596   -2.0849   -2.4686 H   0  0  0  0  0  0  0  0  0  0  0  0
  1  2  1  0
  1 24  1  0
  1 25  1  0
  1 26  1  0
  2 23  1  0
  2  3  1  0
  2 27  1  6
  3  4  2  0
  3 28  1  0
  4 20  1  0
  4  5  1  0
  5  6  2  0
  6 12  1  0
  6  7  1  0
  7  8  1  0
  8  9  1  0
  8 29  1  0
  8 30  1  0
  9 10  1  0
  9 31  1  0
  9 32  1  0
 10 11  2  0
 10 12  1  0
 12 13  1  0
 12 33  1  6
 13 14  1  0
 13 20  1  0
 13 34  1  6
 14 19  1  0
 14 15  2  0
 15 16  1  0
 15 35  1  0
 16 17  2  0
 16 36  1  0
 17 18  1  0
 17 37  1  0
 18 19  2  0
 19 38  1  0
 20 21  1  0
 20 39  1  1
 21 22  2  0
 21 23  1  0
 23 40  1  0
 23 41  1  0
M  END
>  <i_m_ct_stereo_status>  (246) 
1

>  <s_m_source_file>  (246) 
/var/tmp/pbs.5076255.sched01/tmpyqr7shjn/887d44c5qo.sdf

>  <i_m_source_file_index>  (246) 
18

>  <i_lp_mmshare_version>  (246) 
48012

>  <i_f3d_flags>  (246) 
0

>  <s_epik_input>  (246) 
W2NIXTFuW2NIXVtjSF1bY0hdYzFbQ0BASF0oW0NAQEhdKEMyMylDKD1PKVtDSDJdW0NASF0oW0NIM10pW0NIXT0yKVtDQEhdNEMoPU4zKVNbQ0gyXVtDSDJdQzQ9Tw==

>  <s_epik_cmdline>  (246) 
J2VwaWtfcHl0aG9uJywgJy1waHQnLCAnMi4wJywgJy1waCcsICc3LjAnLCAnLXRuJywgJzgnLCAnLW1hJywgJzIwMCcsICctaW1hZScsICc8aW5maWxlLm1hZT4nLCAnLW9tYWUnLCAnPG91dGZpbGUubWFlPic=

>  <r_lp_tautomer_probability>  (246) 
0.9999

>  <r_epik_Ionization_Penalty>  (246) 
0.00121035

>  <r_epik_Ionization_Penalty_Charging>  (246) 
0

>  <r_epik_Ionization_Penalty_Neutral>  (246) 
0.00121035

>  <r_epik_State_Penalty>  (246) 
0.000799206

>  <r_epik_Charging_Adjusted_Penalty>  (246) 
0.000799206

>  <i_epik_Tot_Q>  (246) 
0

>  <i_epik_Tot_abs_Q>  (246) 
0

>  <s_epik_Chemistry_Notes>  (246) 
This compound has an imine and may undergo hydrolysis.

>  <s_lp_Force_Field>  (246) 
OPLS3e

>  <r_lp_Energy>  (246) 
22.7975

>  <b_lp_Chiralities_Consistent>  (246) 
1

>  <s_lp_Variant>  (246) 
75:0-1

>  <s_i_glide_gridfile>  (246) 
pfpi4k_grid

>  <i_i_glide_lignum>  (246) 
18

>  <i_i_glide_rotatable_bonds>  (246) 
1

>  <r_i_docking_score>  (246) 
-3.3567

>  <r_i_glide_ligand_efficiency>  (246) 
-0.145944

>  <r_i_glide_ligand_efficiency_sa>  (246) 
-0.415044

>  <r_i_glide_ligand_efficiency_ln>  (246) 
-0.811681

>  <r_i_glide_gscore>  (246) 
-3.3567

>  <r_i_glide_lipo>  (246) 
-0.536912

>  <r_i_glide_hbond>  (246) 
0

>  <r_i_glide_metal>  (246) 
-0

>  <r_i_glide_rewards>  (246) 
-1.48149

>  <r_i_glide_evdw>  (246) 
-27.2734

>  <r_i_glide_ecoul>  (246) 
-1.00436

>  <r_i_glide_erotb>  (246) 
0.176022

>  <r_i_glide_esite>  (246) 
0

>  <r_i_glide_emodel>  (246) 
-34.5146

>  <r_i_glide_energy>  (246) 
-28.2778

>  <r_i_glide_einternal>  (246) 
0.118755

>  <r_i_glide_intrahb_reward>  (246) 
-0

>  <i_i_glide_confnum>  (246) 
4

>  <i_i_glide_posenum>  (246) 
11

>  <r_i_glide_eff_state_penalty>  (246) 
0

>  <ligand_id>  (246) 
75

>  <original_smiles>  (246) 
CC1C=C2N=C3SCCC(=O)C3C(c3cccnc3)C2C(=O)C1

>  <smiles>  (246) 
[H]C1=C2N=C3SC([H])([H])C([H])([H])C(=O)C3([H])C([H])(c3c([H])nc([H])c([H])c3[H])C2([H])C(=O)C([H])([H])C1([H])C([H])([H])[H]

$$$$
75:0:1
     RDKit          3D

 41 44  0  0  1  0  0  0  0  0999 V2000
    4.1754   -3.3841   -4.0043 C   0  0  0  0  0  0  0  0  0  0  0  0
    4.4861   -2.3622   -2.9096 C   0  0  2  0  0  0  0  0  0  0  0  0
    5.7249   -2.7980   -2.1417 C   0  0  0  0  0  0  0  0  0  0  0  0
    5.7108   -3.2413   -0.8657 C   0  0  0  0  0  0  0  0  0  0  0  0
    6.9272   -3.5979   -0.3070 N   0  0  0  0  0  0  0  0  0  0  0  0
    6.9904   -4.5585    0.5172 C   0  0  0  0  0  0  0  0  0  0  0  0
    8.6264   -4.8916    1.1990 S   0  0  0  0  0  0  0  0  0  0  0  0
    8.4000   -6.1776    2.4456 C   0  0  0  0  0  0  0  0  0  0  0  0
    7.3204   -7.1759    2.0391 C   0  0  0  0  0  0  0  0  0  0  0  0
    5.9571   -6.4950    1.9401 C   0  0  0  0  0  0  0  0  0  0  0  0
    5.0323   -6.8799    2.6557 O   0  0  0  0  0  0  0  0  0  0  0  0
    5.7540   -5.4141    0.8564 C   0  0  1  0  0  0  0  0  0  0  0  0
    4.4542   -4.5482    0.9755 C   0  0  1  0  0  0  0  0  0  0  0  0
    4.1339   -4.0533    2.3894 C   0  0  0  0  0  0  0  0  0  0  0  0
    5.0208   -3.2033    3.0815 C   0  0  0  0  0  0  0  0  0  0  0  0
    4.6813   -2.7709    4.3754 C   0  0  0  0  0  0  0  0  0  0  0  0
    3.4598   -3.1990    4.9238 C   0  0  0  0  0  0  0  0  0  0  0  0
    2.5956   -4.0046    4.2703 N   0  0  0  0  0  0  0  0  0  0  0  0
    2.9357   -4.4210    3.0324 C   0  0  0  0  0  0  0  0  0  0  0  0
    4.4394   -3.3389   -0.0131 C   0  0  2  0  0  0  0  0  0  0  0  0
    3.1887   -3.2158   -0.8985 C   0  0  0  0  0  0  0  0  0  0  0  0
    2.1719   -3.8840   -0.7253 O   0  0  0  0  0  0  0  0  0  0  0  0
    3.2772   -2.1406   -1.9797 C   0  0  0  0  0  0  0  0  0  0  0  0
    5.0109   -3.4967   -4.6924 H   0  0  0  0  0  0  0  0  0  0  0  0
    3.2975   -3.0895   -4.5776 H   0  0  0  0  0  0  0  0  0  0  0  0
    3.9895   -4.3665   -3.5817 H   0  0  0  0  0  0  0  0  0  0  0  0
    4.7241   -1.4076   -3.3839 H   0  0  0  0  0  0  0  0  0  0  0  0
    6.6575   -2.7622   -2.6932 H   0  0  0  0  0  0  0  0  0  0  0  0
    9.3591   -6.6829    2.5587 H   0  0  0  0  0  0  0  0  0  0  0  0
    8.1678   -5.7277    3.4097 H   0  0  0  0  0  0  0  0  0  0  0  0
    7.5604   -7.6394    1.0808 H   0  0  0  0  0  0  0  0  0  0  0  0
    7.2647   -7.9726    2.7810 H   0  0  0  0  0  0  0  0  0  0  0  0
    5.5951   -6.0085   -0.0415 H   0  0  0  0  0  0  0  0  0  0  0  0
    3.6445   -5.2348    0.7145 H   0  0  0  0  0  0  0  0  0  0  0  0
    5.9485   -2.8847    2.6310 H   0  0  0  0  0  0  0  0  0  0  0  0
    5.3400   -2.1214    4.9361 H   0  0  0  0  0  0  0  0  0  0  0  0
    3.1625   -2.8858    5.9158 H   0  0  0  0  0  0  0  0  0  0  0  0
    2.2198   -5.0634    2.5458 H   0  0  0  0  0  0  0  0  0  0  0  0
    4.4575   -2.4247    0.5767 H   0  0  0  0  0  0  0  0  0  0  0  0
    3.3910   -1.1834   -1.4697 H   0  0  0  0  0  0  0  0  0  0  0  0
    2.3462   -2.0865   -2.5416 H   0  0  0  0  0  0  0  0  0  0  0  0
  1  2  1  0
  1 24  1  0
  1 25  1  0
  1 26  1  0
  2 23  1  0
  2  3  1  0
  2 27  1  6
  3  4  2  0
  3 28  1  0
  4 20  1  0
  4  5  1  0
  5  6  2  0
  6 12  1  0
  6  7  1  0
  7  8  1  0
  8  9  1  0
  8 29  1  0
  8 30  1  0
  9 10  1  0
  9 31  1  0
  9 32  1  0
 10 11  2  0
 10 12  1  0
 12 13  1  0
 12 33  1  6
 13 14  1  0
 13 20  1  0
 13 34  1  6
 14 19  1  0
 14 15  2  0
 15 16  1  0
 15 35  1  0
 16 17  2  0
 16 36  1  0
 17 18  1  0
 17 37  1  0
 18 19  2  0
 19 38  1  0
 20 21  1  0
 20 39  1  1
 21 22  2  0
 21 23  1  0
 23 40  1  0
 23 41  1  0
M  END
>  <i_m_ct_stereo_status>  (247) 
1

>  <s_m_source_file>  (247) 
/var/tmp/pbs.5076255.sched01/tmpyqr7shjn/887d44c5qo.sdf

>  <i_m_source_file_index>  (247) 
18

>  <i_lp_mmshare_version>  (247) 
48012

>  <i_f3d_flags>  (247) 
0

>  <s_epik_input>  (247) 
W2NIXTFuW2NIXVtjSF1bY0hdYzFbQ0BASF0oW0NAQEhdKEMyMylDKD1PKVtDSDJdW0NASF0oW0NIM10pW0NIXT0yKVtDQEhdNEMoPU4zKVNbQ0gyXVtDSDJdQzQ9Tw==

>  <s_epik_cmdline>  (247) 
J2VwaWtfcHl0aG9uJywgJy1waHQnLCAnMi4wJywgJy1waCcsICc3LjAnLCAnLXRuJywgJzgnLCAnLW1hJywgJzIwMCcsICctaW1hZScsICc8aW5maWxlLm1hZT4nLCAnLW9tYWUnLCAnPG91dGZpbGUubWFlPic=

>  <r_lp_tautomer_probability>  (247) 
0.9999

>  <r_epik_Ionization_Penalty>  (247) 
0.00121035

>  <r_epik_Ionization_Penalty_Charging>  (247) 
0

>  <r_epik_Ionization_Penalty_Neutral>  (247) 
0.00121035

>  <r_epik_State_Penalty>  (247) 
0.000799206

>  <r_epik_Charging_Adjusted_Penalty>  (247) 
0.000799206

>  <i_epik_Tot_Q>  (247) 
0

>  <i_epik_Tot_abs_Q>  (247) 
0

>  <s_epik_Chemistry_Notes>  (247) 
This compound has an imine and may undergo hydrolysis.

>  <s_lp_Force_Field>  (247) 
OPLS3e

>  <r_lp_Energy>  (247) 
22.7975

>  <b_lp_Chiralities_Consistent>  (247) 
1

>  <s_lp_Variant>  (247) 
75:0-1

>  <s_i_glide_gridfile>  (247) 
pfpi4k_grid

>  <i_i_glide_lignum>  (247) 
18

>  <i_i_glide_rotatable_bonds>  (247) 
1

>  <r_i_docking_score>  (247) 
-3.29023

>  <r_i_glide_ligand_efficiency>  (247) 
-0.143054

>  <r_i_glide_ligand_efficiency_sa>  (247) 
-0.406826

>  <r_i_glide_ligand_efficiency_ln>  (247) 
-0.795608

>  <r_i_glide_gscore>  (247) 
-3.29023

>  <r_i_glide_lipo>  (247) 
-0.537345

>  <r_i_glide_hbond>  (247) 
0

>  <r_i_glide_metal>  (247) 
-0

>  <r_i_glide_rewards>  (247) 
-1.48859

>  <r_i_glide_evdw>  (247) 
-27.0827

>  <r_i_glide_ecoul>  (247) 
-0.574578

>  <r_i_glide_erotb>  (247) 
0.176022

>  <r_i_glide_esite>  (247) 
0

>  <r_i_glide_emodel>  (247) 
-33.8444

>  <r_i_glide_energy>  (247) 
-27.6573

>  <r_i_glide_einternal>  (247) 
0.0233924

>  <r_i_glide_intrahb_reward>  (247) 
-0

>  <i_i_glide_confnum>  (247) 
2

>  <i_i_glide_posenum>  (247) 
32

>  <r_i_glide_eff_state_penalty>  (247) 
0

>  <ligand_id>  (247) 
75

>  <original_smiles>  (247) 
CC1C=C2N=C3SCCC(=O)C3C(c3cccnc3)C2C(=O)C1

>  <smiles>  (247) 
[H]C1=C2N=C3SC([H])([H])C([H])([H])C(=O)C3([H])C([H])(c3c([H])nc([H])c([H])c3[H])C2([H])C(=O)C([H])([H])C1([H])C([H])([H])[H]

$$$$
75:0:2
     RDKit          3D

 41 44  0  0  1  0  0  0  0  0999 V2000
    4.9974   -2.9912   -3.1269 C   0  0  0  0  0  0  0  0  0  0  0  0
    4.9337   -2.5079   -1.6736 C   0  0  2  0  0  0  0  0  0  0  0  0
    5.7506   -3.4397   -0.7927 C   0  0  0  0  0  0  0  0  0  0  0  0
    5.2226   -4.2883    0.1119 C   0  0  0  0  0  0  0  0  0  0  0  0
    6.1090   -5.0752    0.8380 N   0  0  0  0  0  0  0  0  0  0  0  0
    5.7874   -6.2480    1.1936 C   0  0  0  0  0  0  0  0  0  0  0  0
    7.0161   -7.1408    2.1787 S   0  0  0  0  0  0  0  0  0  0  0  0
    6.2353   -8.7047    2.6426 C   0  0  0  0  0  0  0  0  0  0  0  0
    5.3194   -9.2365    1.5415 C   0  0  0  0  0  0  0  0  0  0  0  0
    4.1497   -8.2853    1.2967 C   0  0  0  0  0  0  0  0  0  0  0  0
    2.9981   -8.6830    1.4544 O   0  0  0  0  0  0  0  0  0  0  0  0
    4.4516   -6.8756    0.7444 C   0  0  1  0  0  0  0  0  0  0  0  0
    3.2699   -5.8444    0.7770 C   0  0  1  0  0  0  0  0  0  0  0  0
    2.4838   -5.8245    2.0888 C   0  0  0  0  0  0  0  0  0  0  0  0
    3.0627   -5.3395    3.2795 C   0  0  0  0  0  0  0  0  0  0  0  0
    2.2841   -5.3195    4.4503 C   0  0  0  0  0  0  0  0  0  0  0  0
    0.9615   -5.7925    4.3873 C   0  0  0  0  0  0  0  0  0  0  0  0
    0.3928   -6.2543    3.2522 N   0  0  0  0  0  0  0  0  0  0  0  0
    1.1531   -6.2879    2.1401 C   0  0  0  0  0  0  0  0  0  0  0  0
    3.7204   -4.3954    0.4014 C   0  0  2  0  0  0  0  0  0  0  0  0
    2.8969   -3.6812   -0.6875 C   0  0  0  0  0  0  0  0  0  0  0  0
    1.8102   -4.0872   -1.0877 O   0  0  0  0  0  0  0  0  0  0  0  0
    3.4811   -2.3586   -1.1741 C   0  0  0  0  0  0  0  0  0  0  0  0
    6.0273   -3.0271   -3.4836 H   0  0  0  0  0  0  0  0  0  0  0  0
    4.4324   -2.3253   -3.7778 H   0  0  0  0  0  0  0  0  0  0  0  0
    4.5827   -3.9945   -3.2286 H   0  0  0  0  0  0  0  0  0  0  0  0
    5.4090   -1.5246   -1.6122 H   0  0  0  0  0  0  0  0  0  0  0  0
    6.8208   -3.4090   -0.9420 H   0  0  0  0  0  0  0  0  0  0  0  0
    7.0353   -9.4186    2.8372 H   0  0  0  0  0  0  0  0  0  0  0  0
    5.6794   -8.5803    3.5736 H   0  0  0  0  0  0  0  0  0  0  0  0
    5.8632   -9.3755    0.6075 H   0  0  0  0  0  0  0  0  0  0  0  0
    4.9199  -10.2092    1.8334 H   0  0  0  0  0  0  0  0  0  0  0  0
    4.6009   -7.0666   -0.3168 H   0  0  0  0  0  0  0  0  0  0  0  0
    2.5691   -6.1973    0.0208 H   0  0  0  0  0  0  0  0  0  0  0  0
    4.0789   -4.9716    3.2950 H   0  0  0  0  0  0  0  0  0  0  0  0
    2.6926   -4.9468    5.3799 H   0  0  0  0  0  0  0  0  0  0  0  0
    0.3345   -5.7913    5.2680 H   0  0  0  0  0  0  0  0  0  0  0  0
    0.6641   -6.6652    1.2555 H   0  0  0  0  0  0  0  0  0  0  0  0
    3.5914   -3.7646    1.2768 H   0  0  0  0  0  0  0  0  0  0  0  0
    3.4722   -1.6903   -0.3143 H   0  0  0  0  0  0  0  0  0  0  0  0
    2.8384   -1.9067   -1.9291 H   0  0  0  0  0  0  0  0  0  0  0  0
  1  2  1  0
  1 24  1  0
  1 25  1  0
  1 26  1  0
  2 23  1  0
  2  3  1  0
  2 27  1  6
  3  4  2  0
  3 28  1  0
  4 20  1  0
  4  5  1  0
  5  6  2  0
  6 12  1  0
  6  7  1  0
  7  8  1  0
  8  9  1  0
  8 29  1  0
  8 30  1  0
  9 10  1  0
  9 31  1  0
  9 32  1  0
 10 11  2  0
 10 12  1  0
 12 13  1  0
 12 33  1  6
 13 14  1  0
 13 20  1  0
 13 34  1  6
 14 19  1  0
 14 15  2  0
 15 16  1  0
 15 35  1  0
 16 17  2  0
 16 36  1  0
 17 18  1  0
 17 37  1  0
 18 19  2  0
 19 38  1  0
 20 21  1  0
 20 39  1  1
 21 22  2  0
 21 23  1  0
 23 40  1  0
 23 41  1  0
M  END
>  <i_m_ct_stereo_status>  (248) 
1

>  <s_m_source_file>  (248) 
/var/tmp/pbs.5076255.sched01/tmpyqr7shjn/887d44c5qo.sdf

>  <i_m_source_file_index>  (248) 
18

>  <i_lp_mmshare_version>  (248) 
48012

>  <i_f3d_flags>  (248) 
0

>  <s_epik_input>  (248) 
W2NIXTFuW2NIXVtjSF1bY0hdYzFbQ0BASF0oW0NAQEhdKEMyMylDKD1PKVtDSDJdW0NASF0oW0NIM10pW0NIXT0yKVtDQEhdNEMoPU4zKVNbQ0gyXVtDSDJdQzQ9Tw==

>  <s_epik_cmdline>  (248) 
J2VwaWtfcHl0aG9uJywgJy1waHQnLCAnMi4wJywgJy1waCcsICc3LjAnLCAnLXRuJywgJzgnLCAnLW1hJywgJzIwMCcsICctaW1hZScsICc8aW5maWxlLm1hZT4nLCAnLW9tYWUnLCAnPG91dGZpbGUubWFlPic=

>  <r_lp_tautomer_probability>  (248) 
0.9999

>  <r_epik_Ionization_Penalty>  (248) 
0.00121035

>  <r_epik_Ionization_Penalty_Charging>  (248) 
0

>  <r_epik_Ionization_Penalty_Neutral>  (248) 
0.00121035

>  <r_epik_State_Penalty>  (248) 
0.000799206

>  <r_epik_Charging_Adjusted_Penalty>  (248) 
0.000799206

>  <i_epik_Tot_Q>  (248) 
0

>  <i_epik_Tot_abs_Q>  (248) 
0

>  <s_epik_Chemistry_Notes>  (248) 
This compound has an imine and may undergo hydrolysis.

>  <s_lp_Force_Field>  (248) 
OPLS3e

>  <r_lp_Energy>  (248) 
22.7975

>  <b_lp_Chiralities_Consistent>  (248) 
1

>  <s_lp_Variant>  (248) 
75:0-1

>  <s_i_glide_gridfile>  (248) 
pfpi4k_grid

>  <i_i_glide_lignum>  (248) 
18

>  <i_i_glide_rotatable_bonds>  (248) 
1

>  <r_i_docking_score>  (248) 
-3.09135

>  <r_i_glide_ligand_efficiency>  (248) 
-0.134407

>  <r_i_glide_ligand_efficiency_sa>  (248) 
-0.382235

>  <r_i_glide_ligand_efficiency_ln>  (248) 
-0.747517

>  <r_i_glide_gscore>  (248) 
-3.09135

>  <r_i_glide_lipo>  (248) 
-0.485554

>  <r_i_glide_hbond>  (248) 
-0.0384716

>  <r_i_glide_metal>  (248) 
-0

>  <r_i_glide_rewards>  (248) 
-1.30175

>  <r_i_glide_evdw>  (248) 
-28.9009

>  <r_i_glide_ecoul>  (248) 
0.201526

>  <r_i_glide_erotb>  (248) 
0.176022

>  <r_i_glide_esite>  (248) 
-0.0267833

>  <r_i_glide_emodel>  (248) 
-34.3539

>  <r_i_glide_energy>  (248) 
-28.6993

>  <r_i_glide_einternal>  (248) 
0.202781

>  <r_i_glide_intrahb_reward>  (248) 
-0

>  <i_i_glide_confnum>  (248) 
4

>  <i_i_glide_posenum>  (248) 
40

>  <r_i_glide_eff_state_penalty>  (248) 
0

>  <ligand_id>  (248) 
75

>  <original_smiles>  (248) 
CC1C=C2N=C3SCCC(=O)C3C(c3cccnc3)C2C(=O)C1

>  <smiles>  (248) 
[H]C1=C2N=C3SC([H])([H])C([H])([H])C(=O)C3([H])C([H])(c3c([H])nc([H])c([H])c3[H])C2([H])C(=O)C([H])([H])C1([H])C([H])([H])[H]

$$$$
76:0:0
     RDKit          3D

 77 84  0  0  1  0  0  0  0  0999 V2000
    4.1523   -7.1975    1.2259 C   0  0  0  0  0  0  0  0  0  0  0  0
    3.0203   -7.2064    2.1116 O   0  0  0  0  0  0  0  0  0  0  0  0
    2.5810   -6.0116    2.7167 C   0  0  1  0  0  0  0  0  0  0  0  0
    2.3195   -4.9927    1.5778 C   0  0  0  0  0  0  0  0  0  0  0  0
    1.3220   -6.1868    3.3288 O   0  0  0  0  0  0  0  0  0  0  0  0
    1.3463   -5.9776    4.7301 C   0  0  2  0  0  0  0  0  0  0  0  0
    1.8454   -4.4354    4.9017 C   0  0  0  0  0  0  0  0  0  0  0  0
    3.2778   -4.1854    4.2620 C   0  0  2  0  0  0  0  0  0  0  0  0
    3.6347   -5.5629    3.8260 C   0  0  1  0  0  0  0  0  0  0  0  0
    3.6267   -6.3703    5.2486 C   0  0  2  0  0  0  0  0  0  0  0  0
    3.6758   -5.6908    6.5311 O   0  0  0  0  0  0  0  0  0  0  0  0
    4.9552   -7.0358    5.3654 C   0  0  2  0  0  0  0  0  0  0  0  0
    6.0618   -5.8940    5.2696 C   0  0  0  0  0  0  0  0  0  0  0  0
    5.8088   -4.3522    4.8687 C   0  0  0  0  0  0  0  0  0  0  0  0
    4.4499   -3.6563    5.0923 N   0  0  1  0  0  0  0  0  0  0  0  0
    4.5718   -2.1706    4.9908 C   0  0  0  0  0  0  0  0  0  0  0  0
    3.3685   -1.4566    5.5651 C   0  0  0  0  0  0  0  0  0  0  0  0
    2.1845   -1.1339    4.6828 C   0  0  0  0  0  0  0  0  0  0  0  0
    3.0696   -0.0240    5.1727 C   0  0  0  0  0  0  0  0  0  0  0  0
    5.0432   -8.1580    4.3038 C   0  0  0  0  0  0  0  0  0  0  0  0
    3.7714   -9.0311    4.2754 C   0  0  0  0  0  0  0  0  0  0  0  0
    3.8425  -10.3482    3.7743 C   0  0  0  0  0  0  0  0  0  0  0  0
    2.7463  -11.1954    3.8293 C   0  0  0  0  0  0  0  0  0  0  0  0
    1.5361  -10.7766    4.3839 C   0  0  0  0  0  0  0  0  0  0  0  0
    0.5107  -11.6896    4.4745 O   0  0  0  0  0  0  0  0  0  0  0  0
    1.3925   -9.4372    4.8314 C   0  0  0  0  0  0  0  0  0  0  0  0
    2.4884   -8.5474    4.7469 C   0  0  0  0  0  0  0  0  0  0  0  0
    2.2894   -7.1184    5.3576 C   0  0  2  0  0  0  0  0  0  0  0  0
    1.6932   -7.4568    6.7692 C   0  0  0  0  0  0  0  0  0  0  0  0
    0.3050   -8.1554    6.6991 C   0  0  0  0  0  0  0  0  0  0  0  0
    0.0987   -9.0191    5.4797 N   0  0  1  0  0  0  0  0  0  0  0  0
   -0.9786   -8.5372    4.5349 C   0  0  0  0  0  0  0  0  0  0  0  0
   -0.7026   -8.7632    3.0458 C   0  0  0  0  0  0  0  0  0  0  0  0
   -1.2140   -7.7587    2.0471 C   0  0  0  0  0  0  0  0  0  0  0  0
   -1.8164   -9.1267    2.0997 C   0  0  0  0  0  0  0  0  0  0  0  0
    4.2196   -8.2054    0.8078 H   0  0  0  0  0  0  0  0  0  0  0  0
    5.0603   -6.9654    1.7173 H   0  0  0  0  0  0  0  0  0  0  0  0
    4.0242   -6.5202    0.3700 H   0  0  0  0  0  0  0  0  0  0  0  0
    1.7054   -5.4776    0.8176 H   0  0  0  0  0  0  0  0  0  0  0  0
    3.2525   -4.6549    1.1262 H   0  0  0  0  0  0  0  0  0  0  0  0
    1.7894   -4.1051    1.9249 H   0  0  0  0  0  0  0  0  0  0  0  0
    0.3169   -6.0174    5.0852 H   0  0  0  0  0  0  0  0  0  0  0  0
    1.1350   -3.7962    4.3792 H   0  0  0  0  0  0  0  0  0  0  0  0
    1.7931   -4.0989    5.9469 H   0  0  0  0  0  0  0  0  0  0  0  0
    3.2170   -3.5333    3.3954 H   0  0  0  0  0  0  0  0  0  0  0  0
    4.5644   -5.5828    3.2807 H   0  0  0  0  0  0  0  0  0  0  0  0
    3.7866   -6.3516    7.1973 H   0  0  0  0  0  0  0  0  0  0  0  0
    5.0565   -7.5012    6.3443 H   0  0  0  0  0  0  0  0  0  0  0  0
    6.5485   -5.8673    6.2483 H   0  0  0  0  0  0  0  0  0  0  0  0
    6.8653   -6.2522    4.6183 H   0  0  0  0  0  0  0  0  0  0  0  0
    6.5477   -3.7808    5.4239 H   0  0  0  0  0  0  0  0  0  0  0  0
    6.0938   -4.2020    3.8216 H   0  0  0  0  0  0  0  0  0  0  0  0
    5.4569   -1.8189    5.5177 H   0  0  0  0  0  0  0  0  0  0  0  0
    4.7191   -1.8816    3.9453 H   0  0  0  0  0  0  0  0  0  0  0  0
    3.1680   -1.7039    6.6090 H   0  0  0  0  0  0  0  0  0  0  0  0
    2.2525   -1.4096    3.6306 H   0  0  0  0  0  0  0  0  0  0  0  0
    1.1960   -1.2435    5.1329 H   0  0  0  0  0  0  0  0  0  0  0  0
    2.6303    0.6393    5.9171 H   0  0  0  0  0  0  0  0  0  0  0  0
    3.7122    0.4600    4.4383 H   0  0  0  0  0  0  0  0  0  0  0  0
    5.2409   -7.7765    3.3749 H   0  0  0  0  0  0  0  0  0  0  0  0
    5.8551   -8.8124    4.6201 H   0  0  0  0  0  0  0  0  0  0  0  0
    4.7779  -10.7185    3.3860 H   0  0  0  0  0  0  0  0  0  0  0  0
    2.8224  -12.2279    3.4584 H   0  0  0  0  0  0  0  0  0  0  0  0
   -0.3506  -11.3976    4.7787 H   0  0  0  0  0  0  0  0  0  0  0  0
    2.3953   -8.1190    7.2841 H   0  0  0  0  0  0  0  0  0  0  0  0
    1.5718   -6.5686    7.4034 H   0  0  0  0  0  0  0  0  0  0  0  0
    0.1620   -8.7787    7.5807 H   0  0  0  0  0  0  0  0  0  0  0  0
   -0.4432   -7.3684    6.7418 H   0  0  0  0  0  0  0  0  0  0  0  0
   -1.9004   -9.0305    4.8118 H   0  0  0  0  0  0  0  0  0  0  0  0
   -1.1922   -7.4860    4.6868 H   0  0  0  0  0  0  0  0  0  0  0  0
    0.2792   -9.1737    2.7495 H   0  0  0  0  0  0  0  0  0  0  0  0
   -1.8174   -6.9202    2.4082 H   0  0  0  0  0  0  0  0  0  0  0  0
   -0.5497   -7.5501    1.2107 H   0  0  0  0  0  0  0  0  0  0  0  0
   -1.5180   -9.8353    1.3339 H   0  0  0  0  0  0  0  0  0  0  0  0
   -2.8331   -9.2352    2.4878 H   0  0  0  0  0  0  0  0  0  0  0  0
    4.2174   -3.9081    6.0556 H   0  0  0  0  0  0  0  0  0  0  0  0
   -0.3341   -9.8574    5.8699 H   0  0  0  0  0  0  0  0  0  0  0  0
  1  2  1  0
  1 36  1  0
  1 37  1  0
  1 38  1  0
  3  2  1  6
  3  9  1  0
  3  4  1  0
  3  5  1  0
  4 39  1  0
  4 40  1  0
  4 41  1  0
  5  6  1  0
  6 28  1  0
  6  7  1  0
  6 42  1  1
  7  8  1  0
  7 43  1  0
  7 44  1  0
  8 15  1  0
  8  9  1  0
  8 45  1  6
  9 10  1  0
  9 46  1  6
 10 28  1  0
 10 11  1  1
 10 12  1  0
 11 47  1  0
 12 13  1  0
 12 20  1  0
 12 48  1  1
 13 14  1  0
 13 49  1  0
 13 50  1  0
 14 15  1  0
 14 51  1  0
 14 52  1  0
 15 16  1  0
 15 76  1  1
 16 17  1  0
 16 53  1  0
 16 54  1  0
 17 19  1  0
 17 18  1  0
 17 55  1  0
 18 19  1  0
 18 56  1  0
 18 57  1  0
 19 58  1  0
 19 59  1  0
 20 21  1  0
 20 60  1  0
 20 61  1  0
 21 27  2  0
 21 22  1  0
 22 23  2  0
 22 62  1  0
 23 24  1  0
 23 63  1  0
 24 25  1  0
 24 26  2  0
 25 64  1  0
 26 31  1  0
 26 27  1  0
 27 28  1  0
 28 29  1  1
 29 30  1  0
 29 65  1  0
 29 66  1  0
 30 31  1  0
 30 67  1  0
 30 68  1  0
 31 32  1  0
 31 77  1  1
 32 33  1  0
 32 69  1  0
 32 70  1  0
 33 35  1  0
 33 34  1  0
 33 71  1  0
 34 35  1  0
 34 72  1  0
 34 73  1  0
 35 74  1  0
 35 75  1  0
M  CHG  2  15   1  31   1
M  END
>  <i_m_ct_stereo_status>  (249) 
1

>  <s_m_source_file>  (249) 
/var/tmp/pbs.5076255.sched01/tmpyqr7shjn/887d44c5qo.sdf

>  <i_m_source_file_index>  (249) 
19

>  <i_lp_mmshare_version>  (249) 
48012

>  <i_f3d_flags>  (249) 
0

>  <s_epik_input>  (249) 
W0NAQF0xMjNbQ0BASF00T1tDQF0oW0NIM10pKE9bQ0gzXSlbQ0BIXTVbQ0hdKFtDSDJdNClOKFtDSDJdW0NIXTZbQ0gyXVtDSDJdNilbQ0gyXVtDSDJdW0NAQEhdKFtDQF0xNVtPSF0pW0NIMl1jN2MyYyhjKFtPSF0pW2NIXVtjSF03KU4oW0NIMl1bQ0gyXTMpW0NIMl1bQ0hdOFtDSDJdW0NIMl04

>  <s_epik_cmdline>  (249) 
J2VwaWtfcHl0aG9uJywgJy1waHQnLCAnMi4wJywgJy1waCcsICc3LjAnLCAnLXRuJywgJzgnLCAnLW1hJywgJzIwMCcsICctaW1hZScsICc8aW5maWxlLm1hZT4nLCAnLW9tYWUnLCAnPG91dGZpbGUubWFlPic=

>  <r_epik_Ionization_Penalty>  (249) 
0.525217

>  <r_epik_Ionization_Penalty_Charging>  (249) 
0.191832

>  <r_epik_Ionization_Penalty_Neutral>  (249) 
0.333385

>  <r_epik_State_Penalty>  (249) 
0.381236

>  <r_epik_Charging_Adjusted_Penalty>  (249) 
0.573067

>  <i_epik_Tot_Q>  (249) 
2

>  <i_epik_Tot_abs_Q>  (249) 
2

>  <s_lp_Force_Field>  (249) 
OPLS3e

>  <r_lp_Energy>  (249) 
171.643

>  <b_lp_Chiralities_Consistent>  (249) 
1

>  <s_lp_Variant>  (249) 
76:0-1

>  <s_i_glide_gridfile>  (249) 
pfpi4k_grid

>  <i_i_glide_lignum>  (249) 
19

>  <i_i_glide_rotatable_bonds>  (249) 
7

>  <r_i_docking_score>  (249) 
-2.53762

>  <r_i_glide_ligand_efficiency>  (249) 
-0.0725034

>  <r_i_glide_ligand_efficiency_sa>  (249) 
-0.237164

>  <r_i_glide_ligand_efficiency_ln>  (249) 
-0.557064

>  <r_i_glide_gscore>  (249) 
-2.53762

>  <r_i_glide_lipo>  (249) 
-0.330644

>  <r_i_glide_hbond>  (249) 
-0.194063

>  <r_i_glide_metal>  (249) 
-0

>  <r_i_glide_rewards>  (249) 
-0.618263

>  <r_i_glide_evdw>  (249) 
-18.2049

>  <r_i_glide_ecoul>  (249) 
-5.11274

>  <r_i_glide_erotb>  (249) 
0.34848

>  <r_i_glide_esite>  (249) 
-0.0659713

>  <r_i_glide_emodel>  (249) 
-28.035

>  <r_i_glide_energy>  (249) 
-23.3177

>  <r_i_glide_einternal>  (249) 
8.1927

>  <r_i_glide_intrahb_reward>  (249) 
-0.5

>  <i_i_glide_confnum>  (249) 
2

>  <i_i_glide_posenum>  (249) 
23

>  <r_i_glide_eff_state_penalty>  (249) 
0

>  <ligand_id>  (249) 
76

>  <original_smiles>  (249) 
COC1(C)OC2CC3C1C1(O)C(CCN3CC3CC3)Cc3ccc(O)c4c3C21CCN4CC1CC1

>  <smiles>  (249) 
[H]Oc1c([H])c([H])c2c3c1[N+]([H])(C([H])([H])C1([H])C([H])([H])C1([H])[H])C([H])([H])C([H])([H])C31C3([H])OC(OC([H])([H])[H])(C([H])([H])[H])C4([H])C1(O[H])C([H])(C2([H])[H])C([H])([H])C([H])([H])[N+]([H])(C([H])([H])C1([H])C([H])([H])C1([H])[H])C4([H])C3([H])[H]

$$$$
76:0:1
     RDKit          3D

 77 84  0  0  1  0  0  0  0  0999 V2000
    4.2739   -7.1566    1.1820 C   0  0  0  0  0  0  0  0  0  0  0  0
    3.1404   -7.1923    2.0799 O   0  0  0  0  0  0  0  0  0  0  0  0
    2.6895   -6.0221    2.7114 C   0  0  1  0  0  0  0  0  0  0  0  0
    2.4455   -4.9713    1.5869 C   0  0  0  0  0  0  0  0  0  0  0  0
    1.4233   -6.2198    3.2854 O   0  0  0  0  0  0  0  0  0  0  0  0
    1.4121   -6.0388    4.6886 C   0  0  2  0  0  0  0  0  0  0  0  0
    1.8855   -4.5064    4.9161 C   0  0  0  0  0  0  0  0  0  0  0  0
    3.3470   -4.2233    4.3110 C   0  0  2  0  0  0  0  0  0  0  0  0
    3.7039   -5.5932    3.8553 C   0  0  1  0  0  0  0  0  0  0  0  0
    3.6648   -6.4384    5.2528 C   0  0  2  0  0  0  0  0  0  0  0  0
    3.6888   -5.7850    6.5486 O   0  0  0  0  0  0  0  0  0  0  0  0
    5.0048   -7.0761    5.3984 C   0  0  2  0  0  0  0  0  0  0  0  0
    6.1033   -5.9379    5.3507 C   0  0  0  0  0  0  0  0  0  0  0  0
    5.8309   -4.3872    4.9754 C   0  0  0  0  0  0  0  0  0  0  0  0
    4.4688   -3.7127    5.1891 N   0  0  1  0  0  0  0  0  0  0  0  0
    4.5915   -2.2276    5.1290 C   0  0  0  0  0  0  0  0  0  0  0  0
    3.3918   -1.5184    5.7219 C   0  0  0  0  0  0  0  0  0  0  0  0
    3.3998   -0.0274    5.9341 C   0  0  0  0  0  0  0  0  0  0  0  0
    3.4331   -0.9599    7.1226 C   0  0  0  0  0  0  0  0  0  0  0  0
    5.1033   -8.2028    4.3607 C   0  0  0  0  0  0  0  0  0  0  0  0
    3.8620   -9.0735    4.2250 C   0  0  0  0  0  0  0  0  0  0  0  0
    3.9489  -10.3759    3.6871 C   0  0  0  0  0  0  0  0  0  0  0  0
    2.8561  -11.2427    3.6925 C   0  0  0  0  0  0  0  0  0  0  0  0
    1.6382  -10.8312    4.2400 C   0  0  0  0  0  0  0  0  0  0  0  0
    0.6118  -11.7289    4.2670 O   0  0  0  0  0  0  0  0  0  0  0  0
    1.4688   -9.5069    4.7244 C   0  0  0  0  0  0  0  0  0  0  0  0
    2.5695   -8.6114    4.6736 C   0  0  0  0  0  0  0  0  0  0  0  0
    2.3398   -7.1932    5.3164 C   0  0  2  0  0  0  0  0  0  0  0  0
    1.7125   -7.5637    6.7015 C   0  0  0  0  0  0  0  0  0  0  0  0
    0.3388   -8.2910    6.5656 C   0  0  0  0  0  0  0  0  0  0  0  0
    0.1543   -9.0919    5.3440 N   0  0  1  0  0  0  0  0  0  0  0  0
   -0.8793   -8.6297    4.3884 C   0  0  0  0  0  0  0  0  0  0  0  0
   -0.6560   -8.9494    2.9030 C   0  0  0  0  0  0  0  0  0  0  0  0
   -1.3949   -8.1670    1.8538 C   0  0  0  0  0  0  0  0  0  0  0  0
   -1.7307   -9.6158    2.0796 C   0  0  0  0  0  0  0  0  0  0  0  0
    4.3734   -8.1686    0.7719 H   0  0  0  0  0  0  0  0  0  0  0  0
    5.2123   -6.8796    1.6449 H   0  0  0  0  0  0  0  0  0  0  0  0
    4.1582   -6.4763    0.3411 H   0  0  0  0  0  0  0  0  0  0  0  0
    1.8549   -5.4436    0.8026 H   0  0  0  0  0  0  0  0  0  0  0  0
    3.3828   -4.6057    1.1742 H   0  0  0  0  0  0  0  0  0  0  0  0
    1.9019   -4.0973    1.9461 H   0  0  0  0  0  0  0  0  0  0  0  0
    0.3806   -6.0860    5.0293 H   0  0  0  0  0  0  0  0  0  0  0  0
    1.1960   -3.8546    4.3920 H   0  0  0  0  0  0  0  0  0  0  0  0
    1.8123   -4.2023    5.9568 H   0  0  0  0  0  0  0  0  0  0  0  0
    3.2766   -3.5401    3.4665 H   0  0  0  0  0  0  0  0  0  0  0  0
    4.6545   -5.5965    3.3303 H   0  0  0  0  0  0  0  0  0  0  0  0
    3.7464   -6.4625    7.2083 H   0  0  0  0  0  0  0  0  0  0  0  0
    5.0857   -7.5861    6.3645 H   0  0  0  0  0  0  0  0  0  0  0  0
    6.5608   -5.9357    6.3329 H   0  0  0  0  0  0  0  0  0  0  0  0
    6.9216   -6.2711    4.7155 H   0  0  0  0  0  0  0  0  0  0  0  0
    6.5669   -3.8275    5.5476 H   0  0  0  0  0  0  0  0  0  0  0  0
    6.1754   -4.2195    3.9417 H   0  0  0  0  0  0  0  0  0  0  0  0
    5.4810   -1.8854    5.6588 H   0  0  0  0  0  0  0  0  0  0  0  0
    4.7425   -1.8981    4.0983 H   0  0  0  0  0  0  0  0  0  0  0  0
    2.4341   -1.8890    5.3700 H   0  0  0  0  0  0  0  0  0  0  0  0
    4.3048    0.5278    5.6963 H   0  0  0  0  0  0  0  0  0  0  0  0
    2.4703    0.5045    5.7653 H   0  0  0  0  0  0  0  0  0  0  0  0
    2.5257   -1.0510    7.7111 H   0  0  0  0  0  0  0  0  0  0  0  0
    4.3680   -1.0477    7.6761 H   0  0  0  0  0  0  0  0  0  0  0  0
    5.3569   -7.7895    3.4187 H   0  0  0  0  0  0  0  0  0  0  0  0
    5.9546   -8.8586    4.6284 H   0  0  0  0  0  0  0  0  0  0  0  0
    4.9095  -10.7332    3.3208 H   0  0  0  0  0  0  0  0  0  0  0  0
    2.9549  -12.2498    3.3092 H   0  0  0  0  0  0  0  0  0  0  0  0
   -0.2550  -11.4733    4.5931 H   0  0  0  0  0  0  0  0  0  0  0  0
    2.4016   -8.2359    7.2116 H   0  0  0  0  0  0  0  0  0  0  0  0
    1.5658   -6.7043    7.3492 H   0  0  0  0  0  0  0  0  0  0  0  0
    0.1731   -8.9256    7.4433 H   0  0  0  0  0  0  0  0  0  0  0  0
   -0.4387   -7.5202    6.6138 H   0  0  0  0  0  0  0  0  0  0  0  0
   -1.8545   -9.0258    4.6977 H   0  0  0  0  0  0  0  0  0  0  0  0
   -1.0413   -7.5480    4.4610 H   0  0  0  0  0  0  0  0  0  0  0  0
    0.3656   -9.1212    2.5599 H   0  0  0  0  0  0  0  0  0  0  0  0
   -2.1336   -7.4418    2.1655 H   0  0  0  0  0  0  0  0  0  0  0  0
   -0.8340   -7.9320    0.9511 H   0  0  0  0  0  0  0  0  0  0  0  0
   -1.3998  -10.3664    1.3905 H   0  0  0  0  0  0  0  0  0  0  0  0
   -2.6749   -9.8476    2.5527 H   0  0  0  0  0  0  0  0  0  0  0  0
    4.2196   -3.9871    6.1444 H   0  0  0  0  0  0  0  0  0  0  0  0
   -0.2851   -9.9634    5.6941 H   0  0  0  0  0  0  0  0  0  0  0  0
  1  2  1  0
  1 36  1  0
  1 37  1  0
  1 38  1  0
  3  2  1  6
  3  9  1  0
  3  4  1  0
  3  5  1  0
  4 39  1  0
  4 40  1  0
  4 41  1  0
  5  6  1  0
  6 28  1  0
  6  7  1  0
  6 42  1  1
  7  8  1  0
  7 43  1  0
  7 44  1  0
  8 15  1  0
  8  9  1  0
  8 45  1  6
  9 10  1  0
  9 46  1  6
 10 28  1  0
 10 11  1  1
 10 12  1  0
 11 47  1  0
 12 13  1  0
 12 20  1  0
 12 48  1  1
 13 14  1  0
 13 49  1  0
 13 50  1  0
 14 15  1  0
 14 51  1  0
 14 52  1  0
 15 16  1  0
 15 76  1  1
 16 17  1  0
 16 53  1  0
 16 54  1  0
 17 19  1  0
 17 18  1  0
 17 55  1  0
 18 19  1  0
 18 56  1  0
 18 57  1  0
 19 58  1  0
 19 59  1  0
 20 21  1  0
 20 60  1  0
 20 61  1  0
 21 27  2  0
 21 22  1  0
 22 23  2  0
 22 62  1  0
 23 24  1  0
 23 63  1  0
 24 25  1  0
 24 26  2  0
 25 64  1  0
 26 31  1  0
 26 27  1  0
 27 28  1  0
 28 29  1  1
 29 30  1  0
 29 65  1  0
 29 66  1  0
 30 31  1  0
 30 67  1  0
 30 68  1  0
 31 32  1  0
 31 77  1  1
 32 33  1  0
 32 69  1  0
 32 70  1  0
 33 35  1  0
 33 34  1  0
 33 71  1  0
 34 35  1  0
 34 72  1  0
 34 73  1  0
 35 74  1  0
 35 75  1  0
M  CHG  2  15   1  31   1
M  END
>  <i_m_ct_stereo_status>  (250) 
1

>  <s_m_source_file>  (250) 
/var/tmp/pbs.5076255.sched01/tmpyqr7shjn/887d44c5qo.sdf

>  <i_m_source_file_index>  (250) 
19

>  <i_lp_mmshare_version>  (250) 
48012

>  <i_f3d_flags>  (250) 
0

>  <s_epik_input>  (250) 
W0NAQF0xMjNbQ0BASF00T1tDQF0oW0NIM10pKE9bQ0gzXSlbQ0BIXTVbQ0hdKFtDSDJdNClOKFtDSDJdW0NIXTZbQ0gyXVtDSDJdNilbQ0gyXVtDSDJdW0NAQEhdKFtDQF0xNVtPSF0pW0NIMl1jN2MyYyhjKFtPSF0pW2NIXVtjSF03KU4oW0NIMl1bQ0gyXTMpW0NIMl1bQ0hdOFtDSDJdW0NIMl04

>  <s_epik_cmdline>  (250) 
J2VwaWtfcHl0aG9uJywgJy1waHQnLCAnMi4wJywgJy1waCcsICc3LjAnLCAnLXRuJywgJzgnLCAnLW1hJywgJzIwMCcsICctaW1hZScsICc8aW5maWxlLm1hZT4nLCAnLW9tYWUnLCAnPG91dGZpbGUubWFlPic=

>  <r_epik_Ionization_Penalty>  (250) 
0.525217

>  <r_epik_Ionization_Penalty_Charging>  (250) 
0.191832

>  <r_epik_Ionization_Penalty_Neutral>  (250) 
0.333385

>  <r_epik_State_Penalty>  (250) 
0.381236

>  <r_epik_Charging_Adjusted_Penalty>  (250) 
0.573067

>  <i_epik_Tot_Q>  (250) 
2

>  <i_epik_Tot_abs_Q>  (250) 
2

>  <s_lp_Force_Field>  (250) 
OPLS3e

>  <r_lp_Energy>  (250) 
171.643

>  <b_lp_Chiralities_Consistent>  (250) 
1

>  <s_lp_Variant>  (250) 
76:0-1

>  <s_i_glide_gridfile>  (250) 
pfpi4k_grid

>  <i_i_glide_lignum>  (250) 
19

>  <i_i_glide_rotatable_bonds>  (250) 
7

>  <r_i_docking_score>  (250) 
-2.48393

>  <r_i_glide_ligand_efficiency>  (250) 
-0.0709694

>  <r_i_glide_ligand_efficiency_sa>  (250) 
-0.232146

>  <r_i_glide_ligand_efficiency_ln>  (250) 
-0.545277

>  <r_i_glide_gscore>  (250) 
-2.48393

>  <r_i_glide_lipo>  (250) 
-0.282728

>  <r_i_glide_hbond>  (250) 
-0.217658

>  <r_i_glide_metal>  (250) 
-0

>  <r_i_glide_rewards>  (250) 
-0.618263

>  <r_i_glide_evdw>  (250) 
-18.9292

>  <r_i_glide_ecoul>  (250) 
-4.67821

>  <r_i_glide_erotb>  (250) 
0.34848

>  <r_i_glide_esite>  (250) 
-0.0655674

>  <r_i_glide_emodel>  (250) 
-29.5721

>  <r_i_glide_energy>  (250) 
-23.6074

>  <r_i_glide_einternal>  (250) 
7.01401

>  <r_i_glide_intrahb_reward>  (250) 
-0.5

>  <i_i_glide_confnum>  (250) 
2

>  <i_i_glide_posenum>  (250) 
17

>  <r_i_glide_eff_state_penalty>  (250) 
0

>  <ligand_id>  (250) 
76

>  <original_smiles>  (250) 
COC1(C)OC2CC3C1C1(O)C(CCN3CC3CC3)Cc3ccc(O)c4c3C21CCN4CC1CC1

>  <smiles>  (250) 
[H]Oc1c([H])c([H])c2c3c1[N+]([H])(C([H])([H])C1([H])C([H])([H])C1([H])[H])C([H])([H])C([H])([H])C31C3([H])OC(OC([H])([H])[H])(C([H])([H])[H])C4([H])C1(O[H])C([H])(C2([H])[H])C([H])([H])C([H])([H])[N+]([H])(C([H])([H])C1([H])C([H])([H])C1([H])[H])C4([H])C3([H])[H]

$$$$
76:0:2
     RDKit          3D

 77 84  0  0  1  0  0  0  0  0999 V2000
    1.2001   -1.3669    6.7372 C   0  0  0  0  0  0  0  0  0  0  0  0
    2.0460   -1.4572    5.5979 O   0  0  0  0  0  0  0  0  0  0  0  0
    1.4758   -1.4248    4.3248 C   0  0  1  0  0  0  0  0  0  0  0  0
    0.5410   -2.6596    4.2076 C   0  0  0  0  0  0  0  0  0  0  0  0
    0.6743   -0.2973    4.1404 O   0  0  0  0  0  0  0  0  0  0  0  0
    1.1756    0.5673    3.1402 C   0  0  2  0  0  0  0  0  0  0  0  0
    1.2277   -0.3233    1.7773 C   0  0  0  0  0  0  0  0  0  0  0  0
    2.1375   -1.6331    1.9112 C   0  0  2  0  0  0  0  0  0  0  0  0
    2.6842   -1.4126    3.2757 C   0  0  1  0  0  0  0  0  0  0  0  0
    3.4700   -0.0017    3.0967 C   0  0  2  0  0  0  0  0  0  0  0  0
    3.8104    0.5397    1.8005 O   0  0  0  0  0  0  0  0  0  0  0  0
    4.8602   -0.2937    3.5326 C   0  0  2  0  0  0  0  0  0  0  0  0
    5.4634   -1.4368    2.6049 C   0  0  0  0  0  0  0  0  0  0  0  0
    4.6033   -2.3664    1.6073 C   0  0  0  0  0  0  0  0  0  0  0  0
    3.3015   -1.8813    0.9638 N   0  0  1  0  0  0  0  0  0  0  0  0
    2.9122   -2.7342   -0.1921 C   0  0  0  0  0  0  0  0  0  0  0  0
    3.4570   -2.2267   -1.5176 C   0  0  0  0  0  0  0  0  0  0  0  0
    3.0191   -2.9102   -2.8012 C   0  0  0  0  0  0  0  0  0  0  0  0
    4.4366   -3.0540   -2.3281 C   0  0  0  0  0  0  0  0  0  0  0  0
    4.8260   -0.5075    5.0397 C   0  0  0  0  0  0  0  0  0  0  0  0
    4.0284    0.5348    5.8281 C   0  0  0  0  0  0  0  0  0  0  0  0
    4.3472    0.8210    7.1699 C   0  0  0  0  0  0  0  0  0  0  0  0
    3.6755    1.8341    7.8651 C   0  0  0  0  0  0  0  0  0  0  0  0
    2.6871    2.6020    7.2253 C   0  0  0  0  0  0  0  0  0  0  0  0
    2.1617    3.6519    7.9350 O   0  0  0  0  0  0  0  0  0  0  0  0
    2.2910    2.3172    5.8950 C   0  0  0  0  0  0  0  0  0  0  0  0
    2.9523    1.2634    5.2030 C   0  0  0  0  0  0  0  0  0  0  0  0
    2.5901    1.1094    3.6863 C   0  0  2  0  0  0  0  0  0  0  0  0
    2.7169    2.5761    3.1558 C   0  0  0  0  0  0  0  0  0  0  0  0
    1.6879    3.5559    3.7873 C   0  0  0  0  0  0  0  0  0  0  0  0
    1.3172    3.2426    5.1974 N   0  0  1  0  0  0  0  0  0  0  0  0
   -0.1231    2.8908    5.3795 C   0  0  0  0  0  0  0  0  0  0  0  0
   -0.5677    2.7973    6.8371 C   0  0  0  0  0  0  0  0  0  0  0  0
   -2.0422    2.7942    7.1816 C   0  0  0  0  0  0  0  0  0  0  0  0
   -1.1932    3.9815    7.5445 C   0  0  0  0  0  0  0  0  0  0  0  0
    1.8142   -1.1124    7.5998 H   0  0  0  0  0  0  0  0  0  0  0  0
    0.7294   -2.3239    6.9579 H   0  0  0  0  0  0  0  0  0  0  0  0
    0.4343   -0.5983    6.6343 H   0  0  0  0  0  0  0  0  0  0  0  0
   -0.2077   -2.6732    4.9985 H   0  0  0  0  0  0  0  0  0  0  0  0
    1.1252   -3.5782    4.2533 H   0  0  0  0  0  0  0  0  0  0  0  0
   -0.0285   -2.6347    3.2811 H   0  0  0  0  0  0  0  0  0  0  0  0
    0.4516    1.3654    2.9885 H   0  0  0  0  0  0  0  0  0  0  0  0
    0.2154   -0.6618    1.5876 H   0  0  0  0  0  0  0  0  0  0  0  0
    1.4761    0.2831    0.9018 H   0  0  0  0  0  0  0  0  0  0  0  0
    1.5342   -2.5326    1.8977 H   0  0  0  0  0  0  0  0  0  0  0  0
    3.2801   -2.2574    3.6182 H   0  0  0  0  0  0  0  0  0  0  0  0
    3.0159    0.7895    1.3575 H   0  0  0  0  0  0  0  0  0  0  0  0
    5.4821    0.5932    3.3950 H   0  0  0  0  0  0  0  0  0  0  0  0
    6.2387   -0.9544    2.0052 H   0  0  0  0  0  0  0  0  0  0  0  0
    6.0208   -2.1148    3.2494 H   0  0  0  0  0  0  0  0  0  0  0  0
    5.2867   -2.6128    0.7922 H   0  0  0  0  0  0  0  0  0  0  0  0
    4.4244   -3.3277    2.0926 H   0  0  0  0  0  0  0  0  0  0  0  0
    3.2224   -3.7712   -0.0374 H   0  0  0  0  0  0  0  0  0  0  0  0
    1.8311   -2.7713   -0.3046 H   0  0  0  0  0  0  0  0  0  0  0  0
    3.5168   -1.1377   -1.5945 H   0  0  0  0  0  0  0  0  0  0  0  0
    2.3711   -3.7842   -2.7300 H   0  0  0  0  0  0  0  0  0  0  0  0
    2.8532   -2.2866   -3.6779 H   0  0  0  0  0  0  0  0  0  0  0  0
    5.2061   -2.5134   -2.8771 H   0  0  0  0  0  0  0  0  0  0  0  0
    4.7384   -4.0236   -1.9296 H   0  0  0  0  0  0  0  0  0  0  0  0
    4.4627   -1.5004    5.3038 H   0  0  0  0  0  0  0  0  0  0  0  0
    5.8550   -0.4759    5.4010 H   0  0  0  0  0  0  0  0  0  0  0  0
    5.1430    0.2797    7.6654 H   0  0  0  0  0  0  0  0  0  0  0  0
    3.9488    2.0641    8.8854 H   0  0  0  0  0  0  0  0  0  0  0  0
    1.4532    4.1438    7.5515 H   0  0  0  0  0  0  0  0  0  0  0  0
    3.7215    2.9379    3.3814 H   0  0  0  0  0  0  0  0  0  0  0  0
    2.5928    2.6531    2.0749 H   0  0  0  0  0  0  0  0  0  0  0  0
    2.1190    4.5585    3.7723 H   0  0  0  0  0  0  0  0  0  0  0  0
    0.7990    3.6237    3.1613 H   0  0  0  0  0  0  0  0  0  0  0  0
   -0.7468    3.6318    4.8791 H   0  0  0  0  0  0  0  0  0  0  0  0
   -0.3405    1.9307    4.9280 H   0  0  0  0  0  0  0  0  0  0  0  0
    0.0048    2.0967    7.4464 H   0  0  0  0  0  0  0  0  0  0  0  0
   -2.7642    2.9136    6.3759 H   0  0  0  0  0  0  0  0  0  0  0  0
   -2.3629    2.1586    8.0068 H   0  0  0  0  0  0  0  0  0  0  0  0
   -0.9476    4.1150    8.5985 H   0  0  0  0  0  0  0  0  0  0  0  0
   -1.3354    4.8979    6.9743 H   0  0  0  0  0  0  0  0  0  0  0  0
    3.5403   -0.9670    0.6006 H   0  0  0  0  0  0  0  0  0  0  0  0
    1.3987    4.1452    5.6320 H   0  0  0  0  0  0  0  0  0  0  0  0
  1  2  1  0
  1 36  1  0
  1 37  1  0
  1 38  1  0
  3  2  1  1
  3  9  1  0
  3  4  1  0
  3  5  1  0
  4 39  1  0
  4 40  1  0
  4 41  1  0
  5  6  1  0
  6 28  1  0
  6  7  1  0
  6 42  1  6
  7  8  1  0
  7 43  1  0
  7 44  1  0
  8 15  1  0
  8  9  1  0
  8 45  1  1
  9 10  1  0
  9 46  1  1
 10 28  1  0
 10 11  1  6
 10 12  1  0
 11 47  1  0
 12 13  1  0
 12 20  1  0
 12 48  1  1
 13 14  1  0
 13 49  1  0
 13 50  1  0
 14 15  1  0
 14 51  1  0
 14 52  1  0
 15 16  1  0
 15 76  1  6
 16 17  1  0
 16 53  1  0
 16 54  1  0
 17 19  1  0
 17 18  1  0
 17 55  1  0
 18 19  1  0
 18 56  1  0
 18 57  1  0
 19 58  1  0
 19 59  1  0
 20 21  1  0
 20 60  1  0
 20 61  1  0
 21 27  2  0
 21 22  1  0
 22 23  2  0
 22 62  1  0
 23 24  1  0
 23 63  1  0
 24 25  1  0
 24 26  2  0
 25 64  1  0
 26 31  1  0
 26 27  1  0
 27 28  1  0
 28 29  1  6
 29 30  1  0
 29 65  1  0
 29 66  1  0
 30 31  1  0
 30 67  1  0
 30 68  1  0
 31 32  1  0
 31 77  1  1
 32 33  1  0
 32 69  1  0
 32 70  1  0
 33 35  1  0
 33 34  1  0
 33 71  1  0
 34 35  1  0
 34 72  1  0
 34 73  1  0
 35 74  1  0
 35 75  1  0
M  CHG  2  15   1  31   1
M  END
>  <i_m_ct_stereo_status>  (251) 
1

>  <s_m_source_file>  (251) 
/var/tmp/pbs.5076255.sched01/tmpyqr7shjn/887d44c5qo.sdf

>  <i_m_source_file_index>  (251) 
19

>  <i_lp_mmshare_version>  (251) 
48012

>  <i_f3d_flags>  (251) 
0

>  <s_epik_input>  (251) 
W0NAQF0xMjNbQ0BASF00T1tDQF0oW0NIM10pKE9bQ0gzXSlbQ0BIXTVbQ0hdKFtDSDJdNClOKFtDSDJdW0NIXTZbQ0gyXVtDSDJdNilbQ0gyXVtDSDJdW0NAQEhdKFtDQF0xNVtPSF0pW0NIMl1jN2MyYyhjKFtPSF0pW2NIXVtjSF03KU4oW0NIMl1bQ0gyXTMpW0NIMl1bQ0hdOFtDSDJdW0NIMl04

>  <s_epik_cmdline>  (251) 
J2VwaWtfcHl0aG9uJywgJy1waHQnLCAnMi4wJywgJy1waCcsICc3LjAnLCAnLXRuJywgJzgnLCAnLW1hJywgJzIwMCcsICctaW1hZScsICc8aW5maWxlLm1hZT4nLCAnLW9tYWUnLCAnPG91dGZpbGUubWFlPic=

>  <r_epik_Ionization_Penalty>  (251) 
0.525217

>  <r_epik_Ionization_Penalty_Charging>  (251) 
0.191832

>  <r_epik_Ionization_Penalty_Neutral>  (251) 
0.333385

>  <r_epik_State_Penalty>  (251) 
0.381236

>  <r_epik_Charging_Adjusted_Penalty>  (251) 
0.573067

>  <i_epik_Tot_Q>  (251) 
2

>  <i_epik_Tot_abs_Q>  (251) 
2

>  <s_lp_Force_Field>  (251) 
OPLS3e

>  <r_lp_Energy>  (251) 
171.643

>  <b_lp_Chiralities_Consistent>  (251) 
1

>  <s_lp_Variant>  (251) 
76:0-1

>  <s_i_glide_gridfile>  (251) 
pfpi4k_grid

>  <i_i_glide_lignum>  (251) 
19

>  <i_i_glide_rotatable_bonds>  (251) 
7

>  <r_i_docking_score>  (251) 
-1.98585

>  <r_i_glide_ligand_efficiency>  (251) 
-0.0567385

>  <r_i_glide_ligand_efficiency_sa>  (251) 
-0.185595

>  <r_i_glide_ligand_efficiency_ln>  (251) 
-0.435937

>  <r_i_glide_gscore>  (251) 
-1.98585

>  <r_i_glide_lipo>  (251) 
-0.392528

>  <r_i_glide_hbond>  (251) 
0

>  <r_i_glide_metal>  (251) 
-0

>  <r_i_glide_rewards>  (251) 
-0.118263

>  <r_i_glide_evdw>  (251) 
-19.608

>  <r_i_glide_ecoul>  (251) 
-5.3412

>  <r_i_glide_erotb>  (251) 
0.34848

>  <r_i_glide_esite>  (251) 
-0.0419539

>  <r_i_glide_emodel>  (251) 
-28.0884

>  <r_i_glide_energy>  (251) 
-24.9492

>  <r_i_glide_einternal>  (251) 
1.66209

>  <r_i_glide_intrahb_reward>  (251) 
-0

>  <i_i_glide_confnum>  (251) 
2

>  <i_i_glide_posenum>  (251) 
39

>  <r_i_glide_eff_state_penalty>  (251) 
0

>  <ligand_id>  (251) 
76

>  <original_smiles>  (251) 
COC1(C)OC2CC3C1C1(O)C(CCN3CC3CC3)Cc3ccc(O)c4c3C21CCN4CC1CC1

>  <smiles>  (251) 
[H]Oc1c([H])c([H])c2c3c1[N+]([H])(C([H])([H])C1([H])C([H])([H])C1([H])[H])C([H])([H])C([H])([H])C31C3([H])OC(OC([H])([H])[H])(C([H])([H])[H])C4([H])C1(O[H])C([H])(C2([H])[H])C([H])([H])C([H])([H])[N+]([H])(C([H])([H])C1([H])C([H])([H])C1([H])[H])C4([H])C3([H])[H]

$$$$
76:1:0
     RDKit          3D

 76 83  0  0  1  0  0  0  0  0999 V2000
    4.1890   -8.5314    7.0801 C   0  0  0  0  0  0  0  0  0  0  0  0
    4.8589   -8.0152    5.9083 O   0  0  0  0  0  0  0  0  0  0  0  0
    4.1253   -7.4527    4.8485 C   0  0  1  0  0  0  0  0  0  0  0  0
    3.2520   -6.3225    5.4685 C   0  0  0  0  0  0  0  0  0  0  0  0
    4.9654   -6.7812    3.9422 O   0  0  0  0  0  0  0  0  0  0  0  0
    4.9225   -7.3168    2.6325 C   0  0  2  0  0  0  0  0  0  0  0  0
    3.3747   -7.1722    2.1672 C   0  0  0  0  0  0  0  0  0  0  0  0
    2.3735   -7.9568    3.1502 C   0  0  2  0  0  0  0  0  0  0  0  0
    3.3574   -8.5952    4.0620 C   0  0  1  0  0  0  0  0  0  0  0  0
    4.2196   -9.5330    3.0352 C   0  0  2  0  0  0  0  0  0  0  0  0
    3.7360   -9.8504    1.7002 O   0  0  0  0  0  0  0  0  0  0  0  0
    4.1550  -10.9259    3.5570 C   0  0  2  0  0  0  0  0  0  0  0  0
    2.6275  -11.3374    3.6785 C   0  0  0  0  0  0  0  0  0  0  0  0
    1.3744  -10.3395    3.4981 C   0  0  0  0  0  0  0  0  0  0  0  0
    1.4479   -9.0595    2.6535 N   0  0  1  0  0  0  0  0  0  0  0  0
    0.0995   -8.5524    2.3113 C   0  0  0  0  0  0  0  0  0  0  0  0
   -0.7606   -8.2280    3.5233 C   0  0  0  0  0  0  0  0  0  0  0  0
   -2.1821   -8.7390    3.6011 C   0  0  0  0  0  0  0  0  0  0  0  0
   -1.9217   -7.2747    3.4054 C   0  0  0  0  0  0  0  0  0  0  0  0
    5.0071  -11.0215    4.8278 C   0  0  0  0  0  0  0  0  0  0  0  0
    6.3577  -10.2729    4.7690 C   0  0  0  0  0  0  0  0  0  0  0  0
    7.3926  -10.6039    5.6599 C   0  0  0  0  0  0  0  0  0  0  0  0
    8.6565  -10.0268    5.5655 C   0  0  0  0  0  0  0  0  0  0  0  0
    8.9124   -9.0796    4.5573 C   0  0  0  0  0  0  0  0  0  0  0  0
   10.1886   -8.5724    4.4255 O   0  0  0  0  0  0  0  0  0  0  0  0
    7.9073   -8.6768    3.6719 C   0  0  0  0  0  0  0  0  0  0  0  0
    6.5991   -9.2388    3.8218 C   0  0  0  0  0  0  0  0  0  0  0  0
    5.5344   -8.7962    2.7362 C   0  0  2  0  0  0  0  0  0  0  0  0
    6.2744   -9.1113    1.4045 C   0  0  0  0  0  0  0  0  0  0  0  0
    7.5281   -8.1980    1.2219 C   0  0  0  0  0  0  0  0  0  0  0  0
    8.2624   -7.8337    2.4781 N   0  0  1  0  0  0  0  0  0  0  0  0
    8.3343   -6.3949    2.7928 C   0  0  0  0  0  0  0  0  0  0  0  0
    9.1500   -5.5706    1.8025 C   0  0  0  0  0  0  0  0  0  0  0  0
    8.7006   -4.1804    1.4079 C   0  0  0  0  0  0  0  0  0  0  0  0
    8.6828   -5.2741    0.3802 C   0  0  0  0  0  0  0  0  0  0  0  0
    4.9819   -8.8547    7.7645 H   0  0  0  0  0  0  0  0  0  0  0  0
    3.5415   -9.3767    6.8845 H   0  0  0  0  0  0  0  0  0  0  0  0
    3.5798   -7.7956    7.6042 H   0  0  0  0  0  0  0  0  0  0  0  0
    3.8957   -5.6911    6.0817 H   0  0  0  0  0  0  0  0  0  0  0  0
    2.4449   -6.7280    6.0727 H   0  0  0  0  0  0  0  0  0  0  0  0
    2.7894   -5.6920    4.7097 H   0  0  0  0  0  0  0  0  0  0  0  0
    5.5112   -6.6438    2.0048 H   0  0  0  0  0  0  0  0  0  0  0  0
    3.1057   -6.1231    2.2165 H   0  0  0  0  0  0  0  0  0  0  0  0
    3.2275   -7.4416    1.1219 H   0  0  0  0  0  0  0  0  0  0  0  0
    1.7475   -7.2423    3.6801 H   0  0  0  0  0  0  0  0  0  0  0  0
    2.8482   -9.1265    4.8613 H   0  0  0  0  0  0  0  0  0  0  0  0
    4.1710  -10.6433    1.3826 H   0  0  0  0  0  0  0  0  0  0  0  0
    4.6277  -11.6154    2.8423 H   0  0  0  0  0  0  0  0  0  0  0  0
    2.4819  -12.1246    2.9551 H   0  0  0  0  0  0  0  0  0  0  0  0
    2.4790  -11.8372    4.6324 H   0  0  0  0  0  0  0  0  0  0  0  0
    0.5728  -10.9507    3.0800 H   0  0  0  0  0  0  0  0  0  0  0  0
    0.9836  -10.1029    4.4928 H   0  0  0  0  0  0  0  0  0  0  0  0
    0.1787   -7.6748    1.6669 H   0  0  0  0  0  0  0  0  0  0  0  0
   -0.4341   -9.2986    1.7162 H   0  0  0  0  0  0  0  0  0  0  0  0
   -0.2389   -8.1675    4.4849 H   0  0  0  0  0  0  0  0  0  0  0  0
   -2.5667   -9.3085    2.7557 H   0  0  0  0  0  0  0  0  0  0  0  0
   -2.5525   -9.0456    4.5651 H   0  0  0  0  0  0  0  0  0  0  0  0
   -2.1377   -6.6400    4.2554 H   0  0  0  0  0  0  0  0  0  0  0  0
   -2.1660   -6.8656    2.4294 H   0  0  0  0  0  0  0  0  0  0  0  0
    4.4516  -10.6455    5.6554 H   0  0  0  0  0  0  0  0  0  0  0  0
    5.2125  -12.0873    5.0389 H   0  0  0  0  0  0  0  0  0  0  0  0
    7.2007  -11.3634    6.4251 H   0  0  0  0  0  0  0  0  0  0  0  0
    9.4516  -10.3356    6.2193 H   0  0  0  0  0  0  0  0  0  0  0  0
    6.5584  -10.1600    1.3689 H   0  0  0  0  0  0  0  0  0  0  0  0
    5.6583   -8.9128    0.5319 H   0  0  0  0  0  0  0  0  0  0  0  0
    8.2095   -8.6602    0.4861 H   0  0  0  0  0  0  0  0  0  0  0  0
    7.1425   -7.3122    0.7738 H   0  0  0  0  0  0  0  0  0  0  0  0
    7.3453   -5.9458    2.9351 H   0  0  0  0  0  0  0  0  0  0  0  0
    8.8215   -6.2753    3.7624 H   0  0  0  0  0  0  0  0  0  0  0  0
   10.2142   -5.6475    2.0063 H   0  0  0  0  0  0  0  0  0  0  0  0
    7.7005   -3.8536    1.6965 H   0  0  0  0  0  0  0  0  0  0  0  0
    9.4277   -3.3857    1.2674 H   0  0  0  0  0  0  0  0  0  0  0  0
    9.4594   -5.2672   -0.3828 H   0  0  0  0  0  0  0  0  0  0  0  0
    7.6828   -5.4464    0.0337 H   0  0  0  0  0  0  0  0  0  0  0  0
    1.9077   -9.3856    1.7868 H   0  0  0  0  0  0  0  0  0  0  0  0
    9.2639   -8.0358    2.2889 H   0  0  0  0  0  0  0  0  0  0  0  0
  1  2  1  0
  1 36  1  0
  1 37  1  0
  1 38  1  0
  3  2  1  1
  3  9  1  0
  3  4  1  0
  3  5  1  0
  4 39  1  0
  4 40  1  0
  4 41  1  0
  5  6  1  0
  6 28  1  0
  6  7  1  0
  6 42  1  6
  7  8  1  0
  7 43  1  0
  7 44  1  0
  8 15  1  0
  8  9  1  0
  8 45  1  1
  9 10  1  0
  9 46  1  1
 10 28  1  0
 10 11  1  6
 10 12  1  0
 11 47  1  0
 12 13  1  0
 12 20  1  0
 12 48  1  6
 13 14  1  0
 13 49  1  0
 13 50  1  0
 14 15  1  0
 14 51  1  0
 14 52  1  0
 15 16  1  0
 15 75  1  6
 16 17  1  0
 16 53  1  0
 16 54  1  0
 17 19  1  0
 17 18  1  0
 17 55  1  0
 18 19  1  0
 18 56  1  0
 18 57  1  0
 19 58  1  0
 19 59  1  0
 20 21  1  0
 20 60  1  0
 20 61  1  0
 21 27  2  0
 21 22  1  0
 22 23  2  0
 22 62  1  0
 23 24  1  0
 23 63  1  0
 24 25  1  0
 24 26  2  0
 26 31  1  0
 26 27  1  0
 27 28  1  0
 28 29  1  6
 29 30  1  0
 29 64  1  0
 29 65  1  0
 30 31  1  0
 30 66  1  0
 30 67  1  0
 31 32  1  0
 31 76  1  6
 32 33  1  0
 32 68  1  0
 32 69  1  0
 33 35  1  0
 33 34  1  0
 33 70  1  0
 34 35  1  0
 34 71  1  0
 34 72  1  0
 35 73  1  0
 35 74  1  0
M  CHG  3  15   1  25  -1  31   1
M  END
>  <i_m_ct_stereo_status>  (252) 
1

>  <s_m_source_file>  (252) 
/var/tmp/pbs.5076255.sched01/tmpyqr7shjn/887d44c5qo.sdf

>  <i_m_source_file_index>  (252) 
20

>  <i_lp_mmshare_version>  (252) 
48012

>  <i_f3d_flags>  (252) 
0

>  <s_epik_input>  (252) 
W0NAQF0xMjNbQ0BASF00T1tDQF0oW0NIM10pKE9bQ0gzXSlbQ0BIXTVbQ0hdKFtDSDJdNClOKFtDSDJdW0NIXTZbQ0gyXVtDSDJdNilbQ0gyXVtDSDJdW0NAQEhdKFtDQF0xNVtPSF0pW0NIMl1jN2MyYyhjKFtPSF0pW2NIXVtjSF03KU4oW0NIMl1bQ0gyXTMpW0NIMl1bQ0hdOFtDSDJdW0NIMl04

>  <s_epik_cmdline>  (252) 
J2VwaWtfcHl0aG9uJywgJy1waHQnLCAnMi4wJywgJy1waCcsICc3LjAnLCAnLXRuJywgJzgnLCAnLW1hJywgJzIwMCcsICctaW1hZScsICc8aW5maWxlLm1hZT4nLCAnLW9tYWUnLCAnPG91dGZpbGUubWFlPic=

>  <r_epik_Ionization_Penalty>  (252) 
0.5075

>  <r_epik_Ionization_Penalty_Charging>  (252) 
0.507499

>  <r_epik_Ionization_Penalty_Neutral>  (252) 
1.17952e-06

>  <r_epik_State_Penalty>  (252) 
0.63

>  <r_epik_Charging_Adjusted_Penalty>  (252) 
1.1375

>  <i_epik_Tot_Q>  (252) 
1

>  <i_epik_Tot_abs_Q>  (252) 
3

>  <s_lp_Force_Field>  (252) 
OPLS3e

>  <r_lp_Energy>  (252) 
161.363

>  <b_lp_Chiralities_Consistent>  (252) 
1

>  <s_lp_Variant>  (252) 
76:0-2

>  <s_i_glide_gridfile>  (252) 
pfpi4k_grid

>  <i_i_glide_lignum>  (252) 
20

>  <i_i_glide_rotatable_bonds>  (252) 
6

>  <r_i_docking_score>  (252) 
-3.17761

>  <r_i_glide_ligand_efficiency>  (252) 
-0.0907889

>  <r_i_glide_ligand_efficiency_sa>  (252) 
-0.296977

>  <r_i_glide_ligand_efficiency_ln>  (252) 
-0.697556

>  <r_i_glide_gscore>  (252) 
-3.17761

>  <r_i_glide_lipo>  (252) 
-0.232877

>  <r_i_glide_hbond>  (252) 
-0.349734

>  <r_i_glide_metal>  (252) 
-0

>  <r_i_glide_rewards>  (252) 
-0.625135

>  <r_i_glide_evdw>  (252) 
-21.5315

>  <r_i_glide_ecoul>  (252) 
-7.92542

>  <r_i_glide_erotb>  (252) 
0.349815

>  <r_i_glide_esite>  (252) 
-0.0542914

>  <r_i_glide_emodel>  (252) 
-35.7959

>  <r_i_glide_energy>  (252) 
-29.4569

>  <r_i_glide_einternal>  (252) 
9.49583

>  <r_i_glide_intrahb_reward>  (252) 
-0.5

>  <i_i_glide_confnum>  (252) 
1

>  <i_i_glide_posenum>  (252) 
3

>  <r_i_glide_eff_state_penalty>  (252) 
0

>  <ligand_id>  (252) 
76

>  <original_smiles>  (252) 
COC1(C)OC2CC3C1C1(O)C(CCN3CC3CC3)Cc3ccc(O)c4c3C21CCN4CC1CC1

>  <smiles>  (252) 
[H]OC12C3([H])C([H])([H])c4c([H])c([H])c([O-])c5c4C1(C([H])([H])C([H])([H])[N+]5([H])C([H])([H])C1([H])C([H])([H])C1([H])[H])C1([H])OC(OC([H])([H])[H])(C([H])([H])[H])C2([H])C([H])(C1([H])[H])[N+]([H])(C([H])([H])C1([H])C([H])([H])C1([H])[H])C([H])([H])C3([H])[H]

$$$$
76:1:1
     RDKit          3D

 76 83  0  0  1  0  0  0  0  0999 V2000
    6.2926   -5.2610    5.2268 C   0  0  0  0  0  0  0  0  0  0  0  0
    5.5648   -6.3806    4.7398 O   0  0  0  0  0  0  0  0  0  0  0  0
    4.1943   -6.2454    4.5051 C   0  0  1  0  0  0  0  0  0  0  0  0
    3.5227   -5.8795    5.8562 C   0  0  0  0  0  0  0  0  0  0  0  0
    3.9176   -5.1952    3.6289 O   0  0  0  0  0  0  0  0  0  0  0  0
    3.3327   -5.6388    2.4247 C   0  0  2  0  0  0  0  0  0  0  0  0
    1.9611   -6.4150    2.8646 C   0  0  0  0  0  0  0  0  0  0  0  0
    2.2115   -7.6407    3.8512 C   0  0  2  0  0  0  0  0  0  0  0  0
    3.7038   -7.6339    3.8710 C   0  0  1  0  0  0  0  0  0  0  0  0
    4.0549   -7.8701    2.2941 C   0  0  2  0  0  0  0  0  0  0  0  0
    3.1136   -8.3929    1.3277 O   0  0  0  0  0  0  0  0  0  0  0  0
    4.9367   -9.0571    2.2879 C   0  0  2  0  0  0  0  0  0  0  0  0
    4.1356  -10.2769    2.9350 C   0  0  0  0  0  0  0  0  0  0  0  0
    2.7670  -10.1574    3.7695 C   0  0  0  0  0  0  0  0  0  0  0  0
    1.7566   -9.0446    3.4786 N   0  0  1  0  0  0  0  0  0  0  0  0
    0.4314   -9.4014    4.0756 C   0  0  0  0  0  0  0  0  0  0  0  0
   -0.6809   -8.7071    3.3327 C   0  0  0  0  0  0  0  0  0  0  0  0
   -1.0643   -7.2762    3.6624 C   0  0  0  0  0  0  0  0  0  0  0  0
   -1.9713   -8.3990    4.0586 C   0  0  0  0  0  0  0  0  0  0  0  0
    6.2703   -8.6515    2.9153 C   0  0  0  0  0  0  0  0  0  0  0  0
    6.8397   -7.3227    2.4167 C   0  0  0  0  0  0  0  0  0  0  0  0
    8.2213   -7.0537    2.4676 C   0  0  0  0  0  0  0  0  0  0  0  0
    8.7303   -5.8646    1.9445 C   0  0  0  0  0  0  0  0  0  0  0  0
    7.8854   -4.9213    1.2932 C   0  0  0  0  0  0  0  0  0  0  0  0
    8.3706   -3.8673    0.6216 O   0  0  0  0  0  0  0  0  0  0  0  0
    6.4861   -5.1535    1.2760 C   0  0  0  0  0  0  0  0  0  0  0  0
    5.9693   -6.3155    1.8617 C   0  0  0  0  0  0  0  0  0  0  0  0
    4.4409   -6.5268    1.6883 C   0  0  2  0  0  0  0  0  0  0  0  0
    4.2193   -6.2786    0.1635 C   0  0  0  0  0  0  0  0  0  0  0  0
    4.5430   -4.8328   -0.2883 C   0  0  0  0  0  0  0  0  0  0  0  0
    5.6700   -4.1955    0.4688 N   0  0  1  0  0  0  0  0  0  0  0  0
    5.3152   -2.9560    1.2250 C   0  0  0  0  0  0  0  0  0  0  0  0
    4.8323   -1.8426    0.3184 C   0  0  0  0  0  0  0  0  0  0  0  0
    5.8247   -0.9838   -0.4257 C   0  0  0  0  0  0  0  0  0  0  0  0
    5.0530   -0.3980    0.7182 C   0  0  0  0  0  0  0  0  0  0  0  0
    7.3523   -5.4508    5.0711 H   0  0  0  0  0  0  0  0  0  0  0  0
    6.1552   -5.1378    6.2987 H   0  0  0  0  0  0  0  0  0  0  0  0
    6.0354   -4.3320    4.7170 H   0  0  0  0  0  0  0  0  0  0  0  0
    3.9509   -4.9750    6.2842 H   0  0  0  0  0  0  0  0  0  0  0  0
    3.6496   -6.7014    6.5615 H   0  0  0  0  0  0  0  0  0  0  0  0
    2.4636   -5.6517    5.7345 H   0  0  0  0  0  0  0  0  0  0  0  0
    3.0440   -4.7636    1.8578 H   0  0  0  0  0  0  0  0  0  0  0  0
    1.3526   -5.6919    3.4100 H   0  0  0  0  0  0  0  0  0  0  0  0
    1.3614   -6.7113    1.9922 H   0  0  0  0  0  0  0  0  0  0  0  0
    1.8473   -7.4469    4.8514 H   0  0  0  0  0  0  0  0  0  0  0  0
    4.1265   -8.3443    4.5760 H   0  0  0  0  0  0  0  0  0  0  0  0
    3.1200   -9.3470    1.4077 H   0  0  0  0  0  0  0  0  0  0  0  0
    5.1613   -9.3497    1.2576 H   0  0  0  0  0  0  0  0  0  0  0  0
    3.9284  -10.9803    2.1210 H   0  0  0  0  0  0  0  0  0  0  0  0
    4.8306  -10.8310    3.5774 H   0  0  0  0  0  0  0  0  0  0  0  0
    2.2832  -11.1144    3.5900 H   0  0  0  0  0  0  0  0  0  0  0  0
    2.9952  -10.1837    4.8407 H   0  0  0  0  0  0  0  0  0  0  0  0
    0.2114  -10.4660    3.9805 H   0  0  0  0  0  0  0  0  0  0  0  0
    0.3948   -9.1903    5.1413 H   0  0  0  0  0  0  0  0  0  0  0  0
   -0.8063   -9.0555    2.3055 H   0  0  0  0  0  0  0  0  0  0  0  0
   -0.5208   -6.7659    4.4604 H   0  0  0  0  0  0  0  0  0  0  0  0
   -1.3392   -6.6748    2.7927 H   0  0  0  0  0  0  0  0  0  0  0  0
   -2.8982   -8.4467    3.4961 H   0  0  0  0  0  0  0  0  0  0  0  0
   -2.0300   -8.6743    5.1092 H   0  0  0  0  0  0  0  0  0  0  0  0
    6.1921   -8.6213    4.0030 H   0  0  0  0  0  0  0  0  0  0  0  0
    6.9699   -9.4490    2.6781 H   0  0  0  0  0  0  0  0  0  0  0  0
    8.8999   -7.7829    2.8588 H   0  0  0  0  0  0  0  0  0  0  0  0
    9.7984   -5.6830    1.9593 H   0  0  0  0  0  0  0  0  0  0  0  0
    4.8383   -6.9877   -0.3940 H   0  0  0  0  0  0  0  0  0  0  0  0
    3.1801   -6.4378   -0.1461 H   0  0  0  0  0  0  0  0  0  0  0  0
    4.8208   -4.8505   -1.3364 H   0  0  0  0  0  0  0  0  0  0  0  0
    3.6451   -4.2333   -0.2344 H   0  0  0  0  0  0  0  0  0  0  0  0
    4.5597   -3.1350    1.9720 H   0  0  0  0  0  0  0  0  0  0  0  0
    6.2112   -2.6114    1.7457 H   0  0  0  0  0  0  0  0  0  0  0  0
    3.8584   -2.0081   -0.1545 H   0  0  0  0  0  0  0  0  0  0  0  0
    6.8812   -1.2075   -0.2634 H   0  0  0  0  0  0  0  0  0  0  0  0
    5.5289   -0.7058   -1.4380 H   0  0  0  0  0  0  0  0  0  0  0  0
    4.2742    0.3156    0.4517 H   0  0  0  0  0  0  0  0  0  0  0  0
    5.6169   -0.1688    1.6217 H   0  0  0  0  0  0  0  0  0  0  0  0
    1.6069   -9.0212    2.4851 H   0  0  0  0  0  0  0  0  0  0  0  0
    6.3081   -3.8375   -0.2167 H   0  0  0  0  0  0  0  0  0  0  0  0
  1  2  1  0
  1 36  1  0
  1 37  1  0
  1 38  1  0
  3  2  1  1
  3  9  1  0
  3  4  1  0
  3  5  1  0
  4 39  1  0
  4 40  1  0
  4 41  1  0
  5  6  1  0
  6 28  1  0
  6  7  1  0
  6 42  1  6
  7  8  1  0
  7 43  1  0
  7 44  1  0
  8 15  1  0
  8  9  1  0
  8 45  1  1
  9 10  1  0
  9 46  1  1
 10 28  1  0
 10 11  1  6
 10 12  1  0
 11 47  1  0
 12 13  1  0
 12 20  1  0
 12 48  1  6
 13 14  1  0
 13 49  1  0
 13 50  1  0
 14 15  1  0
 14 51  1  0
 14 52  1  0
 15 16  1  0
 15 75  1  6
 16 17  1  0
 16 53  1  0
 16 54  1  0
 17 19  1  0
 17 18  1  0
 17 55  1  0
 18 19  1  0
 18 56  1  0
 18 57  1  0
 19 58  1  0
 19 59  1  0
 20 21  1  0
 20 60  1  0
 20 61  1  0
 21 27  2  0
 21 22  1  0
 22 23  2  0
 22 62  1  0
 23 24  1  0
 23 63  1  0
 24 25  1  0
 24 26  2  0
 26 31  1  0
 26 27  1  0
 27 28  1  0
 28 29  1  6
 29 30  1  0
 29 64  1  0
 29 65  1  0
 30 31  1  0
 30 66  1  0
 30 67  1  0
 31 32  1  0
 31 76  1  6
 32 33  1  0
 32 68  1  0
 32 69  1  0
 33 35  1  0
 33 34  1  0
 33 70  1  0
 34 35  1  0
 34 71  1  0
 34 72  1  0
 35 73  1  0
 35 74  1  0
M  CHG  3  15   1  25  -1  31   1
M  END
>  <i_m_ct_stereo_status>  (253) 
1

>  <s_m_source_file>  (253) 
/var/tmp/pbs.5076255.sched01/tmpyqr7shjn/887d44c5qo.sdf

>  <i_m_source_file_index>  (253) 
20

>  <i_lp_mmshare_version>  (253) 
48012

>  <i_f3d_flags>  (253) 
0

>  <s_epik_input>  (253) 
W0NAQF0xMjNbQ0BASF00T1tDQF0oW0NIM10pKE9bQ0gzXSlbQ0BIXTVbQ0hdKFtDSDJdNClOKFtDSDJdW0NIXTZbQ0gyXVtDSDJdNilbQ0gyXVtDSDJdW0NAQEhdKFtDQF0xNVtPSF0pW0NIMl1jN2MyYyhjKFtPSF0pW2NIXVtjSF03KU4oW0NIMl1bQ0gyXTMpW0NIMl1bQ0hdOFtDSDJdW0NIMl04

>  <s_epik_cmdline>  (253) 
J2VwaWtfcHl0aG9uJywgJy1waHQnLCAnMi4wJywgJy1waCcsICc3LjAnLCAnLXRuJywgJzgnLCAnLW1hJywgJzIwMCcsICctaW1hZScsICc8aW5maWxlLm1hZT4nLCAnLW9tYWUnLCAnPG91dGZpbGUubWFlPic=

>  <r_epik_Ionization_Penalty>  (253) 
0.5075

>  <r_epik_Ionization_Penalty_Charging>  (253) 
0.507499

>  <r_epik_Ionization_Penalty_Neutral>  (253) 
1.17952e-06

>  <r_epik_State_Penalty>  (253) 
0.63

>  <r_epik_Charging_Adjusted_Penalty>  (253) 
1.1375

>  <i_epik_Tot_Q>  (253) 
1

>  <i_epik_Tot_abs_Q>  (253) 
3

>  <s_lp_Force_Field>  (253) 
OPLS3e

>  <r_lp_Energy>  (253) 
161.363

>  <b_lp_Chiralities_Consistent>  (253) 
1

>  <s_lp_Variant>  (253) 
76:0-2

>  <s_i_glide_gridfile>  (253) 
pfpi4k_grid

>  <i_i_glide_lignum>  (253) 
20

>  <i_i_glide_rotatable_bonds>  (253) 
6

>  <r_i_docking_score>  (253) 
-2.40422

>  <r_i_glide_ligand_efficiency>  (253) 
-0.068692

>  <r_i_glide_ligand_efficiency_sa>  (253) 
-0.224696

>  <r_i_glide_ligand_efficiency_ln>  (253) 
-0.52778

>  <r_i_glide_gscore>  (253) 
-2.40422

>  <r_i_glide_lipo>  (253) 
-0.678996

>  <r_i_glide_hbond>  (253) 
0

>  <r_i_glide_metal>  (253) 
-0

>  <r_i_glide_rewards>  (253) 
-0.125135

>  <r_i_glide_evdw>  (253) 
-24.7777

>  <r_i_glide_ecoul>  (253) 
-4.66936

>  <r_i_glide_erotb>  (253) 
0.349815

>  <r_i_glide_esite>  (253) 
-0.0106143

>  <r_i_glide_emodel>  (253) 
-33.5068

>  <r_i_glide_energy>  (253) 
-29.4471

>  <r_i_glide_einternal>  (253) 
2.26974

>  <r_i_glide_intrahb_reward>  (253) 
-0

>  <i_i_glide_confnum>  (253) 
2

>  <i_i_glide_posenum>  (253) 
36

>  <r_i_glide_eff_state_penalty>  (253) 
0

>  <ligand_id>  (253) 
76

>  <original_smiles>  (253) 
COC1(C)OC2CC3C1C1(O)C(CCN3CC3CC3)Cc3ccc(O)c4c3C21CCN4CC1CC1

>  <smiles>  (253) 
[H]OC12C3([H])C([H])([H])c4c([H])c([H])c([O-])c5c4C1(C([H])([H])C([H])([H])[N+]5([H])C([H])([H])C1([H])C([H])([H])C1([H])[H])C1([H])OC(OC([H])([H])[H])(C([H])([H])[H])C2([H])C([H])(C1([H])[H])[N+]([H])(C([H])([H])C1([H])C([H])([H])C1([H])[H])C([H])([H])C3([H])[H]

$$$$
76:1:2
     RDKit          3D

 76 83  0  0  1  0  0  0  0  0999 V2000
    6.9670   -5.6374    5.1287 C   0  0  0  0  0  0  0  0  0  0  0  0
    6.0295   -6.3990    4.3803 O   0  0  0  0  0  0  0  0  0  0  0  0
    4.6600   -6.1201    4.4880 C   0  0  1  0  0  0  0  0  0  0  0  0
    4.2911   -6.0109    5.9976 C   0  0  0  0  0  0  0  0  0  0  0  0
    4.3331   -4.8910    3.9154 O   0  0  0  0  0  0  0  0  0  0  0  0
    3.4654   -5.0186    2.8038 C   0  0  2  0  0  0  0  0  0  0  0  0
    2.1292   -5.7828    3.3801 C   0  0  0  0  0  0  0  0  0  0  0  0
    2.4466   -7.2147    4.0262 C   0  0  2  0  0  0  0  0  0  0  0  0
    3.9054   -7.3006    3.7144 C   0  0  1  0  0  0  0  0  0  0  0  0
    3.9139   -7.2148    2.0905 C   0  0  2  0  0  0  0  0  0  0  0  0
    2.7297   -7.4462    1.2901 O   0  0  0  0  0  0  0  0  0  0  0  0
    4.6379   -8.4285    1.6412 C   0  0  2  0  0  0  0  0  0  0  0  0
    3.8564   -9.7109    2.1810 C   0  0  0  0  0  0  0  0  0  0  0  0
    2.7043   -9.6880    3.3084 C   0  0  0  0  0  0  0  0  0  0  0  0
    1.7857   -8.4743    3.4987 N   0  0  1  0  0  0  0  0  0  0  0  0
    0.5780   -8.8591    4.2769 C   0  0  0  0  0  0  0  0  0  0  0  0
   -0.4932   -9.3335    3.3233 C   0  0  0  0  0  0  0  0  0  0  0  0
   -1.2706   -8.3259    2.4855 C   0  0  0  0  0  0  0  0  0  0  0  0
   -1.9330   -9.0265    3.6237 C   0  0  0  0  0  0  0  0  0  0  0  0
    6.1021   -8.2483    2.0322 C   0  0  0  0  0  0  0  0  0  0  0  0
    6.6889   -6.8760    1.6882 C   0  0  0  0  0  0  0  0  0  0  0  0
    8.0707   -6.7209    1.4786 C   0  0  0  0  0  0  0  0  0  0  0  0
    8.6043   -5.4949    1.1078 C   0  0  0  0  0  0  0  0  0  0  0  0
    7.7564   -4.3671    0.8814 C   0  0  0  0  0  0  0  0  0  0  0  0
    8.2343   -3.2102    0.3989 O   0  0  0  0  0  0  0  0  0  0  0  0
    6.3595   -4.4925    1.1145 C   0  0  0  0  0  0  0  0  0  0  0  0
    5.8485   -5.7241    1.5575 C   0  0  0  0  0  0  0  0  0  0  0  0
    4.3015   -5.7953    1.6722 C   0  0  2  0  0  0  0  0  0  0  0  0
    3.8327   -5.2526    0.2780 C   0  0  0  0  0  0  0  0  0  0  0  0
    4.2136   -3.7661    0.0389 C   0  0  0  0  0  0  0  0  0  0  0  0
    5.5023   -3.3435    0.6865 N   0  0  1  0  0  0  0  0  0  0  0  0
    5.4036   -2.2951    1.7483 C   0  0  0  0  0  0  0  0  0  0  0  0
    4.7064   -1.0243    1.2963 C   0  0  0  0  0  0  0  0  0  0  0  0
    4.0474   -0.1367    2.3419 C   0  0  0  0  0  0  0  0  0  0  0  0
    3.1926   -0.8704    1.3666 C   0  0  0  0  0  0  0  0  0  0  0  0
    7.9650   -5.7686    4.7106 H   0  0  0  0  0  0  0  0  0  0  0  0
    7.0084   -6.0037    6.1519 H   0  0  0  0  0  0  0  0  0  0  0  0
    6.7301   -4.5750    5.1424 H   0  0  0  0  0  0  0  0  0  0  0  0
    4.8651   -5.2360    6.5045 H   0  0  0  0  0  0  0  0  0  0  0  0
    4.4699   -6.9679    6.4876 H   0  0  0  0  0  0  0  0  0  0  0  0
    3.2538   -5.7050    6.1431 H   0  0  0  0  0  0  0  0  0  0  0  0
    3.1817   -4.0206    2.4925 H   0  0  0  0  0  0  0  0  0  0  0  0
    1.7080   -5.1647    4.1774 H   0  0  0  0  0  0  0  0  0  0  0  0
    1.3387   -5.8491    2.6202 H   0  0  0  0  0  0  0  0  0  0  0  0
    2.2980   -7.2202    5.0979 H   0  0  0  0  0  0  0  0  0  0  0  0
    4.3801   -8.1770    4.1476 H   0  0  0  0  0  0  0  0  0  0  0  0
    2.6000   -8.3916    1.2154 H   0  0  0  0  0  0  0  0  0  0  0  0
    4.6247   -8.4935    0.5485 H   0  0  0  0  0  0  0  0  0  0  0  0
    3.4170  -10.2055    1.3054 H   0  0  0  0  0  0  0  0  0  0  0  0
    4.6080  -10.4305    2.5298 H   0  0  0  0  0  0  0  0  0  0  0  0
    2.0793  -10.5460    3.0650 H   0  0  0  0  0  0  0  0  0  0  0  0
    3.1541   -9.9621    4.2679 H   0  0  0  0  0  0  0  0  0  0  0  0
    0.7886   -9.6566    4.9933 H   0  0  0  0  0  0  0  0  0  0  0  0
    0.1732   -8.0199    4.8361 H   0  0  0  0  0  0  0  0  0  0  0  0
   -0.3309  -10.3254    2.8943 H   0  0  0  0  0  0  0  0  0  0  0  0
   -1.0430   -7.2637    2.6000 H   0  0  0  0  0  0  0  0  0  0  0  0
   -1.5842   -8.6593    1.4956 H   0  0  0  0  0  0  0  0  0  0  0  0
   -2.6134   -9.8112    3.3219 H   0  0  0  0  0  0  0  0  0  0  0  0
   -2.1571   -8.4732    4.5352 H   0  0  0  0  0  0  0  0  0  0  0  0
    6.2550   -8.4526    3.0934 H   0  0  0  0  0  0  0  0  0  0  0  0
    6.6606   -9.0143    1.4982 H   0  0  0  0  0  0  0  0  0  0  0  0
    8.6877   -7.5832    1.5921 H   0  0  0  0  0  0  0  0  0  0  0  0
    9.6666   -5.3940    0.9376 H   0  0  0  0  0  0  0  0  0  0  0  0
    4.2594   -5.8802   -0.5159 H   0  0  0  0  0  0  0  0  0  0  0  0
    2.7432   -5.2913    0.1573 H   0  0  0  0  0  0  0  0  0  0  0  0
    4.3016   -3.5827   -1.0328 H   0  0  0  0  0  0  0  0  0  0  0  0
    3.3661   -3.1905    0.3816 H   0  0  0  0  0  0  0  0  0  0  0  0
    4.9460   -2.6716    2.6545 H   0  0  0  0  0  0  0  0  0  0  0  0
    6.4209   -1.9997    2.0151 H   0  0  0  0  0  0  0  0  0  0  0  0
    5.2223   -0.4744    0.5007 H   0  0  0  0  0  0  0  0  0  0  0  0
    3.9905   -0.4643    3.3763 H   0  0  0  0  0  0  0  0  0  0  0  0
    4.0388    0.9405    2.2112 H   0  0  0  0  0  0  0  0  0  0  0  0
    2.7585   -0.3270    0.5252 H   0  0  0  0  0  0  0  0  0  0  0  0
    2.5735   -1.6490    1.8116 H   0  0  0  0  0  0  0  0  0  0  0  0
    1.4209   -8.2044    2.6013 H   0  0  0  0  0  0  0  0  0  0  0  0
    6.0453   -2.8835   -0.0192 H   0  0  0  0  0  0  0  0  0  0  0  0
  1  2  1  0
  1 36  1  0
  1 37  1  0
  1 38  1  0
  3  2  1  1
  3  9  1  0
  3  4  1  0
  3  5  1  0
  4 39  1  0
  4 40  1  0
  4 41  1  0
  5  6  1  0
  6 28  1  0
  6  7  1  0
  6 42  1  6
  7  8  1  0
  7 43  1  0
  7 44  1  0
  8 15  1  0
  8  9  1  0
  8 45  1  1
  9 10  1  0
  9 46  1  6
 10 28  1  0
 10 11  1  6
 10 12  1  0
 11 47  1  0
 12 13  1  0
 12 20  1  0
 12 48  1  6
 13 14  1  0
 13 49  1  0
 13 50  1  0
 14 15  1  0
 14 51  1  0
 14 52  1  0
 15 16  1  0
 15 75  1  6
 16 17  1  0
 16 53  1  0
 16 54  1  0
 17 19  1  0
 17 18  1  0
 17 55  1  0
 18 19  1  0
 18 56  1  0
 18 57  1  0
 19 58  1  0
 19 59  1  0
 20 21  1  0
 20 60  1  0
 20 61  1  0
 21 27  2  0
 21 22  1  0
 22 23  2  0
 22 62  1  0
 23 24  1  0
 23 63  1  0
 24 25  1  0
 24 26  2  0
 26 31  1  0
 26 27  1  0
 27 28  1  0
 28 29  1  6
 29 30  1  0
 29 64  1  0
 29 65  1  0
 30 31  1  0
 30 66  1  0
 30 67  1  0
 31 32  1  0
 31 76  1  6
 32 33  1  0
 32 68  1  0
 32 69  1  0
 33 35  1  0
 33 34  1  0
 33 70  1  0
 34 35  1  0
 34 71  1  0
 34 72  1  0
 35 73  1  0
 35 74  1  0
M  CHG  3  15   1  25  -1  31   1
M  END
>  <i_m_ct_stereo_status>  (254) 
1

>  <s_m_source_file>  (254) 
/var/tmp/pbs.5076255.sched01/tmpyqr7shjn/887d44c5qo.sdf

>  <i_m_source_file_index>  (254) 
20

>  <i_lp_mmshare_version>  (254) 
48012

>  <i_f3d_flags>  (254) 
0

>  <s_epik_input>  (254) 
W0NAQF0xMjNbQ0BASF00T1tDQF0oW0NIM10pKE9bQ0gzXSlbQ0BIXTVbQ0hdKFtDSDJdNClOKFtDSDJdW0NIXTZbQ0gyXVtDSDJdNilbQ0gyXVtDSDJdW0NAQEhdKFtDQF0xNVtPSF0pW0NIMl1jN2MyYyhjKFtPSF0pW2NIXVtjSF03KU4oW0NIMl1bQ0gyXTMpW0NIMl1bQ0hdOFtDSDJdW0NIMl04

>  <s_epik_cmdline>  (254) 
J2VwaWtfcHl0aG9uJywgJy1waHQnLCAnMi4wJywgJy1waCcsICc3LjAnLCAnLXRuJywgJzgnLCAnLW1hJywgJzIwMCcsICctaW1hZScsICc8aW5maWxlLm1hZT4nLCAnLW9tYWUnLCAnPG91dGZpbGUubWFlPic=

>  <r_epik_Ionization_Penalty>  (254) 
0.5075

>  <r_epik_Ionization_Penalty_Charging>  (254) 
0.507499

>  <r_epik_Ionization_Penalty_Neutral>  (254) 
1.17952e-06

>  <r_epik_State_Penalty>  (254) 
0.63

>  <r_epik_Charging_Adjusted_Penalty>  (254) 
1.1375

>  <i_epik_Tot_Q>  (254) 
1

>  <i_epik_Tot_abs_Q>  (254) 
3

>  <s_lp_Force_Field>  (254) 
OPLS3e

>  <r_lp_Energy>  (254) 
161.363

>  <b_lp_Chiralities_Consistent>  (254) 
1

>  <s_lp_Variant>  (254) 
76:0-2

>  <s_i_glide_gridfile>  (254) 
pfpi4k_grid

>  <i_i_glide_lignum>  (254) 
20

>  <i_i_glide_rotatable_bonds>  (254) 
6

>  <r_i_docking_score>  (254) 
-2.34246

>  <r_i_glide_ligand_efficiency>  (254) 
-0.0669273

>  <r_i_glide_ligand_efficiency_sa>  (254) 
-0.218924

>  <r_i_glide_ligand_efficiency_ln>  (254) 
-0.514221

>  <r_i_glide_gscore>  (254) 
-2.34246

>  <r_i_glide_lipo>  (254) 
-0.709164

>  <r_i_glide_hbond>  (254) 
0

>  <r_i_glide_metal>  (254) 
-0

>  <r_i_glide_rewards>  (254) 
-0.125135

>  <r_i_glide_evdw>  (254) 
-24.3219

>  <r_i_glide_ecoul>  (254) 
-4.21834

>  <r_i_glide_erotb>  (254) 
0.349815

>  <r_i_glide_esite>  (254) 
-0.00912402

>  <r_i_glide_emodel>  (254) 
-30.2484

>  <r_i_glide_energy>  (254) 
-28.5403

>  <r_i_glide_einternal>  (254) 
5.33696

>  <r_i_glide_intrahb_reward>  (254) 
-0

>  <i_i_glide_confnum>  (254) 
2

>  <i_i_glide_posenum>  (254) 
20

>  <r_i_glide_eff_state_penalty>  (254) 
0

>  <ligand_id>  (254) 
76

>  <original_smiles>  (254) 
COC1(C)OC2CC3C1C1(O)C(CCN3CC3CC3)Cc3ccc(O)c4c3C21CCN4CC1CC1

>  <smiles>  (254) 
[H]OC12C3([H])C([H])([H])c4c([H])c([H])c([O-])c5c4C1(C([H])([H])C([H])([H])[N+]5([H])C([H])([H])C1([H])C([H])([H])C1([H])[H])C1([H])OC(OC([H])([H])[H])(C([H])([H])[H])C2([H])C([H])(C1([H])[H])[N+]([H])(C([H])([H])C1([H])C([H])([H])C1([H])[H])C([H])([H])C3([H])[H]

$$$$
76:2:0
     RDKit          3D

 76 83  0  0  1  0  0  0  0  0999 V2000
    5.1854   -7.7309    6.5003 C   0  0  0  0  0  0  0  0  0  0  0  0
    5.0308   -6.9383    5.3072 O   0  0  0  0  0  0  0  0  0  0  0  0
    3.7628   -6.7571    4.7212 C   0  0  1  0  0  0  0  0  0  0  0  0
    2.8350   -6.1864    5.8266 C   0  0  0  0  0  0  0  0  0  0  0  0
    3.7888   -5.7438    3.7512 O   0  0  0  0  0  0  0  0  0  0  0  0
    3.4347   -6.1865    2.4552 C   0  0  2  0  0  0  0  0  0  0  0  0
    1.9364   -6.7926    2.6065 C   0  0  0  0  0  0  0  0  0  0  0  0
    1.8517   -7.9867    3.6819 C   0  0  2  0  0  0  0  0  0  0  0  0
    3.2946   -8.1114    4.0300 C   0  0  1  0  0  0  0  0  0  0  0  0
    3.9601   -8.4915    2.5868 C   0  0  2  0  0  0  0  0  0  0  0  0
    3.1719   -8.9953    1.4668 O   0  0  0  0  0  0  0  0  0  0  0  0
    4.7247   -9.7581    2.7775 C   0  0  2  0  0  0  0  0  0  0  0  0
    3.7089  -10.8448    3.3440 C   0  0  0  0  0  0  0  0  0  0  0  0
    2.1957  -10.5587    3.8468 C   0  0  0  0  0  0  0  0  0  0  0  0
    1.3706   -9.3815    3.3030 N   0  0  1  0  0  0  0  0  0  0  0  0
   -0.0708   -9.5925    3.6009 C   0  0  0  0  0  0  0  0  0  0  0  0
   -0.9431   -8.7012    2.7528 C   0  0  0  0  0  0  0  0  0  0  0  0
   -1.9599   -7.7811    3.3961 C   0  0  0  0  0  0  0  0  0  0  0  0
   -2.4043   -9.0250    2.6681 C   0  0  0  0  0  0  0  0  0  0  0  0
    5.9838   -9.4537    3.5997 C   0  0  0  0  0  0  0  0  0  0  0  0
    6.7079   -8.1418    3.2371 C   0  0  0  0  0  0  0  0  0  0  0  0
    8.0396   -7.9409    3.6612 C   0  0  0  0  0  0  0  0  0  0  0  0
    8.7345   -6.7949    3.2887 C   0  0  0  0  0  0  0  0  0  0  0  0
    8.1436   -5.8444    2.4344 C   0  0  0  0  0  0  0  0  0  0  0  0
    9.0190   -4.8805    1.9749 O   0  0  0  0  0  0  0  0  0  0  0  0
    6.7772   -5.9316    2.0344 C   0  0  0  0  0  0  0  0  0  0  0  0
    6.0695   -7.0926    2.5032 C   0  0  0  0  0  0  0  0  0  0  0  0
    4.5686   -7.2140    2.0156 C   0  0  2  0  0  0  0  0  0  0  0  0
    4.7232   -7.0830    0.4892 C   0  0  0  0  0  0  0  0  0  0  0  0
    5.3600   -5.7366    0.0875 C   0  0  0  0  0  0  0  0  0  0  0  0
    6.1225   -5.0633    1.1302 N   0  0  0  0  0  0  0  0  0  0  0  0
    6.6007   -3.7265    0.7582 C   0  0  0  0  0  0  0  0  0  0  0  0
    6.1195   -2.6895    1.7327 C   0  0  0  0  0  0  0  0  0  0  0  0
    5.0977   -1.6620    1.2988 C   0  0  0  0  0  0  0  0  0  0  0  0
    6.5208   -1.2430    1.5563 C   0  0  0  0  0  0  0  0  0  0  0  0
    6.2388   -7.6550    6.7873 H   0  0  0  0  0  0  0  0  0  0  0  0
    4.9458   -8.7814    6.3555 H   0  0  0  0  0  0  0  0  0  0  0  0
    4.5921   -7.3865    7.3444 H   0  0  0  0  0  0  0  0  0  0  0  0
    3.3452   -5.3409    6.2892 H   0  0  0  0  0  0  0  0  0  0  0  0
    2.5955   -6.9361    6.5766 H   0  0  0  0  0  0  0  0  0  0  0  0
    1.8887   -5.8261    5.4232 H   0  0  0  0  0  0  0  0  0  0  0  0
    3.4106   -5.3050    1.8191 H   0  0  0  0  0  0  0  0  0  0  0  0
    1.2994   -5.9945    2.9738 H   0  0  0  0  0  0  0  0  0  0  0  0
    1.5040   -7.0699    1.6452 H   0  0  0  0  0  0  0  0  0  0  0  0
    1.2647   -7.6827    4.5475 H   0  0  0  0  0  0  0  0  0  0  0  0
    3.4463   -8.8370    4.8187 H   0  0  0  0  0  0  0  0  0  0  0  0
    3.4449   -9.8890    1.3102 H   0  0  0  0  0  0  0  0  0  0  0  0
    5.0950  -10.1279    1.8165 H   0  0  0  0  0  0  0  0  0  0  0  0
    3.6138  -11.5987    2.5663 H   0  0  0  0  0  0  0  0  0  0  0  0
    4.1918  -11.3929    4.1483 H   0  0  0  0  0  0  0  0  0  0  0  0
    1.6572  -11.4786    3.6178 H   0  0  0  0  0  0  0  0  0  0  0  0
    2.1636  -10.5450    4.9430 H   0  0  0  0  0  0  0  0  0  0  0  0
   -0.3478  -10.6319    3.4117 H   0  0  0  0  0  0  0  0  0  0  0  0
   -0.2853   -9.4356    4.6635 H   0  0  0  0  0  0  0  0  0  0  0  0
   -0.5382   -8.4424    1.7839 H   0  0  0  0  0  0  0  0  0  0  0  0
   -2.0382   -7.7831    4.4865 H   0  0  0  0  0  0  0  0  0  0  0  0
   -2.1588   -6.8456    2.9022 H   0  0  0  0  0  0  0  0  0  0  0  0
   -2.8937   -8.9149    1.6952 H   0  0  0  0  0  0  0  0  0  0  0  0
   -2.7535   -9.8201    3.2762 H   0  0  0  0  0  0  0  0  0  0  0  0
    5.7170   -9.4203    4.6427 H   0  0  0  0  0  0  0  0  0  0  0  0
    6.6779  -10.2946    3.4902 H   0  0  0  0  0  0  0  0  0  0  0  0
    8.5398   -8.7162    4.2397 H   0  0  0  0  0  0  0  0  0  0  0  0
    9.7675   -6.7045    3.5605 H   0  0  0  0  0  0  0  0  0  0  0  0
    9.5596   -4.5760    2.6878 H   0  0  0  0  0  0  0  0  0  0  0  0
    5.3286   -7.9223    0.1677 H   0  0  0  0  0  0  0  0  0  0  0  0
    3.7925   -7.1673   -0.0559 H   0  0  0  0  0  0  0  0  0  0  0  0
    6.1108   -5.9033   -0.6633 H   0  0  0  0  0  0  0  0  0  0  0  0
    4.5790   -5.0718   -0.3191 H   0  0  0  0  0  0  0  0  0  0  0  0
    7.6754   -3.6422    0.6306 H   0  0  0  0  0  0  0  0  0  0  0  0
    6.2195   -3.4545   -0.2316 H   0  0  0  0  0  0  0  0  0  0  0  0
    6.0545   -3.0290    2.7690 H   0  0  0  0  0  0  0  0  0  0  0  0
    4.7599   -1.6922    0.2632 H   0  0  0  0  0  0  0  0  0  0  0  0
    4.3531   -1.3546    2.0259 H   0  0  0  0  0  0  0  0  0  0  0  0
    6.7139   -0.6725    2.4602 H   0  0  0  0  0  0  0  0  0  0  0  0
    7.1446   -0.9965    0.6969 H   0  0  0  0  0  0  0  0  0  0  0  0
    1.4877   -9.4367    2.2932 H   0  0  0  0  0  0  0  0  0  0  0  0
  1  2  1  0
  1 36  1  0
  1 37  1  0
  1 38  1  0
  3  2  1  1
  3  9  1  0
  3  4  1  0
  3  5  1  0
  4 39  1  0
  4 40  1  0
  4 41  1  0
  5  6  1  0
  6 28  1  0
  6  7  1  0
  6 42  1  6
  7  8  1  0
  7 43  1  0
  7 44  1  0
  8 15  1  0
  8  9  1  0
  8 45  1  1
  9 10  1  0
  9 46  1  1
 10 28  1  0
 10 11  1  6
 10 12  1  0
 11 47  1  0
 12 13  1  0
 12 20  1  0
 12 48  1  6
 13 14  1  0
 13 49  1  0
 13 50  1  0
 14 15  1  0
 14 51  1  0
 14 52  1  0
 15 16  1  0
 15 76  1  6
 16 17  1  0
 16 53  1  0
 16 54  1  0
 17 19  1  0
 17 18  1  0
 17 55  1  0
 18 19  1  0
 18 56  1  0
 18 57  1  0
 19 58  1  0
 19 59  1  0
 20 21  1  0
 20 60  1  0
 20 61  1  0
 21 27  2  0
 21 22  1  0
 22 23  2  0
 22 62  1  0
 23 24  1  0
 23 63  1  0
 24 25  1  0
 24 26  2  0
 25 64  1  0
 26 31  1  0
 26 27  1  0
 27 28  1  0
 28 29  1  6
 29 30  1  0
 29 65  1  0
 29 66  1  0
 30 31  1  0
 30 67  1  0
 30 68  1  0
 31 32  1  0
 32 33  1  0
 32 69  1  0
 32 70  1  0
 33 35  1  0
 33 34  1  0
 33 71  1  0
 34 35  1  0
 34 72  1  0
 34 73  1  0
 35 74  1  0
 35 75  1  0
M  CHG  1  15   1
M  END
>  <i_m_ct_stereo_status>  (255) 
1

>  <s_m_source_file>  (255) 
/var/tmp/pbs.5076255.sched01/tmpyqr7shjn/887d44c5qo.sdf

>  <i_m_source_file_index>  (255) 
21

>  <i_lp_mmshare_version>  (255) 
48012

>  <i_f3d_flags>  (255) 
0

>  <s_epik_input>  (255) 
W0NAQF0xMjNbQ0BASF00T1tDQF0oW0NIM10pKE9bQ0gzXSlbQ0BIXTVbQ0hdKFtDSDJdNClOKFtDSDJdW0NIXTZbQ0gyXVtDSDJdNilbQ0gyXVtDSDJdW0NAQEhdKFtDQF0xNVtPSF0pW0NIMl1jN2MyYyhjKFtPSF0pW2NIXVtjSF03KU4oW0NIMl1bQ0gyXTMpW0NIMl1bQ0hdOFtDSDJdW0NIMl04

>  <s_epik_cmdline>  (255) 
J2VwaWtfcHl0aG9uJywgJy1waHQnLCAnMi4wJywgJy1waCcsICc3LjAnLCAnLXRuJywgJzgnLCAnLW1hJywgJzIwMCcsICctaW1hZScsICc8aW5maWxlLm1hZT4nLCAnLW9tYWUnLCAnPG91dGZpbGUubWFlPic=

>  <r_epik_Ionization_Penalty>  (255) 
0.78833

>  <r_epik_Ionization_Penalty_Charging>  (255) 
0.00573432

>  <r_epik_Ionization_Penalty_Neutral>  (255) 
0.782596

>  <r_epik_State_Penalty>  (255) 
1.2735

>  <r_epik_Charging_Adjusted_Penalty>  (255) 
1.27924

>  <i_epik_Tot_Q>  (255) 
1

>  <i_epik_Tot_abs_Q>  (255) 
1

>  <s_lp_Force_Field>  (255) 
OPLS3e

>  <r_lp_Energy>  (255) 
185.274

>  <b_lp_Chiralities_Consistent>  (255) 
1

>  <s_lp_Variant>  (255) 
76:0-3

>  <s_i_glide_gridfile>  (255) 
pfpi4k_grid

>  <i_i_glide_lignum>  (255) 
21

>  <i_i_glide_rotatable_bonds>  (255) 
7

>  <r_i_docking_score>  (255) 
-3.64643

>  <r_i_glide_ligand_efficiency>  (255) 
-0.104184

>  <r_i_glide_ligand_efficiency_sa>  (255) 
-0.340792

>  <r_i_glide_ligand_efficiency_ln>  (255) 
-0.800472

>  <r_i_glide_gscore>  (255) 
-3.64643

>  <r_i_glide_lipo>  (255) 
-0.674055

>  <r_i_glide_hbond>  (255) 
-0.32

>  <r_i_glide_metal>  (255) 
-0

>  <r_i_glide_rewards>  (255) 
-0.750255

>  <r_i_glide_evdw>  (255) 
-19.6543

>  <r_i_glide_ecoul>  (255) 
-8.40465

>  <r_i_glide_erotb>  (255) 
0.349815

>  <r_i_glide_esite>  (255) 
-0.00851947

>  <r_i_glide_emodel>  (255) 
-34.8678

>  <r_i_glide_energy>  (255) 
-28.059

>  <r_i_glide_einternal>  (255) 
8.29352

>  <r_i_glide_intrahb_reward>  (255) 
-0.5

>  <i_i_glide_confnum>  (255) 
2

>  <i_i_glide_posenum>  (255) 
37

>  <r_i_glide_eff_state_penalty>  (255) 
0

>  <ligand_id>  (255) 
76

>  <original_smiles>  (255) 
COC1(C)OC2CC3C1C1(O)C(CCN3CC3CC3)Cc3ccc(O)c4c3C21CCN4CC1CC1

>  <smiles>  (255) 
[H]Oc1c([H])c([H])c2c3c1N(C([H])([H])C1([H])C([H])([H])C1([H])[H])C([H])([H])C([H])([H])C31C3([H])OC(OC([H])([H])[H])(C([H])([H])[H])C4([H])C1(O[H])C([H])(C2([H])[H])C([H])([H])C([H])([H])[N+]([H])(C([H])([H])C1([H])C([H])([H])C1([H])[H])C4([H])C3([H])[H]

$$$$
76:2:1
     RDKit          3D

 76 83  0  0  1  0  0  0  0  0999 V2000
    6.2476   -6.9924    5.7754 C   0  0  0  0  0  0  0  0  0  0  0  0
    5.7844   -6.1501    4.7034 O   0  0  0  0  0  0  0  0  0  0  0  0
    4.4064   -6.0322    4.4300 C   0  0  1  0  0  0  0  0  0  0  0  0
    3.7176   -5.5757    5.7435 C   0  0  0  0  0  0  0  0  0  0  0  0
    4.1563   -4.9735    3.5336 O   0  0  0  0  0  0  0  0  0  0  0  0
    3.5409   -5.3877    2.3267 C   0  0  2  0  0  0  0  0  0  0  0  0
    2.1534   -6.1010    2.7814 C   0  0  0  0  0  0  0  0  0  0  0  0
    2.3812   -7.3436    3.7781 C   0  0  2  0  0  0  0  0  0  0  0  0
    3.8715   -7.3876    3.7882 C   0  0  1  0  0  0  0  0  0  0  0  0
    4.2166   -7.6504    2.2084 C   0  0  2  0  0  0  0  0  0  0  0  0
    3.2112   -8.1501    1.2912 O   0  0  0  0  0  0  0  0  0  0  0  0
    5.0715   -8.8703    2.1455 C   0  0  2  0  0  0  0  0  0  0  0  0
    4.2714  -10.0480    2.8640 C   0  0  0  0  0  0  0  0  0  0  0  0
    2.8950   -9.8973    3.7111 C   0  0  0  0  0  0  0  0  0  0  0  0
    1.8917   -8.7513    3.4462 N   0  0  1  0  0  0  0  0  0  0  0  0
    0.5726   -9.0872    4.0468 C   0  0  0  0  0  0  0  0  0  0  0  0
   -0.5328   -8.1798    3.5541 C   0  0  0  0  0  0  0  0  0  0  0  0
   -1.7916   -8.0616    4.3707 C   0  0  0  0  0  0  0  0  0  0  0  0
   -1.8299   -8.7701    3.0484 C   0  0  0  0  0  0  0  0  0  0  0  0
    6.4621   -8.5126    2.7426 C   0  0  0  0  0  0  0  0  0  0  0  0
    6.9919   -7.1400    2.2573 C   0  0  0  0  0  0  0  0  0  0  0  0
    8.3565   -6.8642    2.3721 C   0  0  0  0  0  0  0  0  0  0  0  0
    8.8867   -5.6725    1.9216 C   0  0  0  0  0  0  0  0  0  0  0  0
    8.0697   -4.7206    1.2812 C   0  0  0  0  0  0  0  0  0  0  0  0
    8.7498   -3.6727    0.7144 O   0  0  0  0  0  0  0  0  0  0  0  0
    6.6641   -4.8954    1.1712 C   0  0  0  0  0  0  0  0  0  0  0  0
    6.1341   -6.1126    1.7232 C   0  0  0  0  0  0  0  0  0  0  0  0
    4.5973   -6.3112    1.5669 C   0  0  2  0  0  0  0  0  0  0  0  0
    4.3848   -6.1157    0.0290 C   0  0  0  0  0  0  0  0  0  0  0  0
    4.8727   -4.7392   -0.4785 C   0  0  0  0  0  0  0  0  0  0  0  0
    5.7984   -4.0479    0.4241 N   0  0  0  0  0  0  0  0  0  0  0  0
    6.0669   -2.6397    0.1067 C   0  0  0  0  0  0  0  0  0  0  0  0
    4.9001   -1.7425    0.4531 C   0  0  0  0  0  0  0  0  0  0  0  0
    5.1145   -0.2529    0.6059 C   0  0  0  0  0  0  0  0  0  0  0  0
    4.8389   -1.0972    1.8202 C   0  0  0  0  0  0  0  0  0  0  0  0
    7.3317   -6.8370    5.8278 H   0  0  0  0  0  0  0  0  0  0  0  0
    6.0580   -8.0236    5.5700 H   0  0  0  0  0  0  0  0  0  0  0  0
    5.8466   -6.6962    6.7536 H   0  0  0  0  0  0  0  0  0  0  0  0
    4.2696   -4.7178    6.1251 H   0  0  0  0  0  0  0  0  0  0  0  0
    3.7064   -6.3746    6.4828 H   0  0  0  0  0  0  0  0  0  0  0  0
    2.6855   -5.2589    5.5776 H   0  0  0  0  0  0  0  0  0  0  0  0
    3.3180   -4.4863    1.7553 H   0  0  0  0  0  0  0  0  0  0  0  0
    1.5662   -5.3670    3.3239 H   0  0  0  0  0  0  0  0  0  0  0  0
    1.5424   -6.3735    1.9157 H   0  0  0  0  0  0  0  0  0  0  0  0
    1.9954   -7.1244    4.7719 H   0  0  0  0  0  0  0  0  0  0  0  0
    4.2506   -8.1343    4.4809 H   0  0  0  0  0  0  0  0  0  0  0  0
    3.1400   -9.0714    1.4231 H   0  0  0  0  0  0  0  0  0  0  0  0
    5.2178   -9.1761    1.1086 H   0  0  0  0  0  0  0  0  0  0  0  0
    4.0430  -10.7728    2.0810 H   0  0  0  0  0  0  0  0  0  0  0  0
    4.9587  -10.5990    3.5085 H   0  0  0  0  0  0  0  0  0  0  0  0
    2.3697  -10.8417    3.5604 H   0  0  0  0  0  0  0  0  0  0  0  0
    3.1213   -9.9268    4.7865 H   0  0  0  0  0  0  0  0  0  0  0  0
    0.3093  -10.1207    3.8008 H   0  0  0  0  0  0  0  0  0  0  0  0
    0.6369   -9.0507    5.1396 H   0  0  0  0  0  0  0  0  0  0  0  0
   -0.2205   -7.2427    3.0909 H   0  0  0  0  0  0  0  0  0  0  0  0
   -1.8927   -8.6978    5.2614 H   0  0  0  0  0  0  0  0  0  0  0  0
   -2.2607   -7.0866    4.4139 H   0  0  0  0  0  0  0  0  0  0  0  0
   -2.2959   -8.2568    2.2135 H   0  0  0  0  0  0  0  0  0  0  0  0
   -1.9364   -9.8547    3.0582 H   0  0  0  0  0  0  0  0  0  0  0  0
    6.4261   -8.5319    3.7794 H   0  0  0  0  0  0  0  0  0  0  0  0
    7.1496   -9.2932    2.3734 H   0  0  0  0  0  0  0  0  0  0  0  0
    9.0256   -7.6111    2.7780 H   0  0  0  0  0  0  0  0  0  0  0  0
    9.9505   -5.5078    1.9684 H   0  0  0  0  0  0  0  0  0  0  0  0
    8.1572   -3.0210    0.3875 H   0  0  0  0  0  0  0  0  0  0  0  0
    4.9741   -6.8839   -0.4648 H   0  0  0  0  0  0  0  0  0  0  0  0
    3.3444   -6.2718   -0.2651 H   0  0  0  0  0  0  0  0  0  0  0  0
    5.3393   -4.8538   -1.4752 H   0  0  0  0  0  0  0  0  0  0  0  0
    3.9668   -4.1425   -0.6097 H   0  0  0  0  0  0  0  0  0  0  0  0
    6.9137   -2.2118    0.6331 H   0  0  0  0  0  0  0  0  0  0  0  0
    6.2478   -2.5813   -0.9672 H   0  0  0  0  0  0  0  0  0  0  0  0
    3.9478   -2.0307    0.0054 H   0  0  0  0  0  0  0  0  0  0  0  0
    6.1275    0.1300    0.4635 H   0  0  0  0  0  0  0  0  0  0  0  0
    4.3060    0.3806    0.2489 H   0  0  0  0  0  0  0  0  0  0  0  0
    3.8515   -1.0236    2.2682 H   0  0  0  0  0  0  0  0  0  0  0  0
    5.6606   -1.3029    2.5077 H   0  0  0  0  0  0  0  0  0  0  0  0
    1.7235   -8.7435    2.4401 H   0  0  0  0  0  0  0  0  0  0  0  0
  1  2  1  0
  1 36  1  0
  1 37  1  0
  1 38  1  0
  3  2  1  1
  3  9  1  0
  3  4  1  0
  3  5  1  0
  4 39  1  0
  4 40  1  0
  4 41  1  0
  5  6  1  0
  6 28  1  0
  6  7  1  0
  6 42  1  6
  7  8  1  0
  7 43  1  0
  7 44  1  0
  8 15  1  0
  8  9  1  0
  8 45  1  1
  9 10  1  0
  9 46  1  1
 10 28  1  0
 10 11  1  6
 10 12  1  0
 11 47  1  0
 12 13  1  0
 12 20  1  0
 12 48  1  6
 13 14  1  0
 13 49  1  0
 13 50  1  0
 14 15  1  0
 14 51  1  0
 14 52  1  0
 15 16  1  0
 15 76  1  6
 16 17  1  0
 16 53  1  0
 16 54  1  0
 17 19  1  0
 17 18  1  0
 17 55  1  0
 18 19  1  0
 18 56  1  0
 18 57  1  0
 19 58  1  0
 19 59  1  0
 20 21  1  0
 20 60  1  0
 20 61  1  0
 21 27  2  0
 21 22  1  0
 22 23  2  0
 22 62  1  0
 23 24  1  0
 23 63  1  0
 24 25  1  0
 24 26  2  0
 25 64  1  0
 26 31  1  0
 26 27  1  0
 27 28  1  0
 28 29  1  6
 29 30  1  0
 29 65  1  0
 29 66  1  0
 30 31  1  0
 30 67  1  0
 30 68  1  0
 31 32  1  0
 32 33  1  0
 32 69  1  0
 32 70  1  0
 33 35  1  0
 33 34  1  0
 33 71  1  0
 34 35  1  0
 34 72  1  0
 34 73  1  0
 35 74  1  0
 35 75  1  0
M  CHG  1  15   1
M  END
>  <i_m_ct_stereo_status>  (256) 
1

>  <s_m_source_file>  (256) 
/var/tmp/pbs.5076255.sched01/tmpyqr7shjn/887d44c5qo.sdf

>  <i_m_source_file_index>  (256) 
21

>  <i_lp_mmshare_version>  (256) 
48012

>  <i_f3d_flags>  (256) 
0

>  <s_epik_input>  (256) 
W0NAQF0xMjNbQ0BASF00T1tDQF0oW0NIM10pKE9bQ0gzXSlbQ0BIXTVbQ0hdKFtDSDJdNClOKFtDSDJdW0NIXTZbQ0gyXVtDSDJdNilbQ0gyXVtDSDJdW0NAQEhdKFtDQF0xNVtPSF0pW0NIMl1jN2MyYyhjKFtPSF0pW2NIXVtjSF03KU4oW0NIMl1bQ0gyXTMpW0NIMl1bQ0hdOFtDSDJdW0NIMl04

>  <s_epik_cmdline>  (256) 
J2VwaWtfcHl0aG9uJywgJy1waHQnLCAnMi4wJywgJy1waCcsICc3LjAnLCAnLXRuJywgJzgnLCAnLW1hJywgJzIwMCcsICctaW1hZScsICc8aW5maWxlLm1hZT4nLCAnLW9tYWUnLCAnPG91dGZpbGUubWFlPic=

>  <r_epik_Ionization_Penalty>  (256) 
0.78833

>  <r_epik_Ionization_Penalty_Charging>  (256) 
0.00573432

>  <r_epik_Ionization_Penalty_Neutral>  (256) 
0.782596

>  <r_epik_State_Penalty>  (256) 
1.2735

>  <r_epik_Charging_Adjusted_Penalty>  (256) 
1.27924

>  <i_epik_Tot_Q>  (256) 
1

>  <i_epik_Tot_abs_Q>  (256) 
1

>  <s_lp_Force_Field>  (256) 
OPLS3e

>  <r_lp_Energy>  (256) 
185.274

>  <b_lp_Chiralities_Consistent>  (256) 
1

>  <s_lp_Variant>  (256) 
76:0-3

>  <s_i_glide_gridfile>  (256) 
pfpi4k_grid

>  <i_i_glide_lignum>  (256) 
21

>  <i_i_glide_rotatable_bonds>  (256) 
7

>  <r_i_docking_score>  (256) 
-2.59955

>  <r_i_glide_ligand_efficiency>  (256) 
-0.0742728

>  <r_i_glide_ligand_efficiency_sa>  (256) 
-0.242951

>  <r_i_glide_ligand_efficiency_ln>  (256) 
-0.570659

>  <r_i_glide_gscore>  (256) 
-2.59955

>  <r_i_glide_lipo>  (256) 
-0.778032

>  <r_i_glide_hbond>  (256) 
0

>  <r_i_glide_metal>  (256) 
-0

>  <r_i_glide_rewards>  (256) 
-0.229769

>  <r_i_glide_evdw>  (256) 
-26.0097

>  <r_i_glide_ecoul>  (256) 
-4.21439

>  <r_i_glide_erotb>  (256) 
0.349815

>  <r_i_glide_esite>  (256) 
-0.0089176

>  <r_i_glide_emodel>  (256) 
-32.0315

>  <r_i_glide_energy>  (256) 
-30.2241

>  <r_i_glide_einternal>  (256) 
6.16395

>  <r_i_glide_intrahb_reward>  (256) 
-0

>  <i_i_glide_confnum>  (256) 
4

>  <i_i_glide_posenum>  (256) 
12

>  <r_i_glide_eff_state_penalty>  (256) 
0

>  <ligand_id>  (256) 
76

>  <original_smiles>  (256) 
COC1(C)OC2CC3C1C1(O)C(CCN3CC3CC3)Cc3ccc(O)c4c3C21CCN4CC1CC1

>  <smiles>  (256) 
[H]Oc1c([H])c([H])c2c3c1N(C([H])([H])C1([H])C([H])([H])C1([H])[H])C([H])([H])C([H])([H])C31C3([H])OC(OC([H])([H])[H])(C([H])([H])[H])C4([H])C1(O[H])C([H])(C2([H])[H])C([H])([H])C([H])([H])[N+]([H])(C([H])([H])C1([H])C([H])([H])C1([H])[H])C4([H])C3([H])[H]

$$$$
76:2:2
     RDKit          3D

 76 83  0  0  1  0  0  0  0  0999 V2000
    7.7374   -7.1818    5.0488 C   0  0  0  0  0  0  0  0  0  0  0  0
    6.6190   -6.5106    4.4439 O   0  0  0  0  0  0  0  0  0  0  0  0
    5.3102   -7.0113    4.6069 C   0  0  1  0  0  0  0  0  0  0  0  0
    5.0502   -7.1188    6.1317 C   0  0  0  0  0  0  0  0  0  0  0  0
    4.3500   -6.0839    4.1605 O   0  0  0  0  0  0  0  0  0  0  0  0
    3.5429   -6.5639    3.0984 C   0  0  2  0  0  0  0  0  0  0  0  0
    2.8271   -7.9014    3.6911 C   0  0  0  0  0  0  0  0  0  0  0  0
    3.8743   -9.0113    4.1809 C   0  0  2  0  0  0  0  0  0  0  0  0
    5.1511   -8.3592    3.7691 C   0  0  1  0  0  0  0  0  0  0  0  0
    4.9511   -8.2168    2.1502 C   0  0  2  0  0  0  0  0  0  0  0  0
    3.9529   -8.9881    1.4143 O   0  0  0  0  0  0  0  0  0  0  0  0
    6.1389   -8.8628    1.5292 C   0  0  2  0  0  0  0  0  0  0  0  0
    6.1876  -10.3692    2.0416 C   0  0  0  0  0  0  0  0  0  0  0  0
    5.2790  -10.9954    3.2286 C   0  0  0  0  0  0  0  0  0  0  0  0
    3.8904  -10.4253    3.5986 N   0  0  1  0  0  0  0  0  0  0  0  0
    3.1388  -11.4168    4.4107 C   0  0  0  0  0  0  0  0  0  0  0  0
    1.6939  -11.0032    4.6191 C   0  0  0  0  0  0  0  0  0  0  0  0
    0.6323  -12.0372    4.8810 C   0  0  0  0  0  0  0  0  0  0  0  0
    0.6688  -11.3008    3.5638 C   0  0  0  0  0  0  0  0  0  0  0  0
    7.3817   -7.9737    1.7729 C   0  0  0  0  0  0  0  0  0  0  0  0
    7.1218   -6.4653    1.5781 C   0  0  0  0  0  0  0  0  0  0  0  0
    8.2104   -5.6010    1.3632 C   0  0  0  0  0  0  0  0  0  0  0  0
    8.0124   -4.2533    1.1532 C   0  0  0  0  0  0  0  0  0  0  0  0
    6.7092   -3.6974    1.1111 C   0  0  0  0  0  0  0  0  0  0  0  0
    6.6382   -2.3699    0.7871 O   0  0  0  0  0  0  0  0  0  0  0  0
    5.5499   -4.5085    1.3426 C   0  0  0  0  0  0  0  0  0  0  0  0
    5.7970   -5.8935    1.6311 C   0  0  0  0  0  0  0  0  0  0  0  0
    4.5202   -6.7720    1.8478 C   0  0  2  0  0  0  0  0  0  0  0  0
    3.7005   -6.4839    0.5467 C   0  0  0  0  0  0  0  0  0  0  0  0
    3.3765   -4.9841    0.3529 C   0  0  0  0  0  0  0  0  0  0  0  0
    4.2122   -4.0852    1.1682 N   0  0  0  0  0  0  0  0  0  0  0  0
    3.7700   -2.6798    1.1876 C   0  0  0  0  0  0  0  0  0  0  0  0
    2.5062   -2.4912    2.0047 C   0  0  0  0  0  0  0  0  0  0  0  0
    1.8796   -1.1232    2.1286 C   0  0  0  0  0  0  0  0  0  0  0  0
    2.5585   -1.7444    3.3189 C   0  0  0  0  0  0  0  0  0  0  0  0
    8.6111   -6.5512    4.8585 H   0  0  0  0  0  0  0  0  0  0  0  0
    7.9120   -8.1480    4.6117 H   0  0  0  0  0  0  0  0  0  0  0  0
    7.6478   -7.2743    6.1349 H   0  0  0  0  0  0  0  0  0  0  0  0
    5.3178   -6.1661    6.5894 H   0  0  0  0  0  0  0  0  0  0  0  0
    5.6328   -7.9234    6.5788 H   0  0  0  0  0  0  0  0  0  0  0  0
    4.0003   -7.3102    6.3579 H   0  0  0  0  0  0  0  0  0  0  0  0
    2.7945   -5.8018    2.9040 H   0  0  0  0  0  0  0  0  0  0  0  0
    2.2478   -7.6043    4.5638 H   0  0  0  0  0  0  0  0  0  0  0  0
    2.0820   -8.3131    3.0009 H   0  0  0  0  0  0  0  0  0  0  0  0
    3.8387   -9.1399    5.2619 H   0  0  0  0  0  0  0  0  0  0  0  0
    6.0138   -8.9298    4.0871 H   0  0  0  0  0  0  0  0  0  0  0  0
    4.2799   -9.8702    1.3069 H   0  0  0  0  0  0  0  0  0  0  0  0
    5.9849   -8.9248    0.4577 H   0  0  0  0  0  0  0  0  0  0  0  0
    5.9980  -10.9994    1.1682 H   0  0  0  0  0  0  0  0  0  0  0  0
    7.2204  -10.6152    2.2861 H   0  0  0  0  0  0  0  0  0  0  0  0
    5.1403  -12.0428    2.9564 H   0  0  0  0  0  0  0  0  0  0  0  0
    5.8835  -11.0669    4.1447 H   0  0  0  0  0  0  0  0  0  0  0  0
    3.1525  -12.3815    3.8959 H   0  0  0  0  0  0  0  0  0  0  0  0
    3.6137  -11.5776    5.3782 H   0  0  0  0  0  0  0  0  0  0  0  0
    1.5703  -10.0899    5.2094 H   0  0  0  0  0  0  0  0  0  0  0  0
    0.9293  -13.0780    4.8107 H   0  0  0  0  0  0  0  0  0  0  0  0
   -0.1582  -11.8038    5.5702 H   0  0  0  0  0  0  0  0  0  0  0  0
   -0.1021  -10.5505    3.3898 H   0  0  0  0  0  0  0  0  0  0  0  0
    1.0054  -11.8525    2.6845 H   0  0  0  0  0  0  0  0  0  0  0  0
    7.7584   -8.1567    2.7380 H   0  0  0  0  0  0  0  0  0  0  0  0
    8.1383   -8.2469    1.0302 H   0  0  0  0  0  0  0  0  0  0  0  0
    9.2143   -6.0200    1.3652 H   0  0  0  0  0  0  0  0  0  0  0  0
    8.8660   -3.6147    0.9716 H   0  0  0  0  0  0  0  0  0  0  0  0
    7.4897   -1.9600    0.8627 H   0  0  0  0  0  0  0  0  0  0  0  0
    4.3012   -6.8072   -0.3018 H   0  0  0  0  0  0  0  0  0  0  0  0
    2.7670   -7.0503    0.5316 H   0  0  0  0  0  0  0  0  0  0  0  0
    3.4653   -4.7110   -0.7130 H   0  0  0  0  0  0  0  0  0  0  0  0
    2.3318   -4.8747    0.6293 H   0  0  0  0  0  0  0  0  0  0  0  0
    4.5067   -1.9991    1.5985 H   0  0  0  0  0  0  0  0  0  0  0  0
    3.5808   -2.3815    0.1602 H   0  0  0  0  0  0  0  0  0  0  0  0
    1.7921   -3.3127    1.9596 H   0  0  0  0  0  0  0  0  0  0  0  0
    2.3736   -0.3012    1.6113 H   0  0  0  0  0  0  0  0  0  0  0  0
    0.7912   -1.1053    2.1218 H   0  0  0  0  0  0  0  0  0  0  0  0
    1.9272   -2.1462    4.1110 H   0  0  0  0  0  0  0  0  0  0  0  0
    3.5260   -1.3512    3.6329 H   0  0  0  0  0  0  0  0  0  0  0  0
    3.3734  -10.3590    2.7291 H   0  0  0  0  0  0  0  0  0  0  0  0
  1  2  1  0
  1 36  1  0
  1 37  1  0
  1 38  1  0
  3  2  1  1
  3  9  1  0
  3  4  1  0
  3  5  1  0
  4 39  1  0
  4 40  1  0
  4 41  1  0
  5  6  1  0
  6 28  1  0
  6  7  1  0
  6 42  1  6
  7  8  1  0
  7 43  1  0
  7 44  1  0
  8 15  1  0
  8  9  1  0
  8 45  1  1
  9 10  1  0
  9 46  1  6
 10 28  1  0
 10 11  1  6
 10 12  1  0
 11 47  1  0
 12 13  1  0
 12 20  1  0
 12 48  1  6
 13 14  1  0
 13 49  1  0
 13 50  1  0
 14 15  1  0
 14 51  1  0
 14 52  1  0
 15 16  1  0
 15 76  1  6
 16 17  1  0
 16 53  1  0
 16 54  1  0
 17 19  1  0
 17 18  1  0
 17 55  1  0
 18 19  1  0
 18 56  1  0
 18 57  1  0
 19 58  1  0
 19 59  1  0
 20 21  1  0
 20 60  1  0
 20 61  1  0
 21 27  2  0
 21 22  1  0
 22 23  2  0
 22 62  1  0
 23 24  1  0
 23 63  1  0
 24 25  1  0
 24 26  2  0
 25 64  1  0
 26 31  1  0
 26 27  1  0
 27 28  1  0
 28 29  1  6
 29 30  1  0
 29 65  1  0
 29 66  1  0
 30 31  1  0
 30 67  1  0
 30 68  1  0
 31 32  1  0
 32 33  1  0
 32 69  1  0
 32 70  1  0
 33 35  1  0
 33 34  1  0
 33 71  1  0
 34 35  1  0
 34 72  1  0
 34 73  1  0
 35 74  1  0
 35 75  1  0
M  CHG  1  15   1
M  END
>  <i_m_ct_stereo_status>  (257) 
1

>  <s_m_source_file>  (257) 
/var/tmp/pbs.5076255.sched01/tmpyqr7shjn/887d44c5qo.sdf

>  <i_m_source_file_index>  (257) 
21

>  <i_lp_mmshare_version>  (257) 
48012

>  <i_f3d_flags>  (257) 
0

>  <s_epik_input>  (257) 
W0NAQF0xMjNbQ0BASF00T1tDQF0oW0NIM10pKE9bQ0gzXSlbQ0BIXTVbQ0hdKFtDSDJdNClOKFtDSDJdW0NIXTZbQ0gyXVtDSDJdNilbQ0gyXVtDSDJdW0NAQEhdKFtDQF0xNVtPSF0pW0NIMl1jN2MyYyhjKFtPSF0pW2NIXVtjSF03KU4oW0NIMl1bQ0gyXTMpW0NIMl1bQ0hdOFtDSDJdW0NIMl04

>  <s_epik_cmdline>  (257) 
J2VwaWtfcHl0aG9uJywgJy1waHQnLCAnMi4wJywgJy1waCcsICc3LjAnLCAnLXRuJywgJzgnLCAnLW1hJywgJzIwMCcsICctaW1hZScsICc8aW5maWxlLm1hZT4nLCAnLW9tYWUnLCAnPG91dGZpbGUubWFlPic=

>  <r_epik_Ionization_Penalty>  (257) 
0.78833

>  <r_epik_Ionization_Penalty_Charging>  (257) 
0.00573432

>  <r_epik_Ionization_Penalty_Neutral>  (257) 
0.782596

>  <r_epik_State_Penalty>  (257) 
1.2735

>  <r_epik_Charging_Adjusted_Penalty>  (257) 
1.27924

>  <i_epik_Tot_Q>  (257) 
1

>  <i_epik_Tot_abs_Q>  (257) 
1

>  <s_lp_Force_Field>  (257) 
OPLS3e

>  <r_lp_Energy>  (257) 
185.274

>  <b_lp_Chiralities_Consistent>  (257) 
1

>  <s_lp_Variant>  (257) 
76:0-3

>  <s_i_glide_gridfile>  (257) 
pfpi4k_grid

>  <i_i_glide_lignum>  (257) 
21

>  <i_i_glide_rotatable_bonds>  (257) 
7

>  <r_i_docking_score>  (257) 
-2.50593

>  <r_i_glide_ligand_efficiency>  (257) 
-0.0715979

>  <r_i_glide_ligand_efficiency_sa>  (257) 
-0.234202

>  <r_i_glide_ligand_efficiency_ln>  (257) 
-0.550107

>  <r_i_glide_gscore>  (257) 
-2.50593

>  <r_i_glide_lipo>  (257) 
-0.801302

>  <r_i_glide_hbond>  (257) 
0

>  <r_i_glide_metal>  (257) 
-0

>  <r_i_glide_rewards>  (257) 
-0.151202

>  <r_i_glide_evdw>  (257) 
-25.6232

>  <r_i_glide_ecoul>  (257) 
-4.01712

>  <r_i_glide_erotb>  (257) 
0.349815

>  <r_i_glide_esite>  (257) 
-0.0195102

>  <r_i_glide_emodel>  (257) 
-31.5902

>  <r_i_glide_energy>  (257) 
-29.6403

>  <r_i_glide_einternal>  (257) 
5.89542

>  <r_i_glide_intrahb_reward>  (257) 
-0

>  <i_i_glide_confnum>  (257) 
4

>  <i_i_glide_posenum>  (257) 
11

>  <r_i_glide_eff_state_penalty>  (257) 
0

>  <ligand_id>  (257) 
76

>  <original_smiles>  (257) 
COC1(C)OC2CC3C1C1(O)C(CCN3CC3CC3)Cc3ccc(O)c4c3C21CCN4CC1CC1

>  <smiles>  (257) 
[H]Oc1c([H])c([H])c2c3c1N(C([H])([H])C1([H])C([H])([H])C1([H])[H])C([H])([H])C([H])([H])C31C3([H])OC(OC([H])([H])[H])(C([H])([H])[H])C4([H])C1(O[H])C([H])(C2([H])[H])C([H])([H])C([H])([H])[N+]([H])(C([H])([H])C1([H])C([H])([H])C1([H])[H])C4([H])C3([H])[H]

$$$$
77:0:0
     RDKit          3D

 69 75  0  0  1  0  0  0  0  0999 V2000
    7.3226   -6.4474    3.5451 C   0  0  0  0  0  0  0  0  0  0  0  0
    5.8377   -6.8239    3.6145 C   0  0  0  0  0  0  0  0  0  0  0  0
    4.9276   -5.6727    3.5937 N   0  0  0  0  0  0  0  0  0  0  0  0
    3.9195   -5.3368    4.5103 C   0  0  0  0  0  0  0  0  0  0  0  0
    3.1839   -6.1921    5.2277 C   0  0  0  0  0  0  0  0  0  0  0  0
    3.3332   -7.5612    5.2742 N   0  0  0  0  0  0  0  0  0  0  0  0
    3.5633   -3.8735    4.3157 C   0  0  1  0  0  0  0  0  0  0  0  0
    2.1518   -3.6924    4.2126 O   0  0  0  0  0  0  0  0  0  0  0  0
    4.1230   -2.9593    5.4062 C   0  0  1  0  0  0  0  0  0  0  0  0
    5.5375   -2.9723    5.6628 O   0  0  0  0  0  0  0  0  0  0  0  0
    5.0289   -1.9423    4.8241 C   0  0  1  0  0  0  0  0  0  0  0  0
    5.0806   -2.1526    3.3318 C   0  0  2  0  0  0  0  0  0  0  0  0
    4.1185   -1.3331    2.3822 C   0  0  1  0  0  0  0  0  0  0  0  0
    2.9946   -0.5148    3.0203 C   0  0  0  0  0  0  0  0  0  0  0  0
    4.7469   -0.5209    1.2192 C   0  0  0  0  0  0  0  0  0  0  0  0
    4.1006   -0.7594   -0.1817 C   0  0  0  0  0  0  0  0  0  0  0  0
    4.5048   -2.0048   -1.0543 C   0  0  2  0  0  0  0  0  0  0  0  0
    3.9537   -1.9786   -2.5144 C   0  0  1  0  0  0  0  0  0  0  0  0
    3.2897   -0.7256   -3.0694 C   0  0  0  0  0  0  0  0  0  0  0  0
    4.8563   -2.3552   -3.5215 O   0  0  0  0  0  0  0  0  0  0  0  0
    3.0246   -3.1030   -2.0848 C   0  0  0  0  0  0  0  0  0  0  0  0
    4.0034   -3.5249   -0.9768 C   0  0  1  0  0  0  0  0  0  0  0  0
    4.9717   -4.3965   -1.4886 O   0  0  0  0  0  0  0  0  0  0  0  0
    3.2547   -4.2527    0.2348 C   0  0  2  0  0  0  0  0  0  0  0  0
    2.6070   -3.1722    1.0959 C   0  0  0  0  0  0  0  0  0  0  0  0
    3.7660   -2.6821    1.8864 C   0  0  2  0  0  0  0  0  0  0  0  0
    4.3010   -3.4658    3.0218 C   0  0  2  0  0  0  0  0  0  0  0  0
    4.8486   -4.7848    2.4364 C   0  0  2  0  0  0  0  0  0  0  0  0
    3.9446   -5.3644    1.2127 C   0  0  0  0  0  0  0  0  0  0  0  0
    2.7490   -6.1956    1.7728 C   0  0  0  0  0  0  0  0  0  0  0  0
    4.7458   -6.4177    0.4086 C   0  0  0  0  0  0  0  0  0  0  0  0
    7.8961   -7.3672    3.5147 H   0  0  0  0  0  0  0  0  0  0  0  0
    7.6474   -5.8918    4.4216 H   0  0  0  0  0  0  0  0  0  0  0  0
    7.5939   -5.8879    2.6515 H   0  0  0  0  0  0  0  0  0  0  0  0
    5.5948   -7.5161    2.8032 H   0  0  0  0  0  0  0  0  0  0  0  0
    5.7179   -7.3912    4.5330 H   0  0  0  0  0  0  0  0  0  0  0  0
    2.3297   -5.8326    5.7938 H   0  0  0  0  0  0  0  0  0  0  0  0
    2.7370   -8.1721    5.8143 H   0  0  0  0  0  0  0  0  0  0  0  0
    1.9832   -2.8219    3.8745 H   0  0  0  0  0  0  0  0  0  0  0  0
    3.4440   -2.6455    6.2013 H   0  0  0  0  0  0  0  0  0  0  0  0
    5.0771   -0.9263    5.2228 H   0  0  0  0  0  0  0  0  0  0  0  0
    6.0743   -2.2179    2.9060 H   0  0  0  0  0  0  0  0  0  0  0  0
    2.2345   -0.2470    2.2840 H   0  0  0  0  0  0  0  0  0  0  0  0
    3.3754    0.4010    3.4807 H   0  0  0  0  0  0  0  0  0  0  0  0
    2.5069   -1.0899    3.7989 H   0  0  0  0  0  0  0  0  0  0  0  0
    4.6647    0.5430    1.4385 H   0  0  0  0  0  0  0  0  0  0  0  0
    5.8194   -0.7077    1.1399 H   0  0  0  0  0  0  0  0  0  0  0  0
    3.0201   -0.6492   -0.1018 H   0  0  0  0  0  0  0  0  0  0  0  0
    4.3984    0.1154   -0.7530 H   0  0  0  0  0  0  0  0  0  0  0  0
    5.5932   -2.0698   -1.1144 H   0  0  0  0  0  0  0  0  0  0  0  0
    2.4836   -0.4067   -2.4202 H   0  0  0  0  0  0  0  0  0  0  0  0
    2.8493   -0.9284   -4.0465 H   0  0  0  0  0  0  0  0  0  0  0  0
    3.9982    0.0978   -3.1721 H   0  0  0  0  0  0  0  0  0  0  0  0
    5.2575   -3.1479   -3.1690 H   0  0  0  0  0  0  0  0  0  0  0  0
    2.0756   -2.7246   -1.7100 H   0  0  0  0  0  0  0  0  0  0  0  0
    2.8778   -3.8507   -2.8610 H   0  0  0  0  0  0  0  0  0  0  0  0
    4.4802   -5.1217   -1.8733 H   0  0  0  0  0  0  0  0  0  0  0  0
    2.4326   -4.7829   -0.2473 H   0  0  0  0  0  0  0  0  0  0  0  0
    2.1102   -2.3992    0.5181 H   0  0  0  0  0  0  0  0  0  0  0  0
    1.8404   -3.5935    1.7308 H   0  0  0  0  0  0  0  0  0  0  0  0
    4.6359   -2.8048    1.2407 H   0  0  0  0  0  0  0  0  0  0  0  0
    5.8531   -4.5910    2.0725 H   0  0  0  0  0  0  0  0  0  0  0  0
    3.0830   -7.0506    2.3620 H   0  0  0  0  0  0  0  0  0  0  0  0
    2.1389   -6.6104    0.9696 H   0  0  0  0  0  0  0  0  0  0  0  0
    2.0819   -5.6233    2.4145 H   0  0  0  0  0  0  0  0  0  0  0  0
    4.8259   -7.3855    0.9037 H   0  0  0  0  0  0  0  0  0  0  0  0
    5.7590   -6.0673    0.1979 H   0  0  0  0  0  0  0  0  0  0  0  0
    4.2441   -6.6448   -0.5366 H   0  0  0  0  0  0  0  0  0  0  0  0
    4.0915   -8.0208    4.7719 H   0  0  0  0  0  0  0  0  0  0  0  0
  1  2  1  0
  1 32  1  0
  1 33  1  0
  1 34  1  0
  2  3  1  0
  2 35  1  0
  2 36  1  0
  3 28  1  0
  3  4  1  0
  4  7  1  0
  4  5  2  0
  5 37  1  0
  5  6  1  0
  6 38  1  0
  6 69  1  0
 27  7  1  1
  7  8  1  6
  7  9  1  0
  8 39  1  0
  9 11  1  0
  9 10  1  0
  9 40  1  1
 10 11  1  0
 11 12  1  0
 11 41  1  6
 12 27  1  0
 12 13  1  0
 12 42  1  6
 13 26  1  0
 13 14  1  1
 13 15  1  0
 14 43  1  0
 14 44  1  0
 14 45  1  0
 15 16  1  0
 15 46  1  0
 15 47  1  0
 16 17  1  0
 16 48  1  0
 16 49  1  0
 17 22  1  0
 17 18  1  0
 17 50  1  6
 18 19  1  0
 18 20  1  6
 18 21  1  0
 19 51  1  0
 19 52  1  0
 19 53  1  0
 20 54  1  0
 21 22  1  0
 21 55  1  0
 21 56  1  0
 22 23  1  6
 22 24  1  0
 23 57  1  0
 24 29  1  0
 24 25  1  0
 24 58  1  6
 25 26  1  0
 25 59  1  0
 25 60  1  0
 26 27  1  0
 26 61  1  6
 27 28  1  0
 28 29  1  0
 28 62  1  6
 29 30  1  0
 29 31  1  0
 30 63  1  0
 30 64  1  0
 30 65  1  0
 31 66  1  0
 31 67  1  0
 31 68  1  0
M  END
>  <i_m_ct_stereo_status>  (258) 
1

>  <s_m_source_file>  (258) 
/var/tmp/pbs.5076255.sched01/tmpyqr7shjn/887d44c5qo.sdf

>  <i_m_source_file_index>  (258) 
22

>  <i_lp_mmshare_version>  (258) 
48012

>  <i_f3d_flags>  (258) 
0

>  <s_epik_input>  (258) 
W0hdXE49W0NIXVxbQ0BASF0xTihbQ0gyXVtDSDNdKVtDQEhdMkMoW0NIM10pKFtDSDNdKVtDQEhdKFtDQF0zKFtPSF0pW0NASF0oW0NIMl1bQ0gyXTQpW0NAQF0oW0NIM10pKFtPSF0pW0NIMl0zKVtDSDJdW0NASF01W0NAQF00KFtDSDNdKVtDQEhdNltDQEhdKE83KVtDQEhdN1tDQF0xKFtDQEBdMjU2KVtPSF0=

>  <s_epik_cmdline>  (258) 
J2VwaWtfcHl0aG9uJywgJy1waHQnLCAnMi4wJywgJy1waCcsICc3LjAnLCAnLXRuJywgJzgnLCAnLW1hJywgJzIwMCcsICctaW1hZScsICc8aW5maWxlLm1hZT4nLCAnLW9tYWUnLCAnPG91dGZpbGUubWFlPic=

>  <r_lp_tautomer_probability>  (258) 
1

>  <r_epik_Ionization_Penalty>  (258) 
4.16782

>  <r_epik_Ionization_Penalty_Charging>  (258) 
3.02208

>  <r_epik_Ionization_Penalty_Neutral>  (258) 
1.14574

>  <r_epik_State_Penalty>  (258) 
-0

>  <r_epik_Charging_Adjusted_Penalty>  (258) 
3.02208

>  <i_epik_Tot_Q>  (258) 
0

>  <i_epik_Tot_abs_Q>  (258) 
0

>  <s_epik_Chemistry_Notes>  (258) 
This compound has an imine and may undergo hydrolysis.

>  <s_lp_Force_Field>  (258) 
OPLS3e

>  <r_lp_Energy>  (258) 
170.706

>  <b_lp_Chiralities_Consistent>  (258) 
1

>  <s_lp_Variant>  (258) 
77:0-1

>  <s_i_glide_gridfile>  (258) 
pfpi4k_grid

>  <i_i_glide_lignum>  (258) 
22

>  <i_i_glide_rotatable_bonds>  (258) 
4

>  <r_i_docking_score>  (258) 
-3.55635

>  <r_i_glide_ligand_efficiency>  (258) 
-0.114721

>  <r_i_glide_ligand_efficiency_sa>  (258) 
-0.360382

>  <r_i_glide_ligand_efficiency_ln>  (258) 
-0.802065

>  <r_i_glide_gscore>  (258) 
-3.55635

>  <r_i_glide_lipo>  (258) 
-0.47923

>  <r_i_glide_hbond>  (258) 
0

>  <r_i_glide_metal>  (258) 
-0

>  <r_i_glide_rewards>  (258) 
-0.973317

>  <r_i_glide_evdw>  (258) 
-20.7589

>  <r_i_glide_ecoul>  (258) 
-7.10554

>  <r_i_glide_erotb>  (258) 
0

>  <r_i_glide_esite>  (258) 
-2.25233e-05

>  <r_i_glide_emodel>  (258) 
-37.8499

>  <r_i_glide_energy>  (258) 
-27.8644

>  <r_i_glide_einternal>  (258) 
0.754899

>  <r_i_glide_intrahb_reward>  (258) 
-0.5

>  <i_i_glide_confnum>  (258) 
2

>  <i_i_glide_posenum>  (258) 
18

>  <r_i_glide_eff_state_penalty>  (258) 
0

>  <ligand_id>  (258) 
77

>  <original_smiles>  (258) 
CCN1C(C=N)C2(O)C3OC3C3C4(C)CCC5C(C)(O)CC5(O)C5CC4C32C1C5(C)C

>  <smiles>  (258) 
[H]OC12C(=C([H])N([H])[H])N(C([H])([H])C([H])([H])[H])C3([H])C(C([H])([H])[H])(C([H])([H])[H])C4([H])C([H])([H])C5([H])C(C([H])([H])[H])(C([H])([H])C([H])([H])C6([H])C(O[H])(C([H])([H])[H])C([H])([H])C64O[H])C([H])(C4([H])OC41[H])C235

$$$$
77:0:1
     RDKit          3D

 69 75  0  0  1  0  0  0  0  0999 V2000
    7.3183   -6.4665    3.5402 C   0  0  0  0  0  0  0  0  0  0  0  0
    5.8252   -6.8185    3.6141 C   0  0  0  0  0  0  0  0  0  0  0  0
    4.9206   -5.6712    3.5931 N   0  0  0  0  0  0  0  0  0  0  0  0
    3.9163   -5.3329    4.5228 C   0  0  0  0  0  0  0  0  0  0  0  0
    3.1854   -6.1969    5.2316 C   0  0  0  0  0  0  0  0  0  0  0  0
    3.3263   -7.5695    5.2671 N   0  0  0  0  0  0  0  0  0  0  0  0
    3.5525   -3.8734    4.3164 C   0  0  1  0  0  0  0  0  0  0  0  0
    2.1301   -3.7138    4.2254 O   0  0  0  0  0  0  0  0  0  0  0  0
    4.1051   -2.9575    5.4085 C   0  0  1  0  0  0  0  0  0  0  0  0
    5.5229   -2.9767    5.6816 O   0  0  0  0  0  0  0  0  0  0  0  0
    5.0286   -1.9405    4.8247 C   0  0  1  0  0  0  0  0  0  0  0  0
    5.0885   -2.1577    3.3350 C   0  0  2  0  0  0  0  0  0  0  0  0
    4.1310   -1.3299    2.3809 C   0  0  1  0  0  0  0  0  0  0  0  0
    3.0090   -0.5250    3.0250 C   0  0  0  0  0  0  0  0  0  0  0  0
    4.7665   -0.5220    1.2221 C   0  0  0  0  0  0  0  0  0  0  0  0
    4.1162   -0.7599   -0.1757 C   0  0  0  0  0  0  0  0  0  0  0  0
    4.5180   -2.0124   -1.0522 C   0  0  2  0  0  0  0  0  0  0  0  0
    3.9662   -1.9808   -2.5086 C   0  0  1  0  0  0  0  0  0  0  0  0
    3.3062   -0.7265   -3.0652 C   0  0  0  0  0  0  0  0  0  0  0  0
    4.8682   -2.3593   -3.5248 O   0  0  0  0  0  0  0  0  0  0  0  0
    3.0388   -3.1044   -2.0863 C   0  0  0  0  0  0  0  0  0  0  0  0
    4.0075   -3.5278   -0.9702 C   0  0  1  0  0  0  0  0  0  0  0  0
    4.9779   -4.4061   -1.4894 O   0  0  0  0  0  0  0  0  0  0  0  0
    3.2534   -4.2531    0.2349 C   0  0  2  0  0  0  0  0  0  0  0  0
    2.6128   -3.1707    1.0998 C   0  0  0  0  0  0  0  0  0  0  0  0
    3.7761   -2.6808    1.8839 C   0  0  2  0  0  0  0  0  0  0  0  0
    4.2952   -3.4636    3.0265 C   0  0  2  0  0  0  0  0  0  0  0  0
    4.8451   -4.7826    2.4347 C   0  0  2  0  0  0  0  0  0  0  0  0
    3.9370   -5.3636    1.2162 C   0  0  0  0  0  0  0  0  0  0  0  0
    2.7374   -6.1953    1.7732 C   0  0  0  0  0  0  0  0  0  0  0  0
    4.7418   -6.4208    0.4166 C   0  0  0  0  0  0  0  0  0  0  0  0
    7.8812   -7.3951    3.5098 H   0  0  0  0  0  0  0  0  0  0  0  0
    7.6521   -5.9136    4.4141 H   0  0  0  0  0  0  0  0  0  0  0  0
    7.5883   -5.9144    2.6436 H   0  0  0  0  0  0  0  0  0  0  0  0
    5.5762   -7.5047    2.8064 H   0  0  0  0  0  0  0  0  0  0  0  0
    5.6965   -7.3982    4.5275 H   0  0  0  0  0  0  0  0  0  0  0  0
    2.3108   -5.8507    5.7801 H   0  0  0  0  0  0  0  0  0  0  0  0
    2.7304   -8.1739    5.8051 H   0  0  0  0  0  0  0  0  0  0  0  0
    1.7696   -3.7903    5.0955 H   0  0  0  0  0  0  0  0  0  0  0  0
    3.4386   -2.6364    6.1959 H   0  0  0  0  0  0  0  0  0  0  0  0
    5.1053   -0.9352    5.2283 H   0  0  0  0  0  0  0  0  0  0  0  0
    6.0851   -2.2255    2.9209 H   0  0  0  0  0  0  0  0  0  0  0  0
    2.2493   -0.2541    2.2949 H   0  0  0  0  0  0  0  0  0  0  0  0
    3.3813    0.3839    3.4977 H   0  0  0  0  0  0  0  0  0  0  0  0
    2.5163   -1.1122    3.7941 H   0  0  0  0  0  0  0  0  0  0  0  0
    4.6883    0.5426    1.4445 H   0  0  0  0  0  0  0  0  0  0  0  0
    5.8334   -0.7152    1.1459 H   0  0  0  0  0  0  0  0  0  0  0  0
    3.0348   -0.6514   -0.1028 H   0  0  0  0  0  0  0  0  0  0  0  0
    4.4177    0.1092   -0.7500 H   0  0  0  0  0  0  0  0  0  0  0  0
    5.6013   -2.0753   -1.1108 H   0  0  0  0  0  0  0  0  0  0  0  0
    2.5010   -0.4073   -2.4096 H   0  0  0  0  0  0  0  0  0  0  0  0
    2.8549   -0.9207   -4.0363 H   0  0  0  0  0  0  0  0  0  0  0  0
    4.0080    0.1020   -3.1640 H   0  0  0  0  0  0  0  0  0  0  0  0
    5.2647   -3.1531   -3.1868 H   0  0  0  0  0  0  0  0  0  0  0  0
    2.0953   -2.7154   -1.7051 H   0  0  0  0  0  0  0  0  0  0  0  0
    2.8710   -3.8535   -2.8595 H   0  0  0  0  0  0  0  0  0  0  0  0
    4.4875   -5.1254   -1.8739 H   0  0  0  0  0  0  0  0  0  0  0  0
    2.4292   -4.7809   -0.2434 H   0  0  0  0  0  0  0  0  0  0  0  0
    2.1137   -2.3982    0.5279 H   0  0  0  0  0  0  0  0  0  0  0  0
    1.8509   -3.5831    1.7487 H   0  0  0  0  0  0  0  0  0  0  0  0
    4.6505   -2.8065    1.2464 H   0  0  0  0  0  0  0  0  0  0  0  0
    5.8485   -4.5936    2.0657 H   0  0  0  0  0  0  0  0  0  0  0  0
    3.0615   -7.0530    2.3639 H   0  0  0  0  0  0  0  0  0  0  0  0
    2.1250   -6.6080    0.9734 H   0  0  0  0  0  0  0  0  0  0  0  0
    2.0700   -5.6243    2.4140 H   0  0  0  0  0  0  0  0  0  0  0  0
    4.8257   -7.3869    0.9088 H   0  0  0  0  0  0  0  0  0  0  0  0
    5.7545   -6.0725    0.2042 H   0  0  0  0  0  0  0  0  0  0  0  0
    4.2414   -6.6645   -0.5207 H   0  0  0  0  0  0  0  0  0  0  0  0
    4.0802   -8.0375    4.7772 H   0  0  0  0  0  0  0  0  0  0  0  0
  1  2  1  0
  1 32  1  0
  1 33  1  0
  1 34  1  0
  2  3  1  0
  2 35  1  0
  2 36  1  0
  3 28  1  0
  3  4  1  0
  4  7  1  0
  4  5  2  0
  5 37  1  0
  5  6  1  0
  6 38  1  0
  6 69  1  0
 27  7  1  1
  7  8  1  6
  7  9  1  0
  8 39  1  0
  9 11  1  0
  9 10  1  0
  9 40  1  1
 10 11  1  0
 11 12  1  0
 11 41  1  6
 12 27  1  0
 12 13  1  0
 12 42  1  6
 13 26  1  0
 13 14  1  1
 13 15  1  0
 14 43  1  0
 14 44  1  0
 14 45  1  0
 15 16  1  0
 15 46  1  0
 15 47  1  0
 16 17  1  0
 16 48  1  0
 16 49  1  0
 17 22  1  0
 17 18  1  0
 17 50  1  6
 18 19  1  0
 18 20  1  6
 18 21  1  0
 19 51  1  0
 19 52  1  0
 19 53  1  0
 20 54  1  0
 21 22  1  0
 21 55  1  0
 21 56  1  0
 22 23  1  6
 22 24  1  0
 23 57  1  0
 24 29  1  0
 24 25  1  0
 24 58  1  6
 25 26  1  0
 25 59  1  0
 25 60  1  0
 26 27  1  0
 26 61  1  6
 27 28  1  0
 28 29  1  0
 28 62  1  6
 29 30  1  0
 29 31  1  0
 30 63  1  0
 30 64  1  0
 30 65  1  0
 31 66  1  0
 31 67  1  0
 31 68  1  0
M  END
>  <i_m_ct_stereo_status>  (259) 
1

>  <s_m_source_file>  (259) 
/var/tmp/pbs.5076255.sched01/tmpyqr7shjn/887d44c5qo.sdf

>  <i_m_source_file_index>  (259) 
22

>  <i_lp_mmshare_version>  (259) 
48012

>  <i_f3d_flags>  (259) 
0

>  <s_epik_input>  (259) 
W0hdXE49W0NIXVxbQ0BASF0xTihbQ0gyXVtDSDNdKVtDQEhdMkMoW0NIM10pKFtDSDNdKVtDQEhdKFtDQF0zKFtPSF0pW0NASF0oW0NIMl1bQ0gyXTQpW0NAQF0oW0NIM10pKFtPSF0pW0NIMl0zKVtDSDJdW0NASF01W0NAQF00KFtDSDNdKVtDQEhdNltDQEhdKE83KVtDQEhdN1tDQF0xKFtDQEBdMjU2KVtPSF0=

>  <s_epik_cmdline>  (259) 
J2VwaWtfcHl0aG9uJywgJy1waHQnLCAnMi4wJywgJy1waCcsICc3LjAnLCAnLXRuJywgJzgnLCAnLW1hJywgJzIwMCcsICctaW1hZScsICc8aW5maWxlLm1hZT4nLCAnLW9tYWUnLCAnPG91dGZpbGUubWFlPic=

>  <r_lp_tautomer_probability>  (259) 
1

>  <r_epik_Ionization_Penalty>  (259) 
4.16782

>  <r_epik_Ionization_Penalty_Charging>  (259) 
3.02208

>  <r_epik_Ionization_Penalty_Neutral>  (259) 
1.14574

>  <r_epik_State_Penalty>  (259) 
-0

>  <r_epik_Charging_Adjusted_Penalty>  (259) 
3.02208

>  <i_epik_Tot_Q>  (259) 
0

>  <i_epik_Tot_abs_Q>  (259) 
0

>  <s_epik_Chemistry_Notes>  (259) 
This compound has an imine and may undergo hydrolysis.

>  <s_lp_Force_Field>  (259) 
OPLS3e

>  <r_lp_Energy>  (259) 
170.706

>  <b_lp_Chiralities_Consistent>  (259) 
1

>  <s_lp_Variant>  (259) 
77:0-1

>  <s_i_glide_gridfile>  (259) 
pfpi4k_grid

>  <i_i_glide_lignum>  (259) 
22

>  <i_i_glide_rotatable_bonds>  (259) 
4

>  <r_i_docking_score>  (259) 
-3.41512

>  <r_i_glide_ligand_efficiency>  (259) 
-0.110165

>  <r_i_glide_ligand_efficiency_sa>  (259) 
-0.34607

>  <r_i_glide_ligand_efficiency_ln>  (259) 
-0.770214

>  <r_i_glide_gscore>  (259) 
-3.41512

>  <r_i_glide_lipo>  (259) 
-0.481431

>  <r_i_glide_hbond>  (259) 
0

>  <r_i_glide_metal>  (259) 
-0

>  <r_i_glide_rewards>  (259) 
-0.973317

>  <r_i_glide_evdw>  (259) 
-20.6835

>  <r_i_glide_ecoul>  (259) 
-6.17447

>  <r_i_glide_erotb>  (259) 
0

>  <r_i_glide_esite>  (259) 
-2.34637e-05

>  <r_i_glide_emodel>  (259) 
-36.6119

>  <r_i_glide_energy>  (259) 
-26.858

>  <r_i_glide_einternal>  (259) 
0.579565

>  <r_i_glide_intrahb_reward>  (259) 
-0.5

>  <i_i_glide_confnum>  (259) 
1

>  <i_i_glide_posenum>  (259) 
21

>  <r_i_glide_eff_state_penalty>  (259) 
0

>  <ligand_id>  (259) 
77

>  <original_smiles>  (259) 
CCN1C(C=N)C2(O)C3OC3C3C4(C)CCC5C(C)(O)CC5(O)C5CC4C32C1C5(C)C

>  <smiles>  (259) 
[H]OC12C(=C([H])N([H])[H])N(C([H])([H])C([H])([H])[H])C3([H])C(C([H])([H])[H])(C([H])([H])[H])C4([H])C([H])([H])C5([H])C(C([H])([H])[H])(C([H])([H])C([H])([H])C6([H])C(O[H])(C([H])([H])[H])C([H])([H])C64O[H])C([H])(C4([H])OC41[H])C235

$$$$
77:0:2
     RDKit          3D

 69 75  0  0  1  0  0  0  0  0999 V2000
    6.2001   -6.2834    5.6165 C   0  0  0  0  0  0  0  0  0  0  0  0
    5.4708   -6.1712    4.2649 C   0  0  0  0  0  0  0  0  0  0  0  0
    4.6733   -4.9662    4.1217 N   0  0  0  0  0  0  0  0  0  0  0  0
    3.7566   -4.3767    4.9958 C   0  0  0  0  0  0  0  0  0  0  0  0
    2.9547   -5.0543    5.8396 C   0  0  0  0  0  0  0  0  0  0  0  0
    2.9935   -6.4149    6.1146 N   0  0  0  0  0  0  0  0  0  0  0  0
    3.4795   -2.9554    4.5165 C   0  0  1  0  0  0  0  0  0  0  0  0
    2.0980   -2.6701    4.4471 O   0  0  0  0  0  0  0  0  0  0  0  0
    4.1577   -1.9353    5.4255 C   0  0  1  0  0  0  0  0  0  0  0  0
    5.5830   -2.0207    5.6727 O   0  0  0  0  0  0  0  0  0  0  0  0
    5.1491   -1.1121    4.6377 C   0  0  1  0  0  0  0  0  0  0  0  0
    5.1184   -1.5760    3.2150 C   0  0  2  0  0  0  0  0  0  0  0  0
    4.1888   -0.8784    2.1601 C   0  0  1  0  0  0  0  0  0  0  0  0
    3.1632    0.1299    2.6783 C   0  0  0  0  0  0  0  0  0  0  0  0
    4.8222   -0.3461    0.8552 C   0  0  0  0  0  0  0  0  0  0  0  0
    4.0941   -0.7893   -0.4618 C   0  0  0  0  0  0  0  0  0  0  0  0
    4.3528   -2.1828   -1.1091 C   0  0  2  0  0  0  0  0  0  0  0  0
    3.7325   -2.3573   -2.5281 C   0  0  1  0  0  0  0  0  0  0  0  0
    3.1459   -1.1676   -3.2758 C   0  0  0  0  0  0  0  0  0  0  0  0
    4.5630   -2.9688   -3.5001 O   0  0  0  0  0  0  0  0  0  0  0  0
    2.7341   -3.2951   -1.8757 C   0  0  0  0  0  0  0  0  0  0  0  0
    3.7285   -3.6193   -0.7385 C   0  0  1  0  0  0  0  0  0  0  0  0
    4.6063   -4.6573   -1.1246 O   0  0  0  0  0  0  0  0  0  0  0  0
    2.9752   -4.0476    0.6088 C   0  0  2  0  0  0  0  0  0  0  0  0
    2.4654   -2.7837    1.2913 C   0  0  0  0  0  0  0  0  0  0  0  0
    3.6937   -2.2586    1.9356 C   0  0  2  0  0  0  0  0  0  0  0  0
    4.2090   -2.8577    3.1737 C   0  0  2  0  0  0  0  0  0  0  0  0
    4.6226   -4.2995    2.8283 C   0  0  2  0  0  0  0  0  0  0  0  0
    3.6134   -5.0042    1.7570 C   0  0  0  0  0  0  0  0  0  0  0  0
    2.3689   -5.6262    2.4879 C   0  0  0  0  0  0  0  0  0  0  0  0
    4.3085   -6.2613    1.1730 C   0  0  0  0  0  0  0  0  0  0  0  0
    6.7076   -7.2440    5.6837 H   0  0  0  0  0  0  0  0  0  0  0  0
    5.5331   -6.2253    6.4701 H   0  0  0  0  0  0  0  0  0  0  0  0
    6.9442   -5.5011    5.7446 H   0  0  0  0  0  0  0  0  0  0  0  0
    6.2108   -6.2069    3.4651 H   0  0  0  0  0  0  0  0  0  0  0  0
    4.8129   -7.0255    4.1192 H   0  0  0  0  0  0  0  0  0  0  0  0
    2.1553   -4.5437    6.3590 H   0  0  0  0  0  0  0  0  0  0  0  0
    2.4003   -6.8538    6.8083 H   0  0  0  0  0  0  0  0  0  0  0  0
    2.0075   -1.8723    3.9602 H   0  0  0  0  0  0  0  0  0  0  0  0
    3.5625   -1.4102    6.1865 H   0  0  0  0  0  0  0  0  0  0  0  0
    5.3273   -0.0559    4.8591 H   0  0  0  0  0  0  0  0  0  0  0  0
    6.0943   -1.8180    2.8022 H   0  0  0  0  0  0  0  0  0  0  0  0
    2.3846    0.3369    1.9387 H   0  0  0  0  0  0  0  0  0  0  0  0
    3.6225    1.0793    2.9661 H   0  0  0  0  0  0  0  0  0  0  0  0
    2.6533   -0.2456    3.5690 H   0  0  0  0  0  0  0  0  0  0  0  0
    4.8317    0.7427    0.8689 H   0  0  0  0  0  0  0  0  0  0  0  0
    5.8669   -0.6359    0.7770 H   0  0  0  0  0  0  0  0  0  0  0  0
    3.0246   -0.6324   -0.3479 H   0  0  0  0  0  0  0  0  0  0  0  0
    4.4041   -0.0576   -1.2028 H   0  0  0  0  0  0  0  0  0  0  0  0
    5.4336   -2.3452   -1.1975 H   0  0  0  0  0  0  0  0  0  0  0  0
    2.4077   -0.6552   -2.6542 H   0  0  0  0  0  0  0  0  0  0  0  0
    2.6247   -1.4854   -4.1806 H   0  0  0  0  0  0  0  0  0  0  0  0
    3.9025   -0.4344   -3.5544 H   0  0  0  0  0  0  0  0  0  0  0  0
    4.8478   -3.7743   -3.0972 H   0  0  0  0  0  0  0  0  0  0  0  0
    1.8533   -2.7573   -1.5346 H   0  0  0  0  0  0  0  0  0  0  0  0
    2.4151   -4.1168   -2.5058 H   0  0  0  0  0  0  0  0  0  0  0  0
    4.0739   -5.2808   -1.6053 H   0  0  0  0  0  0  0  0  0  0  0  0
    2.0914   -4.5749    0.2559 H   0  0  0  0  0  0  0  0  0  0  0  0
    1.9904   -2.0950    0.6138 H   0  0  0  0  0  0  0  0  0  0  0  0
    1.6968   -3.0036    2.0277 H   0  0  0  0  0  0  0  0  0  0  0  0
    4.5203   -2.5672    1.2967 H   0  0  0  0  0  0  0  0  0  0  0  0
    5.6123   -4.2792    2.3893 H   0  0  0  0  0  0  0  0  0  0  0  0
    2.6462   -6.3916    3.2143 H   0  0  0  0  0  0  0  0  0  0  0  0
    1.6894   -6.1193    1.7909 H   0  0  0  0  0  0  0  0  0  0  0  0
    1.7777   -4.8912    3.0365 H   0  0  0  0  0  0  0  0  0  0  0  0
    4.4011   -7.0657    1.8996 H   0  0  0  0  0  0  0  0  0  0  0  0
    5.3179   -6.0355    0.8272 H   0  0  0  0  0  0  0  0  0  0  0  0
    3.7402   -6.6703    0.3349 H   0  0  0  0  0  0  0  0  0  0  0  0
    3.7244   -7.0058    5.7284 H   0  0  0  0  0  0  0  0  0  0  0  0
  1  2  1  0
  1 32  1  0
  1 33  1  0
  1 34  1  0
  2  3  1  0
  2 35  1  0
  2 36  1  0
  3 28  1  0
  3  4  1  0
  4  7  1  0
  4  5  2  0
  5 37  1  0
  5  6  1  0
  6 38  1  0
  6 69  1  0
 27  7  1  1
  7  8  1  6
  7  9  1  0
  8 39  1  0
  9 11  1  0
  9 10  1  0
  9 40  1  1
 10 11  1  0
 11 12  1  0
 11 41  1  6
 12 27  1  0
 12 13  1  0
 12 42  1  6
 13 26  1  0
 13 14  1  1
 13 15  1  0
 14 43  1  0
 14 44  1  0
 14 45  1  0
 15 16  1  0
 15 46  1  0
 15 47  1  0
 16 17  1  0
 16 48  1  0
 16 49  1  0
 17 22  1  0
 17 18  1  0
 17 50  1  6
 18 19  1  0
 18 20  1  6
 18 21  1  0
 19 51  1  0
 19 52  1  0
 19 53  1  0
 20 54  1  0
 21 22  1  0
 21 55  1  0
 21 56  1  0
 22 23  1  6
 22 24  1  0
 23 57  1  0
 24 29  1  0
 24 25  1  0
 24 58  1  6
 25 26  1  0
 25 59  1  0
 25 60  1  0
 26 27  1  0
 26 61  1  6
 27 28  1  0
 28 29  1  0
 28 62  1  6
 29 30  1  0
 29 31  1  0
 30 63  1  0
 30 64  1  0
 30 65  1  0
 31 66  1  0
 31 67  1  0
 31 68  1  0
M  END
>  <i_m_ct_stereo_status>  (260) 
1

>  <s_m_source_file>  (260) 
/var/tmp/pbs.5076255.sched01/tmpyqr7shjn/887d44c5qo.sdf

>  <i_m_source_file_index>  (260) 
22

>  <i_lp_mmshare_version>  (260) 
48012

>  <i_f3d_flags>  (260) 
0

>  <s_epik_input>  (260) 
W0hdXE49W0NIXVxbQ0BASF0xTihbQ0gyXVtDSDNdKVtDQEhdMkMoW0NIM10pKFtDSDNdKVtDQEhdKFtDQF0zKFtPSF0pW0NASF0oW0NIMl1bQ0gyXTQpW0NAQF0oW0NIM10pKFtPSF0pW0NIMl0zKVtDSDJdW0NASF01W0NAQF00KFtDSDNdKVtDQEhdNltDQEhdKE83KVtDQEhdN1tDQF0xKFtDQEBdMjU2KVtPSF0=

>  <s_epik_cmdline>  (260) 
J2VwaWtfcHl0aG9uJywgJy1waHQnLCAnMi4wJywgJy1waCcsICc3LjAnLCAnLXRuJywgJzgnLCAnLW1hJywgJzIwMCcsICctaW1hZScsICc8aW5maWxlLm1hZT4nLCAnLW9tYWUnLCAnPG91dGZpbGUubWFlPic=

>  <r_lp_tautomer_probability>  (260) 
1

>  <r_epik_Ionization_Penalty>  (260) 
4.16782

>  <r_epik_Ionization_Penalty_Charging>  (260) 
3.02208

>  <r_epik_Ionization_Penalty_Neutral>  (260) 
1.14574

>  <r_epik_State_Penalty>  (260) 
-0

>  <r_epik_Charging_Adjusted_Penalty>  (260) 
3.02208

>  <i_epik_Tot_Q>  (260) 
0

>  <i_epik_Tot_abs_Q>  (260) 
0

>  <s_epik_Chemistry_Notes>  (260) 
This compound has an imine and may undergo hydrolysis.

>  <s_lp_Force_Field>  (260) 
OPLS3e

>  <r_lp_Energy>  (260) 
170.706

>  <b_lp_Chiralities_Consistent>  (260) 
1

>  <s_lp_Variant>  (260) 
77:0-1

>  <s_i_glide_gridfile>  (260) 
pfpi4k_grid

>  <i_i_glide_lignum>  (260) 
22

>  <i_i_glide_rotatable_bonds>  (260) 
4

>  <r_i_docking_score>  (260) 
-3.31182

>  <r_i_glide_ligand_efficiency>  (260) 
-0.106833

>  <r_i_glide_ligand_efficiency_sa>  (260) 
-0.335603

>  <r_i_glide_ligand_efficiency_ln>  (260) 
-0.746918

>  <r_i_glide_gscore>  (260) 
-3.31182

>  <r_i_glide_lipo>  (260) 
-0.667388

>  <r_i_glide_hbond>  (260) 
0

>  <r_i_glide_metal>  (260) 
-0

>  <r_i_glide_rewards>  (260) 
-0.474452

>  <r_i_glide_evdw>  (260) 
-17.7646

>  <r_i_glide_ecoul>  (260) 
-8.54502

>  <r_i_glide_erotb>  (260) 
0

>  <r_i_glide_esite>  (260) 
0

>  <r_i_glide_emodel>  (260) 
-30.8628

>  <r_i_glide_energy>  (260) 
-26.3096

>  <r_i_glide_einternal>  (260) 
0.846572

>  <r_i_glide_intrahb_reward>  (260) 
-0

>  <i_i_glide_confnum>  (260) 
1

>  <i_i_glide_posenum>  (260) 
25

>  <r_i_glide_eff_state_penalty>  (260) 
0

>  <ligand_id>  (260) 
77

>  <original_smiles>  (260) 
CCN1C(C=N)C2(O)C3OC3C3C4(C)CCC5C(C)(O)CC5(O)C5CC4C32C1C5(C)C

>  <smiles>  (260) 
[H]OC12C(=C([H])N([H])[H])N(C([H])([H])C([H])([H])[H])C3([H])C(C([H])([H])[H])(C([H])([H])[H])C4([H])C([H])([H])C5([H])C(C([H])([H])[H])(C([H])([H])C([H])([H])C6([H])C(O[H])(C([H])([H])[H])C([H])([H])C64O[H])C([H])(C4([H])OC41[H])C235

$$$$
78:0:0
     RDKit          3D

 35 36  0  0  1  0  0  0  0  0999 V2000
    3.1513    0.8784   -5.1363 C   0  0  0  0  0  0  0  0  0  0  0  0
    3.6867   -0.5152   -4.7564 C   0  0  0  0  0  0  0  0  0  0  0  0
    3.2129   -0.9878   -3.3919 C   0  0  2  0  0  0  0  0  0  0  0  0
    4.1212   -0.2590   -2.3635 C   0  0  0  0  0  0  0  0  0  0  0  0
    3.1015   -2.5666   -3.3081 C   0  0  2  0  0  0  0  0  0  0  0  0
    2.1038   -3.0416   -2.3581 N   0  0  0  0  0  0  0  0  0  0  0  0
    4.4269   -3.2597   -3.0307 C   0  0  0  0  0  0  0  0  0  0  0  0
    4.9828   -3.9484   -3.9055 O   0  0  0  0  0  0  0  0  0  0  0  0
    5.0242   -3.0302   -1.7737 N   0  0  0  0  0  0  0  0  0  0  0  0
    6.0924   -3.6924   -1.0705 C   0  0  2  0  0  0  0  0  0  0  0  0
    5.4445   -4.8478   -0.3243 C   0  0  0  0  0  0  0  0  0  0  0  0
    4.1620   -4.1560    0.1315 C   0  0  0  0  0  0  0  0  0  0  0  0
    4.4497   -2.8148   -0.4609 C   0  0  1  0  0  0  0  0  0  0  0  0
    5.9252   -2.3716   -0.2585 C   0  0  0  0  0  0  0  0  0  0  0  0
    3.1564    0.9961   -6.2223 H   0  0  0  0  0  0  0  0  0  0  0  0
    3.7463    1.6830   -4.6989 H   0  0  0  0  0  0  0  0  0  0  0  0
    2.1191    1.0173   -4.8129 H   0  0  0  0  0  0  0  0  0  0  0  0
    3.4105   -1.2071   -5.5280 H   0  0  0  0  0  0  0  0  0  0  0  0
    4.7785   -0.5072   -4.7826 H   0  0  0  0  0  0  0  0  0  0  0  0
    2.2163   -0.6029   -3.2175 H   0  0  0  0  0  0  0  0  0  0  0  0
    5.1582   -0.6062   -2.4283 H   0  0  0  0  0  0  0  0  0  0  0  0
    3.7637   -0.3664   -1.3458 H   0  0  0  0  0  0  0  0  0  0  0  0
    4.2125    0.7959   -2.5942 H   0  0  0  0  0  0  0  0  0  0  0  0
    2.7217   -2.9342   -4.2745 H   0  0  0  0  0  0  0  0  0  0  0  0
    2.0362   -4.0545   -2.4119 H   0  0  0  0  0  0  0  0  0  0  0  0
    1.2033   -2.6101   -2.5029 H   0  0  0  0  0  0  0  0  0  0  0  0
    7.0338   -3.8092   -1.6226 H   0  0  0  0  0  0  0  0  0  0  0  0
    5.2224   -5.7080   -0.9594 H   0  0  0  0  0  0  0  0  0  0  0  0
    6.0486   -5.1439    0.5407 H   0  0  0  0  0  0  0  0  0  0  0  0
    3.2591   -4.5892   -0.2765 H   0  0  0  0  0  0  0  0  0  0  0  0
    4.0723   -4.0419    1.2061 H   0  0  0  0  0  0  0  0  0  0  0  0
    3.6619   -2.0632   -0.2971 H   0  0  0  0  0  0  0  0  0  0  0  0
    6.2553   -2.4218    0.7873 H   0  0  0  0  0  0  0  0  0  0  0  0
    6.2662   -1.4595   -0.7388 H   0  0  0  0  0  0  0  0  0  0  0  0
    2.4373   -2.7769   -1.4378 H   0  0  0  0  0  0  0  0  0  0  0  0
  1  2  1  0
  1 15  1  0
  1 16  1  0
  1 17  1  0
  2  3  1  0
  2 18  1  0
  2 19  1  0
  3  4  1  0
  3  5  1  0
  3 20  1  1
  4 21  1  0
  4 22  1  0
  4 23  1  0
  5  6  1  0
  5  7  1  0
  5 24  1  6
  6 25  1  0
  6 26  1  0
  6 35  1  0
  7  8  2  0
  7  9  1  0
  9 13  1  0
  9 10  1  0
 10 14  1  0
 10 11  1  0
 10 27  1  6
 11 12  1  0
 11 28  1  0
 11 29  1  0
 12 13  1  0
 12 30  1  0
 12 31  1  0
 13 14  1  0
 13 32  1  6
 14 33  1  0
 14 34  1  0
M  CHG  1   6   1
M  END
>  <i_m_ct_stereo_status>  (261) 
1

>  <s_m_source_file>  (261) 
/var/tmp/pbs.5076255.sched01/tmpyqr7shjn/887d44c5qo.sdf

>  <i_m_source_file_index>  (261) 
23

>  <i_lp_mmshare_version>  (261) 
48012

>  <i_f3d_flags>  (261) 
0

>  <s_epik_input>  (261) 
W0NIM11bQ0gyXVtDQEhdKFtDSDNdKVtDQEhdKFtOSDJdKUMoPU8pTihbQ0BIXTEyKVtDQEhdKFtDSDJdMilbQ0gyXVtDSDJdMQ==

>  <s_epik_cmdline>  (261) 
J2VwaWtfcHl0aG9uJywgJy1waHQnLCAnMi4wJywgJy1waCcsICc3LjAnLCAnLXRuJywgJzgnLCAnLW1hJywgJzIwMCcsICctaW1hZScsICc8aW5maWxlLm1hZT4nLCAnLW9tYWUnLCAnPG91dGZpbGUubWFlPic=

>  <r_epik_Ionization_Penalty>  (261) 
0.0649451

>  <r_epik_Ionization_Penalty_Charging>  (261) 
0.0649451

>  <r_epik_Ionization_Penalty_Neutral>  (261) 
9.09139e-11

>  <r_epik_State_Penalty>  (261) 
0.0566058

>  <r_epik_Charging_Adjusted_Penalty>  (261) 
0.121551

>  <i_epik_Tot_Q>  (261) 
1

>  <i_epik_Tot_abs_Q>  (261) 
1

>  <s_lp_Force_Field>  (261) 
OPLS3e

>  <r_lp_Energy>  (261) 
36.0492

>  <b_lp_Chiralities_Consistent>  (261) 
1

>  <s_lp_Variant>  (261) 
78:0-1

>  <s_i_glide_gridfile>  (261) 
pfpi4k_grid

>  <i_i_glide_lignum>  (261) 
23

>  <i_i_glide_rotatable_bonds>  (261) 
4

>  <r_i_docking_score>  (261) 
-3.85885

>  <r_i_glide_ligand_efficiency>  (261) 
-0.275632

>  <r_i_glide_ligand_efficiency_sa>  (261) 
-0.664312

>  <r_i_glide_ligand_efficiency_ln>  (261) 
-1.0604

>  <r_i_glide_gscore>  (261) 
-3.85885

>  <r_i_glide_lipo>  (261) 
-0.778122

>  <r_i_glide_hbond>  (261) 
-0.0126942

>  <r_i_glide_metal>  (261) 
-0

>  <r_i_glide_rewards>  (261) 
-2.29984

>  <r_i_glide_evdw>  (261) 
-18.3544

>  <r_i_glide_ecoul>  (261) 
-6.1057

>  <r_i_glide_erotb>  (261) 
0.83538

>  <r_i_glide_esite>  (261) 
0

>  <r_i_glide_emodel>  (261) 
-25.5935

>  <r_i_glide_energy>  (261) 
-24.4601

>  <r_i_glide_einternal>  (261) 
4.4982

>  <r_i_glide_intrahb_reward>  (261) 
-0

>  <i_i_glide_confnum>  (261) 
4

>  <i_i_glide_posenum>  (261) 
22

>  <r_i_glide_eff_state_penalty>  (261) 
0

>  <ligand_id>  (261) 
78

>  <original_smiles>  (261) 
CCC(C)C(N)C(=O)N1C2CCC1C2

>  <smiles>  (261) 
[H]C([H])([H])C([H])([H])C([H])(C([H])([H])[H])C([H])(C(=O)N1C2([H])C([H])([H])C([H])([H])C1([H])C2([H])[H])[N+]([H])([H])[H]

$$$$
78:0:1
     RDKit          3D

 35 36  0  0  1  0  0  0  0  0999 V2000
   -1.1769    4.1169    5.6162 C   0  0  0  0  0  0  0  0  0  0  0  0
   -0.2801    3.0817    4.9209 C   0  0  0  0  0  0  0  0  0  0  0  0
   -0.6870    2.7529    3.4644 C   0  0  2  0  0  0  0  0  0  0  0  0
   -2.1760    2.3369    3.3611 C   0  0  0  0  0  0  0  0  0  0  0  0
    0.3293    1.7692    2.7981 C   0  0  2  0  0  0  0  0  0  0  0  0
    0.1864    1.7572    1.3289 N   0  0  0  0  0  0  0  0  0  0  0  0
    0.2824    0.3155    3.3210 C   0  0  0  0  0  0  0  0  0  0  0  0
   -0.4836   -0.0738    4.1864 O   0  0  0  0  0  0  0  0  0  0  0  0
    1.1995   -0.5914    2.7440 N   0  0  0  0  0  0  0  0  0  0  0  0
    1.6815   -1.8214    3.3396 C   0  0  2  0  0  0  0  0  0  0  0  0
    2.7069   -1.4749    4.4209 C   0  0  0  0  0  0  0  0  0  0  0  0
    3.4216   -0.3515    3.6729 C   0  0  0  0  0  0  0  0  0  0  0  0
    2.5919   -0.3905    2.3874 C   0  0  1  0  0  0  0  0  0  0  0  0
    2.3450   -1.8585    1.9452 C   0  0  0  0  0  0  0  0  0  0  0  0
   -0.6617    4.5860    6.4554 H   0  0  0  0  0  0  0  0  0  0  0  0
   -2.0779    3.6473    6.0126 H   0  0  0  0  0  0  0  0  0  0  0  0
   -1.4778    4.9049    4.9277 H   0  0  0  0  0  0  0  0  0  0  0  0
    0.7449    3.4595    4.9275 H   0  0  0  0  0  0  0  0  0  0  0  0
   -0.2678    2.1748    5.5221 H   0  0  0  0  0  0  0  0  0  0  0  0
   -0.5895    3.6901    2.9211 H   0  0  0  0  0  0  0  0  0  0  0  0
   -2.3701    1.4011    3.8925 H   0  0  0  0  0  0  0  0  0  0  0  0
   -2.4848    2.2173    2.3209 H   0  0  0  0  0  0  0  0  0  0  0  0
   -2.8360    3.0902    3.7969 H   0  0  0  0  0  0  0  0  0  0  0  0
    1.3374    2.1578    2.9811 H   0  0  0  0  0  0  0  0  0  0  0  0
    0.8863    1.1482    0.9259 H   0  0  0  0  0  0  0  0  0  0  0  0
    0.2543    2.7135    0.9679 H   0  0  0  0  0  0  0  0  0  0  0  0
    0.9140   -2.5610    3.5672 H   0  0  0  0  0  0  0  0  0  0  0  0
    2.2847   -1.1538    5.3760 H   0  0  0  0  0  0  0  0  0  0  0  0
    3.3735   -2.3207    4.6152 H   0  0  0  0  0  0  0  0  0  0  0  0
    3.3865    0.5997    4.2084 H   0  0  0  0  0  0  0  0  0  0  0  0
    4.4736   -0.5991    3.4813 H   0  0  0  0  0  0  0  0  0  0  0  0
    2.7996    0.3400    1.6104 H   0  0  0  0  0  0  0  0  0  0  0  0
    3.2422   -2.4901    1.8884 H   0  0  0  0  0  0  0  0  0  0  0  0
    1.6631   -2.0119    1.0930 H   0  0  0  0  0  0  0  0  0  0  0  0
   -0.7034    1.3687    1.0522 H   0  0  0  0  0  0  0  0  0  0  0  0
  1  2  1  0
  1 15  1  0
  1 16  1  0
  1 17  1  0
  2  3  1  0
  2 18  1  0
  2 19  1  0
  3  4  1  0
  3  5  1  0
  3 20  1  6
  4 21  1  0
  4 22  1  0
  4 23  1  0
  5  6  1  0
  5  7  1  0
  5 24  1  6
  6 25  1  0
  6 26  1  0
  6 35  1  0
  7  8  2  0
  7  9  1  0
  9 13  1  0
  9 10  1  0
 10 14  1  0
 10 11  1  0
 10 27  1  1
 11 12  1  0
 11 28  1  0
 11 29  1  0
 12 13  1  0
 12 30  1  0
 12 31  1  0
 13 14  1  0
 13 32  1  6
 14 33  1  0
 14 34  1  0
M  CHG  1   6   1
M  END
>  <i_m_ct_stereo_status>  (262) 
1

>  <s_m_source_file>  (262) 
/var/tmp/pbs.5076255.sched01/tmpyqr7shjn/887d44c5qo.sdf

>  <i_m_source_file_index>  (262) 
23

>  <i_lp_mmshare_version>  (262) 
48012

>  <i_f3d_flags>  (262) 
0

>  <s_epik_input>  (262) 
W0NIM11bQ0gyXVtDQEhdKFtDSDNdKVtDQEhdKFtOSDJdKUMoPU8pTihbQ0BIXTEyKVtDQEhdKFtDSDJdMilbQ0gyXVtDSDJdMQ==

>  <s_epik_cmdline>  (262) 
J2VwaWtfcHl0aG9uJywgJy1waHQnLCAnMi4wJywgJy1waCcsICc3LjAnLCAnLXRuJywgJzgnLCAnLW1hJywgJzIwMCcsICctaW1hZScsICc8aW5maWxlLm1hZT4nLCAnLW9tYWUnLCAnPG91dGZpbGUubWFlPic=

>  <r_epik_Ionization_Penalty>  (262) 
0.0649451

>  <r_epik_Ionization_Penalty_Charging>  (262) 
0.0649451

>  <r_epik_Ionization_Penalty_Neutral>  (262) 
9.09139e-11

>  <r_epik_State_Penalty>  (262) 
0.0566058

>  <r_epik_Charging_Adjusted_Penalty>  (262) 
0.121551

>  <i_epik_Tot_Q>  (262) 
1

>  <i_epik_Tot_abs_Q>  (262) 
1

>  <s_lp_Force_Field>  (262) 
OPLS3e

>  <r_lp_Energy>  (262) 
36.0492

>  <b_lp_Chiralities_Consistent>  (262) 
1

>  <s_lp_Variant>  (262) 
78:0-1

>  <s_i_glide_gridfile>  (262) 
pfpi4k_grid

>  <i_i_glide_lignum>  (262) 
23

>  <i_i_glide_rotatable_bonds>  (262) 
4

>  <r_i_docking_score>  (262) 
-3.09559

>  <r_i_glide_ligand_efficiency>  (262) 
-0.221114

>  <r_i_glide_ligand_efficiency_sa>  (262) 
-0.532916

>  <r_i_glide_ligand_efficiency_ln>  (262) 
-0.850658

>  <r_i_glide_gscore>  (262) 
-3.09559

>  <r_i_glide_lipo>  (262) 
-0.0113694

>  <r_i_glide_hbond>  (262) 
-0.271824

>  <r_i_glide_metal>  (262) 
-0

>  <r_i_glide_rewards>  (262) 
-2.06388

>  <r_i_glide_evdw>  (262) 
-10.5051

>  <r_i_glide_ecoul>  (262) 
-6.18365

>  <r_i_glide_erotb>  (262) 
0.83538

>  <r_i_glide_esite>  (262) 
-0.131094

>  <r_i_glide_emodel>  (262) 
-20.4509

>  <r_i_glide_energy>  (262) 
-16.6888

>  <r_i_glide_einternal>  (262) 
2.82897

>  <r_i_glide_intrahb_reward>  (262) 
-0

>  <i_i_glide_confnum>  (262) 
1

>  <i_i_glide_posenum>  (262) 
1

>  <r_i_glide_eff_state_penalty>  (262) 
0

>  <ligand_id>  (262) 
78

>  <original_smiles>  (262) 
CCC(C)C(N)C(=O)N1C2CCC1C2

>  <smiles>  (262) 
[H]C([H])([H])C([H])([H])C([H])(C([H])([H])[H])C([H])(C(=O)N1C2([H])C([H])([H])C([H])([H])C1([H])C2([H])[H])[N+]([H])([H])[H]

$$$$
78:0:2
     RDKit          3D

 35 36  0  0  1  0  0  0  0  0999 V2000
    2.6572   -0.6745    4.7386 C   0  0  0  0  0  0  0  0  0  0  0  0
    2.1829   -1.3111    3.4218 C   0  0  0  0  0  0  0  0  0  0  0  0
    1.9134   -0.3218    2.2625 C   0  0  2  0  0  0  0  0  0  0  0  0
    3.2024    0.4092    1.8120 C   0  0  0  0  0  0  0  0  0  0  0  0
    0.6664    0.6056    2.5023 C   0  0  2  0  0  0  0  0  0  0  0  0
    0.2624    1.3564    1.3497 N   0  0  0  0  0  0  0  0  0  0  0  0
    0.7881    1.6272    3.6340 C   0  0  0  0  0  0  0  0  0  0  0  0
    1.8524    2.2763    3.8061 O   0  0  0  0  0  0  0  0  0  0  0  0
   -0.2893    1.8652    4.4583 N   0  0  0  0  0  0  0  0  0  0  0  0
   -1.7205    1.8725    4.1204 C   0  0  2  0  0  0  0  0  0  0  0  0
   -1.9937    3.1118    3.2768 C   0  0  0  0  0  0  0  0  0  0  0  0
   -1.1039    4.0920    4.0309 C   0  0  0  0  0  0  0  0  0  0  0  0
   -0.5944    3.1321    5.1009 C   0  0  1  0  0  0  0  0  0  0  0  0
   -1.7293    2.2345    5.6344 C   0  0  0  0  0  0  0  0  0  0  0  0
    3.1772   -1.3902    5.3763 H   0  0  0  0  0  0  0  0  0  0  0  0
    1.8125   -0.2913    5.3130 H   0  0  0  0  0  0  0  0  0  0  0  0
    3.3445    0.1555    4.5658 H   0  0  0  0  0  0  0  0  0  0  0  0
    2.9372   -2.0213    3.0941 H   0  0  0  0  0  0  0  0  0  0  0  0
    1.2941   -1.9134    3.6108 H   0  0  0  0  0  0  0  0  0  0  0  0
    1.6498   -0.9535    1.4119 H   0  0  0  0  0  0  0  0  0  0  0  0
    3.5612    1.1195    2.5568 H   0  0  0  0  0  0  0  0  0  0  0  0
    3.0569    0.9566    0.8791 H   0  0  0  0  0  0  0  0  0  0  0  0
    4.0129   -0.3010    1.6476 H   0  0  0  0  0  0  0  0  0  0  0  0
   -0.1859   -0.0663    2.7217 H   0  0  0  0  0  0  0  0  0  0  0  0
   -0.5687    1.8993    1.4979 H   0  0  0  0  0  0  0  0  0  0  0  0
    0.0735    0.7561    0.5534 H   0  0  0  0  0  0  0  0  0  0  0  0
   -2.1441    0.9193    3.8326 H   0  0  0  0  0  0  0  0  0  0  0  0
   -1.7177    3.0266    2.2282 H   0  0  0  0  0  0  0  0  0  0  0  0
   -3.0491    3.3953    3.3246 H   0  0  0  0  0  0  0  0  0  0  0  0
   -0.3321    4.5374    3.4019 H   0  0  0  0  0  0  0  0  0  0  0  0
   -1.6783    4.8995    4.4849 H   0  0  0  0  0  0  0  0  0  0  0  0
    0.1682    3.4781    5.7970 H   0  0  0  0  0  0  0  0  0  0  0  0
   -2.6126    2.7935    5.9682 H   0  0  0  0  0  0  0  0  0  0  0  0
   -1.4310    1.4454    6.3512 H   0  0  0  0  0  0  0  0  0  0  0  0
    0.9967    1.9867    1.0617 H   0  0  0  0  0  0  0  0  0  0  0  0
  1  2  1  0
  1 15  1  0
  1 16  1  0
  1 17  1  0
  2  3  1  0
  2 18  1  0
  2 19  1  0
  3  4  1  0
  3  5  1  0
  3 20  1  6
  4 21  1  0
  4 22  1  0
  4 23  1  0
  5  6  1  0
  5  7  1  0
  5 24  1  1
  6 25  1  0
  6 26  1  0
  6 35  1  0
  7  8  2  0
  7  9  1  0
  9 13  1  0
  9 10  1  0
 10 14  1  0
 10 11  1  0
 10 27  1  1
 11 12  1  0
 11 28  1  0
 11 29  1  0
 12 13  1  0
 12 30  1  0
 12 31  1  0
 13 14  1  0
 13 32  1  1
 14 33  1  0
 14 34  1  0
M  CHG  1   6   1
M  END
>  <i_m_ct_stereo_status>  (263) 
1

>  <s_m_source_file>  (263) 
/var/tmp/pbs.5076255.sched01/tmpyqr7shjn/887d44c5qo.sdf

>  <i_m_source_file_index>  (263) 
23

>  <i_lp_mmshare_version>  (263) 
48012

>  <i_f3d_flags>  (263) 
0

>  <s_epik_input>  (263) 
W0NIM11bQ0gyXVtDQEhdKFtDSDNdKVtDQEhdKFtOSDJdKUMoPU8pTihbQ0BIXTEyKVtDQEhdKFtDSDJdMilbQ0gyXVtDSDJdMQ==

>  <s_epik_cmdline>  (263) 
J2VwaWtfcHl0aG9uJywgJy1waHQnLCAnMi4wJywgJy1waCcsICc3LjAnLCAnLXRuJywgJzgnLCAnLW1hJywgJzIwMCcsICctaW1hZScsICc8aW5maWxlLm1hZT4nLCAnLW9tYWUnLCAnPG91dGZpbGUubWFlPic=

>  <r_epik_Ionization_Penalty>  (263) 
0.0649451

>  <r_epik_Ionization_Penalty_Charging>  (263) 
0.0649451

>  <r_epik_Ionization_Penalty_Neutral>  (263) 
9.09139e-11

>  <r_epik_State_Penalty>  (263) 
0.0566058

>  <r_epik_Charging_Adjusted_Penalty>  (263) 
0.121551

>  <i_epik_Tot_Q>  (263) 
1

>  <i_epik_Tot_abs_Q>  (263) 
1

>  <s_lp_Force_Field>  (263) 
OPLS3e

>  <r_lp_Energy>  (263) 
36.0492

>  <b_lp_Chiralities_Consistent>  (263) 
1

>  <s_lp_Variant>  (263) 
78:0-1

>  <s_i_glide_gridfile>  (263) 
pfpi4k_grid

>  <i_i_glide_lignum>  (263) 
23

>  <i_i_glide_rotatable_bonds>  (263) 
4

>  <r_i_docking_score>  (263) 
-3.08549

>  <r_i_glide_ligand_efficiency>  (263) 
-0.220392

>  <r_i_glide_ligand_efficiency_sa>  (263) 
-0.531176

>  <r_i_glide_ligand_efficiency_ln>  (263) 
-0.847882

>  <r_i_glide_gscore>  (263) 
-3.08549

>  <r_i_glide_lipo>  (263) 
-0.0959177

>  <r_i_glide_hbond>  (263) 
-0.290443

>  <r_i_glide_metal>  (263) 
-0

>  <r_i_glide_rewards>  (263) 
-2.06388

>  <r_i_glide_evdw>  (263) 
-11.7229

>  <r_i_glide_ecoul>  (263) 
-5.02081

>  <r_i_glide_erotb>  (263) 
0.83538

>  <r_i_glide_esite>  (263) 
-0.131358

>  <r_i_glide_emodel>  (263) 
-20.5802

>  <r_i_glide_energy>  (263) 
-16.7437

>  <r_i_glide_einternal>  (263) 
3.13407

>  <r_i_glide_intrahb_reward>  (263) 
-0

>  <i_i_glide_confnum>  (263) 
1

>  <i_i_glide_posenum>  (263) 
3

>  <r_i_glide_eff_state_penalty>  (263) 
0

>  <ligand_id>  (263) 
78

>  <original_smiles>  (263) 
CCC(C)C(N)C(=O)N1C2CCC1C2

>  <smiles>  (263) 
[H]C([H])([H])C([H])([H])C([H])(C([H])([H])[H])C([H])(C(=O)N1C2([H])C([H])([H])C([H])([H])C1([H])C2([H])[H])[N+]([H])([H])[H]

$$$$
78:1:0
     RDKit          3D

 34 35  0  0  1  0  0  0  0  0999 V2000
    3.2552    0.6376   -5.0148 C   0  0  0  0  0  0  0  0  0  0  0  0
    3.7997   -0.7572   -4.6651 C   0  0  0  0  0  0  0  0  0  0  0  0
    3.4341   -1.2141   -3.2388 C   0  0  2  0  0  0  0  0  0  0  0  0
    4.3090   -0.4140   -2.2798 C   0  0  0  0  0  0  0  0  0  0  0  0
    3.5774   -2.7513   -3.0436 C   0  0  2  0  0  0  0  0  0  0  0  0
    2.6351   -3.4508   -3.9065 N   0  0  0  0  0  0  0  0  0  0  0  0
    3.3695   -3.1943   -1.5758 C   0  0  0  0  0  0  0  0  0  0  0  0
    2.2469   -3.4602   -1.1379 O   0  0  0  0  0  0  0  0  0  0  0  0
    4.4958   -3.3428   -0.7648 N   0  0  0  0  0  0  0  0  0  0  0  0
    4.6988   -3.6145    0.6261 C   0  0  2  0  0  0  0  0  0  0  0  0
    5.2878   -2.2891    1.1105 C   0  0  0  0  0  0  0  0  0  0  0  0
    6.2633   -2.0048   -0.0469 C   0  0  0  0  0  0  0  0  0  0  0  0
    5.9240   -3.2210   -0.9251 C   0  0  1  0  0  0  0  0  0  0  0  0
    5.8079   -4.4854   -0.0237 C   0  0  0  0  0  0  0  0  0  0  0  0
    3.1242    0.7452   -6.0896 H   0  0  0  0  0  0  0  0  0  0  0  0
    3.9191    1.4290   -4.6696 H   0  0  0  0  0  0  0  0  0  0  0  0
    2.2805    0.8071   -4.5553 H   0  0  0  0  0  0  0  0  0  0  0  0
    3.4078   -1.4557   -5.3880 H   0  0  0  0  0  0  0  0  0  0  0  0
    4.8820   -0.7787   -4.7795 H   0  0  0  0  0  0  0  0  0  0  0  0
    2.3943   -0.9636   -3.0224 H   0  0  0  0  0  0  0  0  0  0  0  0
    5.3566   -0.6543   -2.4481 H   0  0  0  0  0  0  0  0  0  0  0  0
    4.0308   -0.6189   -1.2469 H   0  0  0  0  0  0  0  0  0  0  0  0
    4.2173    0.6494   -2.4513 H   0  0  0  0  0  0  0  0  0  0  0  0
    4.5799   -3.0610   -3.3582 H   0  0  0  0  0  0  0  0  0  0  0  0
    2.7890   -4.4600   -3.8245 H   0  0  0  0  0  0  0  0  0  0  0  0
    1.6827   -3.3000   -3.5834 H   0  0  0  0  0  0  0  0  0  0  0  0
    3.8851   -4.1198    1.1589 H   0  0  0  0  0  0  0  0  0  0  0  0
    4.5274   -1.5134    1.2003 H   0  0  0  0  0  0  0  0  0  0  0  0
    5.8084   -2.3871    2.0664 H   0  0  0  0  0  0  0  0  0  0  0  0
    6.0775   -1.0235   -0.4772 H   0  0  0  0  0  0  0  0  0  0  0  0
    7.3122   -2.0462    0.2742 H   0  0  0  0  0  0  0  0  0  0  0  0
    6.3441   -3.3646   -1.9194 H   0  0  0  0  0  0  0  0  0  0  0  0
    6.6774   -4.6334    0.6248 H   0  0  0  0  0  0  0  0  0  0  0  0
    5.4734   -5.4186   -0.4955 H   0  0  0  0  0  0  0  0  0  0  0  0
  1  2  1  0
  1 15  1  0
  1 16  1  0
  1 17  1  0
  2  3  1  0
  2 18  1  0
  2 19  1  0
  3  4  1  0
  3  5  1  0
  3 20  1  1
  4 21  1  0
  4 22  1  0
  4 23  1  0
  5  6  1  0
  5  7  1  0
  5 24  1  6
  6 25  1  0
  6 26  1  0
  7  8  2  0
  7  9  1  0
  9 13  1  0
  9 10  1  0
 10 14  1  0
 10 11  1  0
 10 27  1  1
 11 12  1  0
 11 28  1  0
 11 29  1  0
 12 13  1  0
 12 30  1  0
 12 31  1  0
 13 14  1  0
 13 32  1  6
 14 33  1  0
 14 34  1  0
M  END
>  <i_m_ct_stereo_status>  (264) 
1

>  <s_m_source_file>  (264) 
/var/tmp/pbs.5076255.sched01/tmpyqr7shjn/887d44c5qo.sdf

>  <i_m_source_file_index>  (264) 
24

>  <i_lp_mmshare_version>  (264) 
48012

>  <i_f3d_flags>  (264) 
0

>  <s_epik_input>  (264) 
W0NIM11bQ0gyXVtDQEhdKFtDSDNdKVtDQEhdKFtOSDJdKUMoPU8pTihbQ0BIXTEyKVtDQEhdKFtDSDJdMilbQ0gyXVtDSDJdMQ==

>  <s_epik_cmdline>  (264) 
J2VwaWtfcHl0aG9uJywgJy1waHQnLCAnMi4wJywgJy1waCcsICc3LjAnLCAnLXRuJywgJzgnLCAnLW1hJywgJzIwMCcsICctaW1hZScsICc8aW5maWxlLm1hZT4nLCAnLW9tYWUnLCAnPG91dGZpbGUubWFlPic=

>  <r_epik_Ionization_Penalty>  (264) 
1.34203

>  <r_epik_Ionization_Penalty_Charging>  (264) 
0

>  <r_epik_Ionization_Penalty_Neutral>  (264) 
1.34203

>  <r_epik_State_Penalty>  (264) 
1.41936

>  <r_epik_Charging_Adjusted_Penalty>  (264) 
1.41936

>  <i_epik_Tot_Q>  (264) 
0

>  <i_epik_Tot_abs_Q>  (264) 
0

>  <s_lp_Force_Field>  (264) 
OPLS3e

>  <r_lp_Energy>  (264) 
37.7635

>  <b_lp_Chiralities_Consistent>  (264) 
1

>  <s_lp_Variant>  (264) 
78:0-2

>  <s_i_glide_gridfile>  (264) 
pfpi4k_grid

>  <i_i_glide_lignum>  (264) 
24

>  <i_i_glide_rotatable_bonds>  (264) 
4

>  <r_i_docking_score>  (264) 
-3.52849

>  <r_i_glide_ligand_efficiency>  (264) 
-0.252035

>  <r_i_glide_ligand_efficiency_sa>  (264) 
-0.60744

>  <r_i_glide_ligand_efficiency_ln>  (264) 
-0.969617

>  <r_i_glide_gscore>  (264) 
-3.52849

>  <r_i_glide_lipo>  (264) 
-0.578655

>  <r_i_glide_hbond>  (264) 
-0.360369

>  <r_i_glide_metal>  (264) 
-0

>  <r_i_glide_rewards>  (264) 
-2.17541

>  <r_i_glide_evdw>  (264) 
-19.9262

>  <r_i_glide_ecoul>  (264) 
-1.73516

>  <r_i_glide_erotb>  (264) 
0.842526

>  <r_i_glide_esite>  (264) 
0

>  <r_i_glide_emodel>  (264) 
-24.469

>  <r_i_glide_energy>  (264) 
-21.6614

>  <r_i_glide_einternal>  (264) 
0.971318

>  <r_i_glide_intrahb_reward>  (264) 
-0

>  <i_i_glide_confnum>  (264) 
4

>  <i_i_glide_posenum>  (264) 
24

>  <r_i_glide_eff_state_penalty>  (264) 
0

>  <ligand_id>  (264) 
78

>  <original_smiles>  (264) 
CCC(C)C(N)C(=O)N1C2CCC1C2

>  <smiles>  (264) 
[H]N([H])C([H])(C(=O)N1C2([H])C([H])([H])C([H])([H])C1([H])C2([H])[H])C([H])(C([H])([H])[H])C([H])([H])C([H])([H])[H]

$$$$
78:1:1
     RDKit          3D

 34 35  0  0  1  0  0  0  0  0999 V2000
    3.1655    0.5278   -5.5156 C   0  0  0  0  0  0  0  0  0  0  0  0
    3.9399   -0.6826   -4.9797 C   0  0  0  0  0  0  0  0  0  0  0  0
    3.4214   -1.3857   -3.7338 C   0  0  2  0  0  0  0  0  0  0  0  0
    3.2686   -0.3004   -2.7036 C   0  0  0  0  0  0  0  0  0  0  0  0
    4.3239   -2.5594   -3.2468 C   0  0  2  0  0  0  0  0  0  0  0  0
    4.2160   -3.7039   -4.1451 N   0  0  0  0  0  0  0  0  0  0  0  0
    3.9899   -3.0115   -1.8083 C   0  0  0  0  0  0  0  0  0  0  0  0
    2.8820   -3.4589   -1.5230 O   0  0  0  0  0  0  0  0  0  0  0  0
    5.0022   -2.9205   -0.8426 N   0  0  0  0  0  0  0  0  0  0  0  0
    5.0481   -3.1864    0.5663 C   0  0  2  0  0  0  0  0  0  0  0  0
    5.2969   -1.7828    1.0993 C   0  0  0  0  0  0  0  0  0  0  0  0
    6.3124   -1.3033    0.0505 C   0  0  0  0  0  0  0  0  0  0  0  0
    6.3880   -2.5650   -0.8028 C   0  0  1  0  0  0  0  0  0  0  0  0
    6.3744   -3.8285    0.0903 C   0  0  0  0  0  0  0  0  0  0  0  0
    3.3211    0.6186   -6.5857 H   0  0  0  0  0  0  0  0  0  0  0  0
    3.4796    1.4598   -5.0458 H   0  0  0  0  0  0  0  0  0  0  0  0
    2.0938    0.3994   -5.3558 H   0  0  0  0  0  0  0  0  0  0  0  0
    3.7960   -1.4165   -5.7285 H   0  0  0  0  0  0  0  0  0  0  0  0
    4.9963   -0.4514   -4.8364 H   0  0  0  0  0  0  0  0  0  0  0  0
    2.4266   -1.7741   -3.9585 H   0  0  0  0  0  0  0  0  0  0  0  0
    4.2220    0.1363   -2.4076 H   0  0  0  0  0  0  0  0  0  0  0  0
    2.7455   -0.6581   -1.8191 H   0  0  0  0  0  0  0  0  0  0  0  0
    2.6327    0.4631   -3.1233 H   0  0  0  0  0  0  0  0  0  0  0  0
    5.3567   -2.2184   -3.2796 H   0  0  0  0  0  0  0  0  0  0  0  0
    4.8785   -4.4147   -3.8655 H   0  0  0  0  0  0  0  0  0  0  0  0
    3.3097   -4.1379   -4.0185 H   0  0  0  0  0  0  0  0  0  0  0  0
    4.2807   -3.8428    0.9790 H   0  0  0  0  0  0  0  0  0  0  0  0
    4.3961   -1.1726    1.1176 H   0  0  0  0  0  0  0  0  0  0  0  0
    5.7236   -1.8120    2.0995 H   0  0  0  0  0  0  0  0  0  0  0  0
    5.9458   -0.4372   -0.4934 H   0  0  0  0  0  0  0  0  0  0  0  0
    7.2776   -1.0706    0.4892 H   0  0  0  0  0  0  0  0  0  0  0  0
    6.9634   -2.6167   -1.7344 H   0  0  0  0  0  0  0  0  0  0  0  0
    7.1578   -3.8294    0.8488 H   0  0  0  0  0  0  0  0  0  0  0  0
    6.2711   -4.8048   -0.4048 H   0  0  0  0  0  0  0  0  0  0  0  0
  1  2  1  0
  1 15  1  0
  1 16  1  0
  1 17  1  0
  2  3  1  0
  2 18  1  0
  2 19  1  0
  3  4  1  0
  3  5  1  0
  3 20  1  6
  4 21  1  0
  4 22  1  0
  4 23  1  0
  5  6  1  0
  5  7  1  0
  5 24  1  1
  6 25  1  0
  6 26  1  0
  7  8  2  0
  7  9  1  0
  9 13  1  0
  9 10  1  0
 10 14  1  0
 10 11  1  0
 10 27  1  1
 11 12  1  0
 11 28  1  0
 11 29  1  0
 12 13  1  0
 12 30  1  0
 12 31  1  0
 13 14  1  0
 13 32  1  6
 14 33  1  0
 14 34  1  0
M  END
>  <i_m_ct_stereo_status>  (265) 
1

>  <s_m_source_file>  (265) 
/var/tmp/pbs.5076255.sched01/tmpyqr7shjn/887d44c5qo.sdf

>  <i_m_source_file_index>  (265) 
24

>  <i_lp_mmshare_version>  (265) 
48012

>  <i_f3d_flags>  (265) 
0

>  <s_epik_input>  (265) 
W0NIM11bQ0gyXVtDQEhdKFtDSDNdKVtDQEhdKFtOSDJdKUMoPU8pTihbQ0BIXTEyKVtDQEhdKFtDSDJdMilbQ0gyXVtDSDJdMQ==

>  <s_epik_cmdline>  (265) 
J2VwaWtfcHl0aG9uJywgJy1waHQnLCAnMi4wJywgJy1waCcsICc3LjAnLCAnLXRuJywgJzgnLCAnLW1hJywgJzIwMCcsICctaW1hZScsICc8aW5maWxlLm1hZT4nLCAnLW9tYWUnLCAnPG91dGZpbGUubWFlPic=

>  <r_epik_Ionization_Penalty>  (265) 
1.34203

>  <r_epik_Ionization_Penalty_Charging>  (265) 
0

>  <r_epik_Ionization_Penalty_Neutral>  (265) 
1.34203

>  <r_epik_State_Penalty>  (265) 
1.41936

>  <r_epik_Charging_Adjusted_Penalty>  (265) 
1.41936

>  <i_epik_Tot_Q>  (265) 
0

>  <i_epik_Tot_abs_Q>  (265) 
0

>  <s_lp_Force_Field>  (265) 
OPLS3e

>  <r_lp_Energy>  (265) 
37.7635

>  <b_lp_Chiralities_Consistent>  (265) 
1

>  <s_lp_Variant>  (265) 
78:0-2

>  <s_i_glide_gridfile>  (265) 
pfpi4k_grid

>  <i_i_glide_lignum>  (265) 
24

>  <i_i_glide_rotatable_bonds>  (265) 
4

>  <r_i_docking_score>  (265) 
-3.13478

>  <r_i_glide_ligand_efficiency>  (265) 
-0.223913

>  <r_i_glide_ligand_efficiency_sa>  (265) 
-0.539662

>  <r_i_glide_ligand_efficiency_ln>  (265) 
-0.861427

>  <r_i_glide_gscore>  (265) 
-3.13478

>  <r_i_glide_lipo>  (265) 
-0.932421

>  <r_i_glide_hbond>  (265) 
-0.0387932

>  <r_i_glide_metal>  (265) 
-0

>  <r_i_glide_rewards>  (265) 
-2.13502

>  <r_i_glide_evdw>  (265) 
-13.3485

>  <r_i_glide_ecoul>  (265) 
-1.23067

>  <r_i_glide_erotb>  (265) 
0.842526

>  <r_i_glide_esite>  (265) 
-0.019048

>  <r_i_glide_emodel>  (265) 
-16.8825

>  <r_i_glide_energy>  (265) 
-14.5792

>  <r_i_glide_einternal>  (265) 
0.795647

>  <r_i_glide_intrahb_reward>  (265) 
-0

>  <i_i_glide_confnum>  (265) 
4

>  <i_i_glide_posenum>  (265) 
39

>  <r_i_glide_eff_state_penalty>  (265) 
0

>  <ligand_id>  (265) 
78

>  <original_smiles>  (265) 
CCC(C)C(N)C(=O)N1C2CCC1C2

>  <smiles>  (265) 
[H]N([H])C([H])(C(=O)N1C2([H])C([H])([H])C([H])([H])C1([H])C2([H])[H])C([H])(C([H])([H])[H])C([H])([H])C([H])([H])[H]

$$$$
78:1:2
     RDKit          3D

 34 35  0  0  1  0  0  0  0  0999 V2000
    3.6137   -0.7768   -4.9284 C   0  0  0  0  0  0  0  0  0  0  0  0
    2.9606   -1.9973   -4.2390 C   0  0  0  0  0  0  0  0  0  0  0  0
    3.3704   -2.2636   -2.7662 C   0  0  2  0  0  0  0  0  0  0  0  0
    3.3448   -0.9544   -1.9595 C   0  0  0  0  0  0  0  0  0  0  0  0
    4.7112   -3.0122   -2.5820 C   0  0  2  0  0  0  0  0  0  0  0  0
    4.7666   -4.2002   -3.4295 N   0  0  0  0  0  0  0  0  0  0  0  0
    4.9449   -3.4260   -1.1030 C   0  0  0  0  0  0  0  0  0  0  0  0
    4.0898   -4.0460   -0.4656 O   0  0  0  0  0  0  0  0  0  0  0  0
    6.1511   -3.0863   -0.5041 N   0  0  0  0  0  0  0  0  0  0  0  0
    7.3462   -2.3947   -0.8983 C   0  0  2  0  0  0  0  0  0  0  0  0
    8.3524   -3.5007   -0.6215 C   0  0  0  0  0  0  0  0  0  0  0  0
    7.7769   -4.0235    0.7143 C   0  0  0  0  0  0  0  0  0  0  0  0
    6.6111   -3.0567    0.8590 C   0  0  1  0  0  0  0  0  0  0  0  0
    7.0178   -1.6270    0.4062 C   0  0  0  0  0  0  0  0  0  0  0  0
    3.0487   -0.5026   -5.8309 H   0  0  0  0  0  0  0  0  0  0  0  0
    4.6097   -1.0506   -5.2413 H   0  0  0  0  0  0  0  0  0  0  0  0
    3.6892    0.1141   -4.2959 H   0  0  0  0  0  0  0  0  0  0  0  0
    1.8823   -1.8729   -4.2751 H   0  0  0  0  0  0  0  0  0  0  0  0
    3.1193   -2.8945   -4.8315 H   0  0  0  0  0  0  0  0  0  0  0  0
    2.5814   -2.8989   -2.3648 H   0  0  0  0  0  0  0  0  0  0  0  0
    4.1692   -0.2869   -2.2220 H   0  0  0  0  0  0  0  0  0  0  0  0
    3.3447   -1.1217   -0.8815 H   0  0  0  0  0  0  0  0  0  0  0  0
    2.4210   -0.4401   -2.2284 H   0  0  0  0  0  0  0  0  0  0  0  0
    5.5012   -2.3362   -2.9145 H   0  0  0  0  0  0  0  0  0  0  0  0
    5.6738   -4.6469   -3.3560 H   0  0  0  0  0  0  0  0  0  0  0  0
    4.0788   -4.8922   -3.1253 H   0  0  0  0  0  0  0  0  0  0  0  0
    7.3292   -1.8774   -1.8607 H   0  0  0  0  0  0  0  0  0  0  0  0
    8.3743   -4.2504   -1.4016 H   0  0  0  0  0  0  0  0  0  0  0  0
    9.3635   -3.0964   -0.5203 H   0  0  0  0  0  0  0  0  0  0  0  0
    7.4589   -5.0561    0.6441 H   0  0  0  0  0  0  0  0  0  0  0  0
    8.4977   -3.9271    1.5261 H   0  0  0  0  0  0  0  0  0  0  0  0
    5.8645   -3.1650    1.6578 H   0  0  0  0  0  0  0  0  0  0  0  0
    7.9011   -1.2275    0.9203 H   0  0  0  0  0  0  0  0  0  0  0  0
    6.2095   -0.8879    0.3698 H   0  0  0  0  0  0  0  0  0  0  0  0
  1  2  1  0
  1 15  1  0
  1 16  1  0
  1 17  1  0
  2  3  1  0
  2 18  1  0
  2 19  1  0
  3  4  1  0
  3  5  1  0
  3 20  1  1
  4 21  1  0
  4 22  1  0
  4 23  1  0
  5  6  1  0
  5  7  1  0
  5 24  1  6
  6 25  1  0
  6 26  1  0
  7  8  2  0
  7  9  1  0
  9 13  1  0
  9 10  1  0
 10 14  1  0
 10 11  1  0
 10 27  1  6
 11 12  1  0
 11 28  1  0
 11 29  1  0
 12 13  1  0
 12 30  1  0
 12 31  1  0
 13 14  1  0
 13 32  1  1
 14 33  1  0
 14 34  1  0
M  END
>  <i_m_ct_stereo_status>  (266) 
1

>  <s_m_source_file>  (266) 
/var/tmp/pbs.5076255.sched01/tmpyqr7shjn/887d44c5qo.sdf

>  <i_m_source_file_index>  (266) 
24

>  <i_lp_mmshare_version>  (266) 
48012

>  <i_f3d_flags>  (266) 
0

>  <s_epik_input>  (266) 
W0NIM11bQ0gyXVtDQEhdKFtDSDNdKVtDQEhdKFtOSDJdKUMoPU8pTihbQ0BIXTEyKVtDQEhdKFtDSDJdMilbQ0gyXVtDSDJdMQ==

>  <s_epik_cmdline>  (266) 
J2VwaWtfcHl0aG9uJywgJy1waHQnLCAnMi4wJywgJy1waCcsICc3LjAnLCAnLXRuJywgJzgnLCAnLW1hJywgJzIwMCcsICctaW1hZScsICc8aW5maWxlLm1hZT4nLCAnLW9tYWUnLCAnPG91dGZpbGUubWFlPic=

>  <r_epik_Ionization_Penalty>  (266) 
1.34203

>  <r_epik_Ionization_Penalty_Charging>  (266) 
0

>  <r_epik_Ionization_Penalty_Neutral>  (266) 
1.34203

>  <r_epik_State_Penalty>  (266) 
1.41936

>  <r_epik_Charging_Adjusted_Penalty>  (266) 
1.41936

>  <i_epik_Tot_Q>  (266) 
0

>  <i_epik_Tot_abs_Q>  (266) 
0

>  <s_lp_Force_Field>  (266) 
OPLS3e

>  <r_lp_Energy>  (266) 
37.7635

>  <b_lp_Chiralities_Consistent>  (266) 
1

>  <s_lp_Variant>  (266) 
78:0-2

>  <s_i_glide_gridfile>  (266) 
pfpi4k_grid

>  <i_i_glide_lignum>  (266) 
24

>  <i_i_glide_rotatable_bonds>  (266) 
4

>  <r_i_docking_score>  (266) 
-3.04888

>  <r_i_glide_ligand_efficiency>  (266) 
-0.217777

>  <r_i_glide_ligand_efficiency_sa>  (266) 
-0.524875

>  <r_i_glide_ligand_efficiency_ln>  (266) 
-0.837823

>  <r_i_glide_gscore>  (266) 
-3.04888

>  <r_i_glide_lipo>  (266) 
-0.471501

>  <r_i_glide_hbond>  (266) 
-0.32

>  <r_i_glide_metal>  (266) 
-0

>  <r_i_glide_rewards>  (266) 
-2.20677

>  <r_i_glide_evdw>  (266) 
-16.2085

>  <r_i_glide_ecoul>  (266) 
-2.96375

>  <r_i_glide_erotb>  (266) 
0.842526

>  <r_i_glide_esite>  (266) 
0

>  <r_i_glide_emodel>  (266) 
-16.5508

>  <r_i_glide_energy>  (266) 
-19.1723

>  <r_i_glide_einternal>  (266) 
2.76349

>  <r_i_glide_intrahb_reward>  (266) 
-0

>  <i_i_glide_confnum>  (266) 
4

>  <i_i_glide_posenum>  (266) 
30

>  <r_i_glide_eff_state_penalty>  (266) 
0

>  <ligand_id>  (266) 
78

>  <original_smiles>  (266) 
CCC(C)C(N)C(=O)N1C2CCC1C2

>  <smiles>  (266) 
[H]N([H])C([H])(C(=O)N1C2([H])C([H])([H])C([H])([H])C1([H])C2([H])[H])C([H])(C([H])([H])[H])C([H])([H])C([H])([H])[H]

$$$$
79:0:0
     RDKit          3D

 29 31  0  0  1  0  0  0  0  0999 V2000
  -10.4260   -5.2106   -7.4866 C   0  0  0  0  0  0  0  0  0  0  0  0
   -9.6844   -4.4186   -6.3895 C   0  0  0  0  0  0  0  0  0  0  0  0
   -8.5724   -5.2299   -5.6937 C   0  0  2  0  0  0  0  0  0  0  0  0
   -7.8439   -4.4361   -4.5409 C   0  0  0  0  0  0  0  0  0  0  0  0
   -6.3815   -5.0053   -4.5362 C   0  0  1  0  0  0  0  0  0  0  0  0
   -5.3904   -3.8935   -4.2163 C   0  0  0  0  0  0  0  0  0  0  0  0
   -5.7376   -6.5243   -5.0958 C   0  0  2  0  0  0  0  0  0  0  0  0
   -6.3751   -6.9956   -6.5230 C   0  0  0  0  0  0  0  0  0  0  0  0
   -7.5272   -5.8817   -6.6733 C   0  0  1  0  0  0  0  0  0  0  0  0
   -6.5601   -5.6120   -5.7189 C   0  0  2  0  0  0  0  0  0  0  0  0
   -6.7908   -6.7408   -4.4002 C   0  0  0  0  0  0  0  0  0  0  0  0
  -11.1557   -4.5794   -7.9889 H   0  0  0  0  0  0  0  0  0  0  0  0
  -10.9721   -6.0656   -7.0906 H   0  0  0  0  0  0  0  0  0  0  0  0
   -9.7443   -5.5866   -8.2461 H   0  0  0  0  0  0  0  0  0  0  0  0
   -9.2386   -3.5274   -6.8323 H   0  0  0  0  0  0  0  0  0  0  0  0
  -10.4168   -4.0584   -5.6590 H   0  0  0  0  0  0  0  0  0  0  0  0
   -8.9877   -6.0336   -5.1415 H   0  0  0  0  0  0  0  0  0  0  0  0
   -7.8426   -3.3826   -4.7724 H   0  0  0  0  0  0  0  0  0  0  0  0
   -8.3246   -4.5478   -3.5666 H   0  0  0  0  0  0  0  0  0  0  0  0
   -4.3952   -4.2618   -4.3291 H   0  0  0  0  0  0  0  0  0  0  0  0
   -5.5239   -3.3979   -3.2481 H   0  0  0  0  0  0  0  0  0  0  0  0
   -5.5543   -3.0719   -4.9166 H   0  0  0  0  0  0  0  0  0  0  0  0
   -4.8787   -6.9851   -4.6220 H   0  0  0  0  0  0  0  0  0  0  0  0
   -5.6497   -7.0520   -7.3238 H   0  0  0  0  0  0  0  0  0  0  0  0
   -6.7423   -8.0149   -6.5525 H   0  0  0  0  0  0  0  0  0  0  0  0
   -7.4229   -5.3014   -7.5847 H   0  0  0  0  0  0  0  0  0  0  0  0
   -5.8881   -4.8241   -6.1745 H   0  0  0  0  0  0  0  0  0  0  0  0
   -7.2461   -7.7036   -4.6196 H   0  0  0  0  0  0  0  0  0  0  0  0
   -6.4364   -6.7262   -3.3514 H   0  0  0  0  0  0  0  0  0  0  0  0
  1  2  1  0
  1 12  1  0
  1 13  1  0
  1 14  1  0
  2  3  1  0
  2 15  1  0
  2 16  1  0
  3  9  1  0
  3  4  1  0
  3 17  1  1
  4  5  1  0
  4 18  1  0
  4 19  1  0
  5 10  1  0
  5  6  1  6
  5  7  1  0
  6 20  1  0
  6 21  1  0
  6 22  1  0
  7 11  1  0
  7  8  1  0
  7 23  1  1
  8  9  1  0
  8 24  1  0
  8 25  1  0
  9 10  1  0
  9 26  1  6
 10 11  1  0
 10 27  1  6
 11 28  1  0
 11 29  1  0
M  END
>  <i_m_ct_stereo_status>  (267) 
1

>  <s_m_source_file>  (267) 
/var/tmp/pbs.5076255.sched01/tmpyqr7shjn/887d44c5qo.sdf

>  <i_m_source_file_index>  (267) 
25

>  <i_lp_mmshare_version>  (267) 
48012

>  <i_f3d_flags>  (267) 
0

>  <s_epik_input>  (267) 
W0NIM11bQ0gyXVtDQEhdKFtDSDJdMSlbQ0hdKFtDSF0yW0NIMl0zKVtDSDJdW0NASF0zW0NAXTEyW0NIM10=

>  <s_epik_cmdline>  (267) 
J2VwaWtfcHl0aG9uJywgJy1waHQnLCAnMi4wJywgJy1waCcsICc3LjAnLCAnLXRuJywgJzgnLCAnLW1hJywgJzIwMCcsICctaW1hZScsICc8aW5maWxlLm1hZT4nLCAnLW9tYWUnLCAnPG91dGZpbGUubWFlPic=

>  <r_lp_tautomer_probability>  (267) 
1

>  <r_epik_Ionization_Penalty>  (267) 
0

>  <r_epik_Ionization_Penalty_Charging>  (267) 
0

>  <r_epik_Ionization_Penalty_Neutral>  (267) 
0

>  <r_epik_State_Penalty>  (267) 
-0

>  <r_epik_Charging_Adjusted_Penalty>  (267) 
0

>  <i_epik_Tot_Q>  (267) 
0

>  <i_epik_Tot_abs_Q>  (267) 
0

>  <s_lp_Force_Field>  (267) 
OPLS3e

>  <r_lp_Energy>  (267) 
343.578

>  <b_lp_Chiralities_Consistent>  (267) 
1

>  <s_lp_Variant>  (267) 
79:0-1

>  <s_i_glide_gridfile>  (267) 
pfpi4k_grid

>  <i_i_glide_lignum>  (267) 
25

>  <i_i_glide_rotatable_bonds>  (267) 
1

>  <r_i_docking_score>  (267) 
-4.31237

>  <r_i_glide_ligand_efficiency>  (267) 
-0.392033

>  <r_i_glide_ligand_efficiency_sa>  (267) 
-0.871875

>  <r_i_glide_ligand_efficiency_ln>  (267) 
-1.26913

>  <r_i_glide_gscore>  (267) 
-4.31237

>  <r_i_glide_lipo>  (267) 
-2.42323

>  <r_i_glide_hbond>  (267) 
0

>  <r_i_glide_metal>  (267) 
-0

>  <r_i_glide_rewards>  (267) 
-1.65

>  <r_i_glide_evdw>  (267) 
-4.55918

>  <r_i_glide_ecoul>  (267) 
-0.0745593

>  <r_i_glide_erotb>  (267) 
0

>  <r_i_glide_esite>  (267) 
0

>  <r_i_glide_emodel>  (267) 
-7.43078

>  <r_i_glide_energy>  (267) 
-4.63374

>  <r_i_glide_einternal>  (267) 
0.392057

>  <r_i_glide_intrahb_reward>  (267) 
-0

>  <i_i_glide_confnum>  (267) 
1

>  <i_i_glide_posenum>  (267) 
23

>  <r_i_glide_eff_state_penalty>  (267) 
0

>  <ligand_id>  (267) 
79

>  <original_smiles>  (267) 
CCC1CC2(C)C3CC1C2C3

>  <smiles>  (267) 
[H]C([H])([H])C([H])([H])C1([H])C([H])([H])C2(C([H])([H])[H])C3([H])C([H])([H])C1([H])C2([H])C3([H])[H]

$$$$
79:0:1
     RDKit          3D

 29 31  0  0  1  0  0  0  0  0999 V2000
    3.6027    0.4772   -5.3950 C   0  0  0  0  0  0  0  0  0  0  0  0
    2.8598   -0.3584   -4.3490 C   0  0  0  0  0  0  0  0  0  0  0  0
    3.6638   -1.5527   -3.8050 C   0  0  2  0  0  0  0  0  0  0  0  0
    2.7162   -2.7088   -3.2480 C   0  0  0  0  0  0  0  0  0  0  0  0
    3.4522   -3.3569   -2.0195 C   0  0  1  0  0  0  0  0  0  0  0  0
    2.4753   -3.8329   -0.9411 C   0  0  0  0  0  0  0  0  0  0  0  0
    5.1348   -3.3587   -1.6247 C   0  0  2  0  0  0  0  0  0  0  0  0
    5.8090   -1.8810   -1.8124 C   0  0  0  0  0  0  0  0  0  0  0  0
    4.6424   -1.1356   -2.6325 C   0  0  1  0  0  0  0  0  0  0  0  0
    4.2921   -2.3034   -1.9758 C   0  0  2  0  0  0  0  0  0  0  0  0
    5.0330   -3.6073   -2.8940 C   0  0  0  0  0  0  0  0  0  0  0  0
    3.0021    1.3382   -5.7000 H   0  0  0  0  0  0  0  0  0  0  0  0
    3.7975   -0.1205   -6.2895 H   0  0  0  0  0  0  0  0  0  0  0  0
    4.5559    0.8498   -5.0138 H   0  0  0  0  0  0  0  0  0  0  0  0
    2.5500    0.2742   -3.5202 H   0  0  0  0  0  0  0  0  0  0  0  0
    1.9327   -0.6964   -4.8079 H   0  0  0  0  0  0  0  0  0  0  0  0
    4.2369   -1.9571   -4.6424 H   0  0  0  0  0  0  0  0  0  0  0  0
    1.7602   -2.2913   -2.9272 H   0  0  0  0  0  0  0  0  0  0  0  0
    2.4828   -3.4521   -4.0131 H   0  0  0  0  0  0  0  0  0  0  0  0
    3.0091   -4.2305   -0.0811 H   0  0  0  0  0  0  0  0  0  0  0  0
    1.8296   -4.6237   -1.3208 H   0  0  0  0  0  0  0  0  0  0  0  0
    1.8170   -3.0466   -0.5817 H   0  0  0  0  0  0  0  0  0  0  0  0
    5.6142   -4.1762   -1.0824 H   0  0  0  0  0  0  0  0  0  0  0  0
    6.0192   -1.3865   -0.8518 H   0  0  0  0  0  0  0  0  0  0  0  0
    6.7794   -1.8814   -2.3155 H   0  0  0  0  0  0  0  0  0  0  0  0
    4.3017   -0.2460   -2.0893 H   0  0  0  0  0  0  0  0  0  0  0  0
    3.7757   -1.9922   -0.9959 H   0  0  0  0  0  0  0  0  0  0  0  0
    5.9398   -3.4548   -3.4627 H   0  0  0  0  0  0  0  0  0  0  0  0
    4.6968   -4.6451   -3.1012 H   0  0  0  0  0  0  0  0  0  0  0  0
  1  2  1  0
  1 12  1  0
  1 13  1  0
  1 14  1  0
  2  3  1  0
  2 15  1  0
  2 16  1  0
  3  9  1  0
  3  4  1  0
  3 17  1  6
  4  5  1  0
  4 18  1  0
  4 19  1  0
  5 10  1  0
  5  6  1  1
  5  7  1  0
  6 20  1  0
  6 21  1  0
  6 22  1  0
  7 11  1  0
  7  8  1  0
  7 23  1  1
  8  9  1  0
  8 24  1  0
  8 25  1  0
  9 10  1  0
  9 26  1  1
 10 11  1  0
 10 27  1  1
 11 28  1  0
 11 29  1  0
M  END
>  <i_m_ct_stereo_status>  (268) 
1

>  <s_m_source_file>  (268) 
/var/tmp/pbs.5076255.sched01/tmpyqr7shjn/887d44c5qo.sdf

>  <i_m_source_file_index>  (268) 
25

>  <i_lp_mmshare_version>  (268) 
48012

>  <i_f3d_flags>  (268) 
0

>  <s_epik_input>  (268) 
W0NIM11bQ0gyXVtDQEhdKFtDSDJdMSlbQ0hdKFtDSF0yW0NIMl0zKVtDSDJdW0NASF0zW0NAXTEyW0NIM10=

>  <s_epik_cmdline>  (268) 
J2VwaWtfcHl0aG9uJywgJy1waHQnLCAnMi4wJywgJy1waCcsICc3LjAnLCAnLXRuJywgJzgnLCAnLW1hJywgJzIwMCcsICctaW1hZScsICc8aW5maWxlLm1hZT4nLCAnLW9tYWUnLCAnPG91dGZpbGUubWFlPic=

>  <r_lp_tautomer_probability>  (268) 
1

>  <r_epik_Ionization_Penalty>  (268) 
0

>  <r_epik_Ionization_Penalty_Charging>  (268) 
0

>  <r_epik_Ionization_Penalty_Neutral>  (268) 
0

>  <r_epik_State_Penalty>  (268) 
-0

>  <r_epik_Charging_Adjusted_Penalty>  (268) 
0

>  <i_epik_Tot_Q>  (268) 
0

>  <i_epik_Tot_abs_Q>  (268) 
0

>  <s_lp_Force_Field>  (268) 
OPLS3e

>  <r_lp_Energy>  (268) 
343.578

>  <b_lp_Chiralities_Consistent>  (268) 
1

>  <s_lp_Variant>  (268) 
79:0-1

>  <s_i_glide_gridfile>  (268) 
pfpi4k_grid

>  <i_i_glide_lignum>  (268) 
25

>  <i_i_glide_rotatable_bonds>  (268) 
1

>  <r_i_docking_score>  (268) 
-3.95215

>  <r_i_glide_ligand_efficiency>  (268) 
-0.359286

>  <r_i_glide_ligand_efficiency_sa>  (268) 
-0.799046

>  <r_i_glide_ligand_efficiency_ln>  (268) 
-1.16312

>  <r_i_glide_gscore>  (268) 
-3.95215

>  <r_i_glide_lipo>  (268) 
-0.893174

>  <r_i_glide_hbond>  (268) 
0

>  <r_i_glide_metal>  (268) 
-0

>  <r_i_glide_rewards>  (268) 
-2.30408

>  <r_i_glide_evdw>  (268) 
-17.3882

>  <r_i_glide_ecoul>  (268) 
0.763421

>  <r_i_glide_erotb>  (268) 
0

>  <r_i_glide_esite>  (268) 
0

>  <r_i_glide_emodel>  (268) 
-19.5551

>  <r_i_glide_energy>  (268) 
-16.6248

>  <r_i_glide_einternal>  (268) 
1.08947

>  <r_i_glide_intrahb_reward>  (268) 
-0

>  <i_i_glide_confnum>  (268) 
1

>  <i_i_glide_posenum>  (268) 
8

>  <r_i_glide_eff_state_penalty>  (268) 
0

>  <ligand_id>  (268) 
79

>  <original_smiles>  (268) 
CCC1CC2(C)C3CC1C2C3

>  <smiles>  (268) 
[H]C([H])([H])C([H])([H])C1([H])C([H])([H])C2(C([H])([H])[H])C3([H])C([H])([H])C1([H])C2([H])C3([H])[H]

$$$$
80:0:0
     RDKit          3D

 28 30  0  0  1  0  0  0  0  0999 V2000
    1.1209  -11.4490    4.1926 C   0  0  0  0  0  0  0  0  0  0  0  0
    1.5532  -10.2937    3.4929 O   0  0  0  0  0  0  0  0  0  0  0  0
    0.6580   -9.4937    2.8795 C   0  0  0  0  0  0  0  0  0  0  0  0
   -0.5592   -9.6861    2.8785 O   0  0  0  0  0  0  0  0  0  0  0  0
    1.2980   -8.3359    2.1953 C   0  0  0  0  0  0  0  0  0  0  0  0
    0.4893   -7.3622    1.5622 C   0  0  0  0  0  0  0  0  0  0  0  0
    0.9869   -6.2867    0.9139 N   0  0  0  0  0  0  0  0  0  0  0  0
    2.3092   -6.1563    0.8807 N   0  0  0  0  0  0  0  0  0  0  0  0
    2.9744   -5.1833    0.2911 N   0  0  0  0  0  0  0  0  0  0  0  0
    4.2531   -5.4572    0.4888 N   0  0  0  0  0  0  0  0  0  0  0  0
    5.3440   -4.6310    0.0403 C   0  0  0  0  0  0  0  0  0  0  0  0
    5.1119   -3.7085   -1.0075 C   0  0  0  0  0  0  0  0  0  0  0  0
    6.1794   -2.9085   -1.4581 C   0  0  0  0  0  0  0  0  0  0  0  0
    7.4362   -3.0416   -0.8384 C   0  0  0  0  0  0  0  0  0  0  0  0
    7.5727   -3.9773    0.2025 C   0  0  0  0  0  0  0  0  0  0  0  0
    6.5597   -4.7604    0.6245 N   0  0  0  0  0  0  0  0  0  0  0  0
    4.4357   -6.5656    1.1978 N   0  0  0  0  0  0  0  0  0  0  0  0
    3.2156   -7.0405    1.4583 C   0  0  0  0  0  0  0  0  0  0  0  0
    2.7058   -8.1758    2.1423 C   0  0  0  0  0  0  0  0  0  0  0  0
    1.9811  -11.9611    4.6244 H   0  0  0  0  0  0  0  0  0  0  0  0
    0.6168  -12.1457    3.5227 H   0  0  0  0  0  0  0  0  0  0  0  0
    0.4429  -11.1893    5.0064 H   0  0  0  0  0  0  0  0  0  0  0  0
   -0.5877   -7.4504    1.5613 H   0  0  0  0  0  0  0  0  0  0  0  0
    4.1437   -3.6245   -1.4812 H   0  0  0  0  0  0  0  0  0  0  0  0
    6.0344   -2.2095   -2.2695 H   0  0  0  0  0  0  0  0  0  0  0  0
    8.2900   -2.4637   -1.1613 H   0  0  0  0  0  0  0  0  0  0  0  0
    8.5237   -4.1156    0.6972 H   0  0  0  0  0  0  0  0  0  0  0  0
    3.3891   -8.8836    2.5900 H   0  0  0  0  0  0  0  0  0  0  0  0
  1  2  1  0
  1 20  1  0
  1 21  1  0
  1 22  1  0
  2  3  1  0
  3  4  2  0
  3  5  1  0
  5 19  2  0
  5  6  1  0
  6  7  2  0
  6 23  1  0
  7  8  1  0
  8 18  1  0
  8  9  1  0
  9 10  2  0
 10 11  1  0
 10 17  1  0
 11 16  1  0
 11 12  2  0
 12 13  1  0
 12 24  1  0
 13 14  2  0
 13 25  1  0
 14 15  1  0
 14 26  1  0
 15 16  2  0
 15 27  1  0
 17 18  2  0
 18 19  1  0
 19 28  1  0
M  CHG  1  10   1
M  END
>  <i_m_ct_stereo_status>  (269) 
1

>  <s_m_source_file>  (269) 
/var/tmp/pbs.5076255.sched01/tmpyqr7shjn/887d44c5qo.sdf

>  <i_m_source_file_index>  (269) 
26

>  <i_lp_mmshare_version>  (269) 
48012

>  <i_f3d_flags>  (269) 
0

>  <s_epik_input>  (269) 
W0NIM11PQyg9TyljKFtjSF1uMSlbY0hdYyhuMTIpbltuK10objIpLWMzW2NIXVtjSF1bY0hdW2NIXW4z

>  <s_epik_cmdline>  (269) 
J2VwaWtfcHl0aG9uJywgJy1waHQnLCAnMi4wJywgJy1waCcsICc3LjAnLCAnLXRuJywgJzgnLCAnLW1hJywgJzIwMCcsICctaW1hZScsICc8aW5maWxlLm1hZT4nLCAnLW9tYWUnLCAnPG91dGZpbGUubWFlPic=

>  <r_lp_tautomer_probability>  (269) 
1

>  <r_epik_Ionization_Penalty>  (269) 
1.03144e-08

>  <r_epik_Ionization_Penalty_Charging>  (269) 
0

>  <r_epik_Ionization_Penalty_Neutral>  (269) 
1.03144e-08

>  <r_epik_State_Penalty>  (269) 
-0

>  <r_epik_Charging_Adjusted_Penalty>  (269) 
0

>  <i_epik_Tot_Q>  (269) 
1

>  <i_epik_Tot_abs_Q>  (269) 
1

>  <s_epik_Chemistry_Notes>  (269) 
This compound has an ester and may undergo hydrolysis at high or low pH.

>  <s_lp_Force_Field>  (269) 
OPLS3e

>  <r_lp_Energy>  (269) 
31.122

>  <b_lp_Chiralities_Consistent>  (269) 
1

>  <s_lp_Variant>  (269) 
80:0-1

>  <s_i_glide_gridfile>  (269) 
pfpi4k_grid

>  <i_i_glide_lignum>  (269) 
26

>  <i_i_glide_rotatable_bonds>  (269) 
3

>  <r_i_docking_score>  (269) 
-3.92589

>  <r_i_glide_ligand_efficiency>  (269) 
-0.206626

>  <r_i_glide_ligand_efficiency_sa>  (269) 
-0.551361

>  <r_i_glide_ligand_efficiency_ln>  (269) 
-0.995298

>  <r_i_glide_gscore>  (269) 
-3.92589

>  <r_i_glide_lipo>  (269) 
-0.411037

>  <r_i_glide_hbond>  (269) 
-0.16

>  <r_i_glide_metal>  (269) 
-0

>  <r_i_glide_rewards>  (269) 
-1.9003

>  <r_i_glide_evdw>  (269) 
-27.1437

>  <r_i_glide_ecoul>  (269) 
-3.98827

>  <r_i_glide_erotb>  (269) 
0.533251

>  <r_i_glide_esite>  (269) 
-0.0323843

>  <r_i_glide_emodel>  (269) 
-39.2603

>  <r_i_glide_energy>  (269) 
-31.132

>  <r_i_glide_einternal>  (269) 
0.620547

>  <r_i_glide_intrahb_reward>  (269) 
-0

>  <i_i_glide_confnum>  (269) 
1

>  <i_i_glide_posenum>  (269) 
2

>  <r_i_glide_eff_state_penalty>  (269) 
0

>  <ligand_id>  (269) 
80

>  <original_smiles>  (269) 
COC(=O)c1cnn2n[n+](-c3ccccn3)nc2c1

>  <smiles>  (269) 
[H]c1nc(-[n+]2nc3c([H])c(C(=O)OC([H])([H])[H])c([H])nn3n2)c([H])c([H])c1[H]

$$$$
80:0:1
     RDKit          3D

 28 30  0  0  1  0  0  0  0  0999 V2000
    3.7970   -0.5783   -3.2748 C   0  0  0  0  0  0  0  0  0  0  0  0
    3.6850   -1.7014   -2.4157 O   0  0  0  0  0  0  0  0  0  0  0  0
    4.7277   -2.0824   -1.6540 C   0  0  0  0  0  0  0  0  0  0  0  0
    5.8144   -1.4993   -1.6292 O   0  0  0  0  0  0  0  0  0  0  0  0
    4.4418   -3.3043   -0.8559 C   0  0  0  0  0  0  0  0  0  0  0  0
    5.5065   -4.0584   -0.3128 C   0  0  0  0  0  0  0  0  0  0  0  0
    5.3295   -5.1806    0.4171 N   0  0  0  0  0  0  0  0  0  0  0  0
    4.0791   -5.5768    0.6295 N   0  0  0  0  0  0  0  0  0  0  0  0
    3.7135   -6.6429    1.3143 N   0  0  0  0  0  0  0  0  0  0  0  0
    2.3921   -6.6489    1.2799 N   0  0  0  0  0  0  0  0  0  0  0  0
    1.5551   -7.6310    1.9165 C   0  0  0  0  0  0  0  0  0  0  0  0
    2.1570   -8.8167    2.4029 C   0  0  0  0  0  0  0  0  0  0  0  0
    1.3462   -9.7866    3.0203 C   0  0  0  0  0  0  0  0  0  0  0  0
   -0.0312   -9.5344    3.1353 C   0  0  0  0  0  0  0  0  0  0  0  0
   -0.5458   -8.3317    2.6205 C   0  0  0  0  0  0  0  0  0  0  0  0
    0.2225   -7.3915    2.0276 N   0  0  0  0  0  0  0  0  0  0  0  0
    1.8915   -5.6241    0.5912 N   0  0  0  0  0  0  0  0  0  0  0  0
    2.9435   -4.9216    0.1609 C   0  0  0  0  0  0  0  0  0  0  0  0
    3.1162   -3.7425   -0.6140 C   0  0  0  0  0  0  0  0  0  0  0  0
    2.8554   -0.4158   -3.7988 H   0  0  0  0  0  0  0  0  0  0  0  0
    4.5753   -0.7304   -4.0221 H   0  0  0  0  0  0  0  0  0  0  0  0
    4.0273    0.3300   -2.7193 H   0  0  0  0  0  0  0  0  0  0  0  0
    6.5355   -3.7692   -0.4742 H   0  0  0  0  0  0  0  0  0  0  0  0
    3.2165   -9.0061    2.3063 H   0  0  0  0  0  0  0  0  0  0  0  0
    1.7724  -10.7042    3.4021 H   0  0  0  0  0  0  0  0  0  0  0  0
   -0.6793  -10.2538    3.6120 H   0  0  0  0  0  0  0  0  0  0  0  0
   -1.6011   -8.1123    2.6970 H   0  0  0  0  0  0  0  0  0  0  0  0
    2.2505   -3.2150   -0.9920 H   0  0  0  0  0  0  0  0  0  0  0  0
  1  2  1  0
  1 20  1  0
  1 21  1  0
  1 22  1  0
  2  3  1  0
  3  4  2  0
  3  5  1  0
  5 19  2  0
  5  6  1  0
  6  7  2  0
  6 23  1  0
  7  8  1  0
  8 18  1  0
  8  9  1  0
  9 10  2  0
 10 11  1  0
 10 17  1  0
 11 16  1  0
 11 12  2  0
 12 13  1  0
 12 24  1  0
 13 14  2  0
 13 25  1  0
 14 15  1  0
 14 26  1  0
 15 16  2  0
 15 27  1  0
 17 18  2  0
 18 19  1  0
 19 28  1  0
M  CHG  1  10   1
M  END
>  <i_m_ct_stereo_status>  (270) 
1

>  <s_m_source_file>  (270) 
/var/tmp/pbs.5076255.sched01/tmpyqr7shjn/887d44c5qo.sdf

>  <i_m_source_file_index>  (270) 
26

>  <i_lp_mmshare_version>  (270) 
48012

>  <i_f3d_flags>  (270) 
0

>  <s_epik_input>  (270) 
W0NIM11PQyg9TyljKFtjSF1uMSlbY0hdYyhuMTIpbltuK10objIpLWMzW2NIXVtjSF1bY0hdW2NIXW4z

>  <s_epik_cmdline>  (270) 
J2VwaWtfcHl0aG9uJywgJy1waHQnLCAnMi4wJywgJy1waCcsICc3LjAnLCAnLXRuJywgJzgnLCAnLW1hJywgJzIwMCcsICctaW1hZScsICc8aW5maWxlLm1hZT4nLCAnLW9tYWUnLCAnPG91dGZpbGUubWFlPic=

>  <r_lp_tautomer_probability>  (270) 
1

>  <r_epik_Ionization_Penalty>  (270) 
1.03144e-08

>  <r_epik_Ionization_Penalty_Charging>  (270) 
0

>  <r_epik_Ionization_Penalty_Neutral>  (270) 
1.03144e-08

>  <r_epik_State_Penalty>  (270) 
-0

>  <r_epik_Charging_Adjusted_Penalty>  (270) 
0

>  <i_epik_Tot_Q>  (270) 
1

>  <i_epik_Tot_abs_Q>  (270) 
1

>  <s_epik_Chemistry_Notes>  (270) 
This compound has an ester and may undergo hydrolysis at high or low pH.

>  <s_lp_Force_Field>  (270) 
OPLS3e

>  <r_lp_Energy>  (270) 
31.122

>  <b_lp_Chiralities_Consistent>  (270) 
1

>  <s_lp_Variant>  (270) 
80:0-1

>  <s_i_glide_gridfile>  (270) 
pfpi4k_grid

>  <i_i_glide_lignum>  (270) 
26

>  <i_i_glide_rotatable_bonds>  (270) 
3

>  <r_i_docking_score>  (270) 
-3.88668

>  <r_i_glide_ligand_efficiency>  (270) 
-0.204562

>  <r_i_glide_ligand_efficiency_sa>  (270) 
-0.545854

>  <r_i_glide_ligand_efficiency_ln>  (270) 
-0.985357

>  <r_i_glide_gscore>  (270) 
-3.88668

>  <r_i_glide_lipo>  (270) 
-0.331765

>  <r_i_glide_hbond>  (270) 
-0.145927

>  <r_i_glide_metal>  (270) 
-0

>  <r_i_glide_rewards>  (270) 
-1.73086

>  <r_i_glide_evdw>  (270) 
-27.5713

>  <r_i_glide_ecoul>  (270) 
-4.83549

>  <r_i_glide_erotb>  (270) 
0.533251

>  <r_i_glide_esite>  (270) 
-0.107493

>  <r_i_glide_emodel>  (270) 
-40.3649

>  <r_i_glide_energy>  (270) 
-32.4068

>  <r_i_glide_einternal>  (270) 
0.778974

>  <r_i_glide_intrahb_reward>  (270) 
-0

>  <i_i_glide_confnum>  (270) 
1

>  <i_i_glide_posenum>  (270) 
21

>  <r_i_glide_eff_state_penalty>  (270) 
0

>  <ligand_id>  (270) 
80

>  <original_smiles>  (270) 
COC(=O)c1cnn2n[n+](-c3ccccn3)nc2c1

>  <smiles>  (270) 
[H]c1nc(-[n+]2nc3c([H])c(C(=O)OC([H])([H])[H])c([H])nn3n2)c([H])c([H])c1[H]

$$$$
80:0:2
     RDKit          3D

 28 30  0  0  1  0  0  0  0  0999 V2000
    1.5927   -8.8338    7.1384 C   0  0  0  0  0  0  0  0  0  0  0  0
    1.2776   -7.5009    6.7669 O   0  0  0  0  0  0  0  0  0  0  0  0
    0.3826   -6.7937    7.4813 C   0  0  0  0  0  0  0  0  0  0  0  0
   -0.1828   -7.2147    8.4923 O   0  0  0  0  0  0  0  0  0  0  0  0
    0.1204   -5.4484    6.9003 C   0  0  0  0  0  0  0  0  0  0  0  0
   -0.9960   -4.6943    7.3363 C   0  0  0  0  0  0  0  0  0  0  0  0
   -1.2959   -3.4663    6.8673 N   0  0  0  0  0  0  0  0  0  0  0  0
   -0.4894   -2.9571    5.9381 N   0  0  0  0  0  0  0  0  0  0  0  0
   -0.6263   -1.7825    5.3563 N   0  0  0  0  0  0  0  0  0  0  0  0
    0.3889   -1.6834    4.5104 N   0  0  0  0  0  0  0  0  0  0  0  0
    0.6329   -0.5460    3.6621 C   0  0  0  0  0  0  0  0  0  0  0  0
   -0.2981    0.5214    3.6703 C   0  0  0  0  0  0  0  0  0  0  0  0
   -0.0696    1.6304    2.8348 C   0  0  0  0  0  0  0  0  0  0  0  0
    1.0825    1.6343    2.0335 C   0  0  0  0  0  0  0  0  0  0  0  0
    1.9506    0.5304    2.0777 C   0  0  0  0  0  0  0  0  0  0  0  0
    1.7377   -0.5344    2.8776 N   0  0  0  0  0  0  0  0  0  0  0  0
    1.1739   -2.7577    4.5250 N   0  0  0  0  0  0  0  0  0  0  0  0
    0.6384   -3.5909    5.4221 C   0  0  0  0  0  0  0  0  0  0  0  0
    0.9655   -4.8843    5.9110 C   0  0  0  0  0  0  0  0  0  0  0  0
    2.3390   -9.2402    6.4570 H   0  0  0  0  0  0  0  0  0  0  0  0
    0.7134   -9.4762    7.0908 H   0  0  0  0  0  0  0  0  0  0  0  0
    2.0020   -8.8764    8.1474 H   0  0  0  0  0  0  0  0  0  0  0  0
   -1.6823   -5.0824    8.0753 H   0  0  0  0  0  0  0  0  0  0  0  0
   -1.1815    0.5052    4.2904 H   0  0  0  0  0  0  0  0  0  0  0  0
   -0.7642    2.4587    2.8042 H   0  0  0  0  0  0  0  0  0  0  0  0
    1.2802    2.4689    1.3761 H   0  0  0  0  0  0  0  0  0  0  0  0
    2.8385    0.5044    1.4616 H   0  0  0  0  0  0  0  0  0  0  0  0
    1.8428   -5.3931    5.5338 H   0  0  0  0  0  0  0  0  0  0  0  0
  1  2  1  0
  1 20  1  0
  1 21  1  0
  1 22  1  0
  2  3  1  0
  3  4  2  0
  3  5  1  0
  5 19  2  0
  5  6  1  0
  6  7  2  0
  6 23  1  0
  7  8  1  0
  8 18  1  0
  8  9  1  0
  9 10  2  0
 10 11  1  0
 10 17  1  0
 11 16  1  0
 11 12  2  0
 12 13  1  0
 12 24  1  0
 13 14  2  0
 13 25  1  0
 14 15  1  0
 14 26  1  0
 15 16  2  0
 15 27  1  0
 17 18  2  0
 18 19  1  0
 19 28  1  0
M  CHG  1  10   1
M  END
>  <i_m_ct_stereo_status>  (271) 
1

>  <s_m_source_file>  (271) 
/var/tmp/pbs.5076255.sched01/tmpyqr7shjn/887d44c5qo.sdf

>  <i_m_source_file_index>  (271) 
26

>  <i_lp_mmshare_version>  (271) 
48012

>  <i_f3d_flags>  (271) 
0

>  <s_epik_input>  (271) 
W0NIM11PQyg9TyljKFtjSF1uMSlbY0hdYyhuMTIpbltuK10objIpLWMzW2NIXVtjSF1bY0hdW2NIXW4z

>  <s_epik_cmdline>  (271) 
J2VwaWtfcHl0aG9uJywgJy1waHQnLCAnMi4wJywgJy1waCcsICc3LjAnLCAnLXRuJywgJzgnLCAnLW1hJywgJzIwMCcsICctaW1hZScsICc8aW5maWxlLm1hZT4nLCAnLW9tYWUnLCAnPG91dGZpbGUubWFlPic=

>  <r_lp_tautomer_probability>  (271) 
1

>  <r_epik_Ionization_Penalty>  (271) 
1.03144e-08

>  <r_epik_Ionization_Penalty_Charging>  (271) 
0

>  <r_epik_Ionization_Penalty_Neutral>  (271) 
1.03144e-08

>  <r_epik_State_Penalty>  (271) 
-0

>  <r_epik_Charging_Adjusted_Penalty>  (271) 
0

>  <i_epik_Tot_Q>  (271) 
1

>  <i_epik_Tot_abs_Q>  (271) 
1

>  <s_epik_Chemistry_Notes>  (271) 
This compound has an ester and may undergo hydrolysis at high or low pH.

>  <s_lp_Force_Field>  (271) 
OPLS3e

>  <r_lp_Energy>  (271) 
31.122

>  <b_lp_Chiralities_Consistent>  (271) 
1

>  <s_lp_Variant>  (271) 
80:0-1

>  <s_i_glide_gridfile>  (271) 
pfpi4k_grid

>  <i_i_glide_lignum>  (271) 
26

>  <i_i_glide_rotatable_bonds>  (271) 
3

>  <r_i_docking_score>  (271) 
-3.17202

>  <r_i_glide_ligand_efficiency>  (271) 
-0.166948

>  <r_i_glide_ligand_efficiency_sa>  (271) 
-0.445485

>  <r_i_glide_ligand_efficiency_ln>  (271) 
-0.804175

>  <r_i_glide_gscore>  (271) 
-3.17202

>  <r_i_glide_lipo>  (271) 
-0.0109102

>  <r_i_glide_hbond>  (271) 
-0.225371

>  <r_i_glide_metal>  (271) 
-0

>  <r_i_glide_rewards>  (271) 
-1.65526

>  <r_i_glide_evdw>  (271) 
-18.5767

>  <r_i_glide_ecoul>  (271) 
-5.5754

>  <r_i_glide_erotb>  (271) 
0.533251

>  <r_i_glide_esite>  (271) 
-0.0485811

>  <r_i_glide_emodel>  (271) 
-30.8054

>  <r_i_glide_energy>  (271) 
-24.1521

>  <r_i_glide_einternal>  (271) 
0.351724

>  <r_i_glide_intrahb_reward>  (271) 
-0

>  <i_i_glide_confnum>  (271) 
5

>  <i_i_glide_posenum>  (271) 
16

>  <r_i_glide_eff_state_penalty>  (271) 
0

>  <ligand_id>  (271) 
80

>  <original_smiles>  (271) 
COC(=O)c1cnn2n[n+](-c3ccccn3)nc2c1

>  <smiles>  (271) 
[H]c1nc(-[n+]2nc3c([H])c(C(=O)OC([H])([H])[H])c([H])nn3n2)c([H])c([H])c1[H]

$$$$
82:0:0
     RDKit          3D

 45 50  0  0  1  0  0  0  0  0999 V2000
    1.2817   -4.6716    3.2825 O   0  0  0  0  0  0  0  0  0  0  0  0
    2.5611   -4.9017    2.7249 C   0  0  2  0  0  0  0  0  0  0  0  0
    3.6523   -4.9372    3.9235 C   0  0  0  0  0  0  0  0  0  0  0  0
    5.1600   -4.5071    3.6108 C   0  0  1  0  0  0  0  0  0  0  0  0
    6.0859   -5.4904    4.0322 O   0  0  0  0  0  0  0  0  0  0  0  0
    5.1809   -4.2307    2.1056 C   0  0  2  0  0  0  0  0  0  0  0  0
    4.9439   -5.5753    1.6643 O   0  0  0  0  0  0  0  0  0  0  0  0
    6.2286   -3.9221    0.9464 C   0  0  1  0  0  0  0  0  0  0  0  0
    7.0826   -4.9887    0.5477 O   0  0  0  0  0  0  0  0  0  0  0  0
    5.4351   -3.3640   -0.3605 C   0  0  1  0  0  0  0  0  0  0  0  0
    3.9656   -3.7171   -0.7727 C   0  0  1  0  0  0  0  0  0  0  0  0
    3.7954   -2.9680   -2.1114 C   0  0  0  0  0  0  0  0  0  0  0  0
    4.3850   -1.5772   -1.7834 C   0  0  2  0  0  0  0  0  0  0  0  0
    5.7794   -1.2647   -1.6361 O   0  0  0  0  0  0  0  0  0  0  0  0
    5.1761   -1.8445   -0.4941 C   0  0  2  0  0  0  0  0  0  0  0  0
    4.8161   -1.0382    0.7826 C   0  0  1  0  0  0  0  0  0  0  0  0
    3.4766   -0.8841    1.5296 C   0  0  0  0  0  0  0  0  0  0  0  0
    3.6177   -1.8549    2.7795 C   0  0  1  0  0  0  0  0  0  0  0  0
    2.3887   -1.9470    3.4749 O   0  0  0  0  0  0  0  0  0  0  0  0
    4.0919   -3.1117    2.0077 C   0  0  1  0  0  0  0  0  0  0  0  0
    5.0633   -2.0579    1.6637 O   0  0  0  0  0  0  0  0  0  0  0  0
    2.8289   -3.8915    1.5170 C   0  0  1  0  0  0  0  0  0  0  0  0
    2.9508   -4.5311    0.0677 C   0  0  0  0  0  0  0  0  0  0  0  0
    1.3326   -3.8588    3.7706 H   0  0  0  0  0  0  0  0  0  0  0  0
    2.5082   -5.9036    2.2914 H   0  0  0  0  0  0  0  0  0  0  0  0
    3.3118   -4.2996    4.7401 H   0  0  0  0  0  0  0  0  0  0  0  0
    3.6438   -5.9515    4.3277 H   0  0  0  0  0  0  0  0  0  0  0  0
    5.4057   -3.5827    4.1344 H   0  0  0  0  0  0  0  0  0  0  0  0
    5.9604   -6.2414    3.4637 H   0  0  0  0  0  0  0  0  0  0  0  0
    4.8751   -5.5694    0.7179 H   0  0  0  0  0  0  0  0  0  0  0  0
    6.9578   -3.1841    1.2776 H   0  0  0  0  0  0  0  0  0  0  0  0
    7.7699   -4.6284    0.0075 H   0  0  0  0  0  0  0  0  0  0  0  0
    6.0775   -3.6316   -1.2129 H   0  0  0  0  0  0  0  0  0  0  0  0
    3.3024   -2.9332   -0.3980 H   0  0  0  0  0  0  0  0  0  0  0  0
    4.3338   -3.4362   -2.9248 H   0  0  0  0  0  0  0  0  0  0  0  0
    2.7550   -2.8748   -2.4190 H   0  0  0  0  0  0  0  0  0  0  0  0
    3.7081   -0.7285   -1.8205 H   0  0  0  0  0  0  0  0  0  0  0  0
    5.5412   -0.2438    0.9634 H   0  0  0  0  0  0  0  0  0  0  0  0
    3.3512    0.1489    1.8669 H   0  0  0  0  0  0  0  0  0  0  0  0
    2.6312   -1.1293    0.8662 H   0  0  0  0  0  0  0  0  0  0  0  0
    4.3272   -1.4927    3.5416 H   0  0  0  0  0  0  0  0  0  0  0  0
    1.7000   -1.9577    2.8244 H   0  0  0  0  0  0  0  0  0  0  0  0
    1.9814   -3.2113    1.4263 H   0  0  0  0  0  0  0  0  0  0  0  0
    1.9669   -4.4920   -0.4121 H   0  0  0  0  0  0  0  0  0  0  0  0
    3.1850   -5.5928    0.0681 H   0  0  0  0  0  0  0  0  0  0  0  0
  1  2  1  0
  1 24  1  0
  2 22  1  0
  2  3  1  0
  2 25  1  6
  3  4  1  0
  3 26  1  0
  3 27  1  0
  4  5  1  0
  4  6  1  0
  4 28  1  1
  5 29  1  0
  6 20  1  0
  6  7  1  6
  6  8  1  0
  7 30  1  0
  8  9  1  0
  8 10  1  0
  8 31  1  1
  9 32  1  0
 10 15  1  0
 10 11  1  0
 10 33  1  6
 11 23  1  0
 11 12  1  0
 11 34  1  6
 12 13  1  0
 12 35  1  0
 12 36  1  0
 13 15  1  0
 13 14  1  0
 13 37  1  1
 15 14  1  6
 15 16  1  0
 16 21  1  0
 16 17  1  0
 16 38  1  1
 17 18  1  0
 17 39  1  0
 17 40  1  0
 18 19  1  0
 18 20  1  0
 18 41  1  1
 19 42  1  0
 20 21  1  6
 20 22  1  0
 22 23  1  0
 22 43  1  6
 23 44  1  0
 23 45  1  0
M  END
>  <i_m_ct_stereo_status>  (272) 
1

>  <s_m_source_file>  (272) 
/var/tmp/pbs.5076255.sched01/tmpyqr7shjn/887d44c5qo.sdf

>  <i_m_source_file_index>  (272) 
28

>  <i_lp_mmshare_version>  (272) 
48012

>  <i_f3d_flags>  (272) 
0

>  <s_epik_input>  (272) 
W09IXVtDQEBIXTFbQ0gyXVtDQEBIXShbT0hdKVtDQF0oW09IXSkoW0NASF0yW09IXSlbQ0BAXTMoW0NASF0oW09IXSlbQ0gyXVtDQEhdNE8zKVtDQEhdMVtDSDJdW0NAQEhdKFtDQEBIXTJbQ0BdNDU2KVtDSDJdW0NAQEhdNU82

>  <s_epik_cmdline>  (272) 
J2VwaWtfcHl0aG9uJywgJy1waHQnLCAnMi4wJywgJy1waCcsICc3LjAnLCAnLXRuJywgJzgnLCAnLW1hJywgJzIwMCcsICctaW1hZScsICc8aW5maWxlLm1hZT4nLCAnLW9tYWUnLCAnPG91dGZpbGUubWFlPic=

>  <r_lp_tautomer_probability>  (272) 
1

>  <r_epik_Ionization_Penalty>  (272) 
2.74557e-07

>  <r_epik_Ionization_Penalty_Charging>  (272) 
0

>  <r_epik_Ionization_Penalty_Neutral>  (272) 
2.74557e-07

>  <r_epik_State_Penalty>  (272) 
-0

>  <r_epik_Charging_Adjusted_Penalty>  (272) 
0

>  <i_epik_Tot_Q>  (272) 
0

>  <i_epik_Tot_abs_Q>  (272) 
0

>  <s_lp_Force_Field>  (272) 
OPLS3e

>  <r_lp_Energy>  (272) 
264.666

>  <b_lp_Chiralities_Consistent>  (272) 
1

>  <s_lp_Variant>  (272) 
82:0-1

>  <s_i_glide_gridfile>  (272) 
pfpi4k_grid

>  <i_i_glide_lignum>  (272) 
28

>  <i_i_glide_rotatable_bonds>  (272) 
5

>  <r_i_docking_score>  (272) 
-3.1001

>  <r_i_glide_ligand_efficiency>  (272) 
-0.134787

>  <r_i_glide_ligand_efficiency_sa>  (272) 
-0.383316

>  <r_i_glide_ligand_efficiency_ln>  (272) 
-0.749632

>  <r_i_glide_gscore>  (272) 
-3.1001

>  <r_i_glide_lipo>  (272) 
-0.268254

>  <r_i_glide_hbond>  (272) 
-0.0715247

>  <r_i_glide_metal>  (272) 
-0

>  <r_i_glide_rewards>  (272) 
-1.18403

>  <r_i_glide_evdw>  (272) 
-21.8513

>  <r_i_glide_ecoul>  (272) 
-3.2248

>  <r_i_glide_erotb>  (272) 
0

>  <r_i_glide_esite>  (272) 
0

>  <r_i_glide_emodel>  (272) 
-30.043

>  <r_i_glide_energy>  (272) 
-25.0761

>  <r_i_glide_einternal>  (272) 
0.389464

>  <r_i_glide_intrahb_reward>  (272) 
-0

>  <i_i_glide_confnum>  (272) 
1

>  <i_i_glide_posenum>  (272) 
1

>  <r_i_glide_eff_state_penalty>  (272) 
0

>  <ligand_id>  (272) 
82

>  <original_smiles>  (272) 
OC1CC(O)C2(O)C(O)C3C4CC5OC53C3CC(O)C2(O3)C1C4

>  <smiles>  (272) 
[H]OC1([H])C([H])([H])C([H])(O[H])C2(O[H])C([H])(O[H])C3([H])C4([H])C([H])([H])C5([H])OC53C3([H])OC2(C([H])(O[H])C3([H])[H])C1([H])C4([H])[H]

$$$$
82:0:1
     RDKit          3D

 45 50  0  0  1  0  0  0  0  0999 V2000
    1.2856   -5.0599    3.2409 O   0  0  0  0  0  0  0  0  0  0  0  0
    2.5871   -5.1267    2.7075 C   0  0  2  0  0  0  0  0  0  0  0  0
    3.6619   -5.0922    3.9163 C   0  0  0  0  0  0  0  0  0  0  0  0
    5.1236   -4.5060    3.6411 C   0  0  1  0  0  0  0  0  0  0  0  0
    6.1214   -5.4066    4.0748 O   0  0  0  0  0  0  0  0  0  0  0  0
    5.1437   -4.1809    2.1429 C   0  0  2  0  0  0  0  0  0  0  0  0
    5.0752   -5.5376    1.6559 O   0  0  0  0  0  0  0  0  0  0  0  0
    6.1645   -3.6863    1.0219 C   0  0  1  0  0  0  0  0  0  0  0  0
    7.1422   -4.6274    0.6249 O   0  0  0  0  0  0  0  0  0  0  0  0
    5.3073   -3.1965   -0.2811 C   0  0  1  0  0  0  0  0  0  0  0  0
    3.8789   -3.6863   -0.7186 C   0  0  1  0  0  0  0  0  0  0  0  0
    3.6407   -2.9263   -2.0438 C   0  0  0  0  0  0  0  0  0  0  0  0
    4.0779   -1.4933   -1.6651 C   0  0  2  0  0  0  0  0  0  0  0  0
    5.4381   -1.0500   -1.5082 O   0  0  0  0  0  0  0  0  0  0  0  0
    4.8922   -1.7116   -0.3807 C   0  0  2  0  0  0  0  0  0  0  0  0
    4.4373   -0.9943    0.9159 C   0  0  1  0  0  0  0  0  0  0  0  0
    3.0849   -0.9993    1.6491 C   0  0  0  0  0  0  0  0  0  0  0  0
    3.3192   -1.9817    2.8683 C   0  0  1  0  0  0  0  0  0  0  0  0
    2.1088   -2.1799    3.5718 O   0  0  0  0  0  0  0  0  0  0  0  0
    3.9275   -3.1739    2.0732 C   0  0  1  0  0  0  0  0  0  0  0  0
    4.7760   -2.0075    1.7755 O   0  0  0  0  0  0  0  0  0  0  0  0
    2.7589   -4.0567    1.5482 C   0  0  1  0  0  0  0  0  0  0  0  0
    2.9614   -4.6329    0.0869 C   0  0  0  0  0  0  0  0  0  0  0  0
    1.2063   -5.7101    3.9331 H   0  0  0  0  0  0  0  0  0  0  0  0
    2.6344   -6.1145    2.2430 H   0  0  0  0  0  0  0  0  0  0  0  0
    3.2454   -4.5109    4.7403 H   0  0  0  0  0  0  0  0  0  0  0  0
    3.7500   -6.1091    4.3087 H   0  0  0  0  0  0  0  0  0  0  0  0
    5.2512   -3.5759    4.1953 H   0  0  0  0  0  0  0  0  0  0  0  0
    6.1140   -6.1584    3.4861 H   0  0  0  0  0  0  0  0  0  0  0  0
    4.3645   -5.9825    2.0953 H   0  0  0  0  0  0  0  0  0  0  0  0
    6.7927   -2.8640    1.3764 H   0  0  0  0  0  0  0  0  0  0  0  0
    6.6525   -5.4402    0.4886 H   0  0  0  0  0  0  0  0  0  0  0  0
    5.9759   -3.3743   -1.1253 H   0  0  0  0  0  0  0  0  0  0  0  0
    3.1402   -2.9935   -0.3187 H   0  0  0  0  0  0  0  0  0  0  0  0
    4.2420   -3.3044   -2.8639 H   0  0  0  0  0  0  0  0  0  0  0  0
    2.5947   -2.9179   -2.3616 H   0  0  0  0  0  0  0  0  0  0  0  0
    3.3166   -0.7221   -1.6895 H   0  0  0  0  0  0  0  0  0  0  0  0
    5.0717   -0.1369    1.1271 H   0  0  0  0  0  0  0  0  0  0  0  0
    2.8406    0.0008    2.0080 H   0  0  0  0  0  0  0  0  0  0  0  0
    2.2698   -1.3037    0.9761 H   0  0  0  0  0  0  0  0  0  0  0  0
    3.9934   -1.5625    3.6336 H   0  0  0  0  0  0  0  0  0  0  0  0
    1.4362   -2.4601    2.9599 H   0  0  0  0  0  0  0  0  0  0  0  0
    1.8371   -3.4541    1.4860 H   0  0  0  0  0  0  0  0  0  0  0  0
    1.9886   -4.6863   -0.4088 H   0  0  0  0  0  0  0  0  0  0  0  0
    3.3272   -5.6608    0.0541 H   0  0  0  0  0  0  0  0  0  0  0  0
  1  2  1  0
  1 24  1  0
  2 22  1  0
  2  3  1  0
  2 25  1  6
  3  4  1  0
  3 26  1  0
  3 27  1  0
  4  5  1  0
  4  6  1  0
  4 28  1  1
  5 29  1  0
  6 20  1  0
  6  7  1  6
  6  8  1  0
  7 30  1  0
  8  9  1  0
  8 10  1  0
  8 31  1  1
  9 32  1  0
 10 15  1  0
 10 11  1  0
 10 33  1  6
 11 23  1  0
 11 12  1  0
 11 34  1  6
 12 13  1  0
 12 35  1  0
 12 36  1  0
 13 15  1  0
 13 14  1  0
 13 37  1  1
 15 14  1  6
 15 16  1  0
 16 21  1  0
 16 17  1  0
 16 38  1  1
 17 18  1  0
 17 39  1  0
 17 40  1  0
 18 19  1  0
 18 20  1  0
 18 41  1  1
 19 42  1  0
 20 21  1  6
 20 22  1  0
 22 23  1  0
 22 43  1  6
 23 44  1  0
 23 45  1  0
M  END
>  <i_m_ct_stereo_status>  (273) 
1

>  <s_m_source_file>  (273) 
/var/tmp/pbs.5076255.sched01/tmpyqr7shjn/887d44c5qo.sdf

>  <i_m_source_file_index>  (273) 
28

>  <i_lp_mmshare_version>  (273) 
48012

>  <i_f3d_flags>  (273) 
0

>  <s_epik_input>  (273) 
W09IXVtDQEBIXTFbQ0gyXVtDQEBIXShbT0hdKVtDQF0oW09IXSkoW0NASF0yW09IXSlbQ0BAXTMoW0NASF0oW09IXSlbQ0gyXVtDQEhdNE8zKVtDQEhdMVtDSDJdW0NAQEhdKFtDQEBIXTJbQ0BdNDU2KVtDSDJdW0NAQEhdNU82

>  <s_epik_cmdline>  (273) 
J2VwaWtfcHl0aG9uJywgJy1waHQnLCAnMi4wJywgJy1waCcsICc3LjAnLCAnLXRuJywgJzgnLCAnLW1hJywgJzIwMCcsICctaW1hZScsICc8aW5maWxlLm1hZT4nLCAnLW9tYWUnLCAnPG91dGZpbGUubWFlPic=

>  <r_lp_tautomer_probability>  (273) 
1

>  <r_epik_Ionization_Penalty>  (273) 
2.74557e-07

>  <r_epik_Ionization_Penalty_Charging>  (273) 
0

>  <r_epik_Ionization_Penalty_Neutral>  (273) 
2.74557e-07

>  <r_epik_State_Penalty>  (273) 
-0

>  <r_epik_Charging_Adjusted_Penalty>  (273) 
0

>  <i_epik_Tot_Q>  (273) 
0

>  <i_epik_Tot_abs_Q>  (273) 
0

>  <s_lp_Force_Field>  (273) 
OPLS3e

>  <r_lp_Energy>  (273) 
264.666

>  <b_lp_Chiralities_Consistent>  (273) 
1

>  <s_lp_Variant>  (273) 
82:0-1

>  <s_i_glide_gridfile>  (273) 
pfpi4k_grid

>  <i_i_glide_lignum>  (273) 
28

>  <i_i_glide_rotatable_bonds>  (273) 
5

>  <r_i_docking_score>  (273) 
-2.94456

>  <r_i_glide_ligand_efficiency>  (273) 
-0.128024

>  <r_i_glide_ligand_efficiency_sa>  (273) 
-0.364084

>  <r_i_glide_ligand_efficiency_ln>  (273) 
-0.71202

>  <r_i_glide_gscore>  (273) 
-2.94456

>  <r_i_glide_lipo>  (273) 
-0.21599

>  <r_i_glide_hbond>  (273) 
-0.0119806

>  <r_i_glide_metal>  (273) 
-0

>  <r_i_glide_rewards>  (273) 
-1.18403

>  <r_i_glide_evdw>  (273) 
-22.1688

>  <r_i_glide_ecoul>  (273) 
-2.82742

>  <r_i_glide_erotb>  (273) 
0

>  <r_i_glide_esite>  (273) 
0

>  <r_i_glide_emodel>  (273) 
-29.6009

>  <r_i_glide_energy>  (273) 
-24.9962

>  <r_i_glide_einternal>  (273) 
0.467587

>  <r_i_glide_intrahb_reward>  (273) 
-0

>  <i_i_glide_confnum>  (273) 
2

>  <i_i_glide_posenum>  (273) 
7

>  <r_i_glide_eff_state_penalty>  (273) 
0

>  <ligand_id>  (273) 
82

>  <original_smiles>  (273) 
OC1CC(O)C2(O)C(O)C3C4CC5OC53C3CC(O)C2(O3)C1C4

>  <smiles>  (273) 
[H]OC1([H])C([H])([H])C([H])(O[H])C2(O[H])C([H])(O[H])C3([H])C4([H])C([H])([H])C5([H])OC53C3([H])OC2(C([H])(O[H])C3([H])[H])C1([H])C4([H])[H]

$$$$
82:0:2
     RDKit          3D

 45 50  0  0  1  0  0  0  0  0999 V2000
    1.2758   -5.1748    3.2018 O   0  0  0  0  0  0  0  0  0  0  0  0
    2.5862   -5.1933    2.6679 C   0  0  2  0  0  0  0  0  0  0  0  0
    3.6752   -5.1760    3.8694 C   0  0  0  0  0  0  0  0  0  0  0  0
    5.1345   -4.5813    3.5747 C   0  0  1  0  0  0  0  0  0  0  0  0
    6.1622   -5.4886    3.9387 O   0  0  0  0  0  0  0  0  0  0  0  0
    5.1247   -4.2258    2.0890 C   0  0  2  0  0  0  0  0  0  0  0  0
    5.0243   -5.5634    1.5849 O   0  0  0  0  0  0  0  0  0  0  0  0
    6.1339   -3.7625    0.9493 C   0  0  1  0  0  0  0  0  0  0  0  0
    7.1090   -4.7152    0.5391 O   0  0  0  0  0  0  0  0  0  0  0  0
    5.2920   -3.2280   -0.3339 C   0  0  1  0  0  0  0  0  0  0  0  0
    3.8592   -3.7042   -0.7625 C   0  0  1  0  0  0  0  0  0  0  0  0
    3.6161   -2.9164   -2.0666 C   0  0  0  0  0  0  0  0  0  0  0  0
    4.0620   -1.4944   -1.6684 C   0  0  2  0  0  0  0  0  0  0  0  0
    5.4243   -1.0526   -1.5291 O   0  0  0  0  0  0  0  0  0  0  0  0
    4.8901   -1.7358   -0.4014 C   0  0  2  0  0  0  0  0  0  0  0  0
    4.4569   -1.0352    0.9160 C   0  0  1  0  0  0  0  0  0  0  0  0
    3.1052   -1.0388    1.6583 C   0  0  0  0  0  0  0  0  0  0  0  0
    3.3458   -2.0365    2.8630 C   0  0  1  0  0  0  0  0  0  0  0  0
    2.1308   -2.2571    3.5489 O   0  0  0  0  0  0  0  0  0  0  0  0
    3.9268   -3.2211    2.0461 C   0  0  1  0  0  0  0  0  0  0  0  0
    4.7924   -2.0705    1.7502 O   0  0  0  0  0  0  0  0  0  0  0  0
    2.7410   -4.0981    1.5211 C   0  0  1  0  0  0  0  0  0  0  0  0
    2.9283   -4.6484    0.0433 C   0  0  0  0  0  0  0  0  0  0  0  0
    1.2428   -5.7882    3.9189 H   0  0  0  0  0  0  0  0  0  0  0  0
    2.6472   -6.1696    2.1832 H   0  0  0  0  0  0  0  0  0  0  0  0
    3.2661   -4.6077    4.7060 H   0  0  0  0  0  0  0  0  0  0  0  0
    3.7685   -6.2032    4.2304 H   0  0  0  0  0  0  0  0  0  0  0  0
    5.2837   -3.6678    4.1515 H   0  0  0  0  0  0  0  0  0  0  0  0
    6.0616   -6.2462    3.3811 H   0  0  0  0  0  0  0  0  0  0  0  0
    4.9230   -5.5213    0.6454 H   0  0  0  0  0  0  0  0  0  0  0  0
    6.7867   -2.9750    1.3206 H   0  0  0  0  0  0  0  0  0  0  0  0
    7.5780   -4.9932    1.3121 H   0  0  0  0  0  0  0  0  0  0  0  0
    5.9662   -3.4069   -1.1847 H   0  0  0  0  0  0  0  0  0  0  0  0
    3.1305   -3.0111   -0.3413 H   0  0  0  0  0  0  0  0  0  0  0  0
    4.2050   -3.2957   -2.8958 H   0  0  0  0  0  0  0  0  0  0  0  0
    2.5766   -2.9123   -2.3736 H   0  0  0  0  0  0  0  0  0  0  0  0
    3.3129   -0.7052   -1.6741 H   0  0  0  0  0  0  0  0  0  0  0  0
    5.0989   -0.1859    1.1335 H   0  0  0  0  0  0  0  0  0  0  0  0
    2.8786   -0.0361    2.0308 H   0  0  0  0  0  0  0  0  0  0  0  0
    2.2879   -1.3482    0.9918 H   0  0  0  0  0  0  0  0  0  0  0  0
    4.0172   -1.6416    3.6432 H   0  0  0  0  0  0  0  0  0  0  0  0
    1.8404   -1.4339    3.9057 H   0  0  0  0  0  0  0  0  0  0  0  0
    1.8271   -3.5050    1.4782 H   0  0  0  0  0  0  0  0  0  0  0  0
    1.9486   -4.6827   -0.4435 H   0  0  0  0  0  0  0  0  0  0  0  0
    3.2660   -5.6812   -0.0107 H   0  0  0  0  0  0  0  0  0  0  0  0
  1  2  1  0
  1 24  1  0
  2 22  1  0
  2  3  1  0
  2 25  1  6
  3  4  1  0
  3 26  1  0
  3 27  1  0
  4  5  1  0
  4  6  1  0
  4 28  1  1
  5 29  1  0
  6 20  1  0
  6  7  1  6
  6  8  1  0
  7 30  1  0
  8  9  1  0
  8 10  1  0
  8 31  1  1
  9 32  1  0
 10 15  1  0
 10 11  1  0
 10 33  1  6
 11 23  1  0
 11 12  1  0
 11 34  1  6
 12 13  1  0
 12 35  1  0
 12 36  1  0
 13 15  1  0
 13 14  1  0
 13 37  1  1
 15 14  1  6
 15 16  1  0
 16 21  1  0
 16 17  1  0
 16 38  1  1
 17 18  1  0
 17 39  1  0
 17 40  1  0
 18 19  1  0
 18 20  1  0
 18 41  1  1
 19 42  1  0
 20 21  1  6
 20 22  1  0
 22 23  1  0
 22 43  1  6
 23 44  1  0
 23 45  1  0
M  END
>  <i_m_ct_stereo_status>  (274) 
1

>  <s_m_source_file>  (274) 
/var/tmp/pbs.5076255.sched01/tmpyqr7shjn/887d44c5qo.sdf

>  <i_m_source_file_index>  (274) 
28

>  <i_lp_mmshare_version>  (274) 
48012

>  <i_f3d_flags>  (274) 
0

>  <s_epik_input>  (274) 
W09IXVtDQEBIXTFbQ0gyXVtDQEBIXShbT0hdKVtDQF0oW09IXSkoW0NASF0yW09IXSlbQ0BAXTMoW0NASF0oW09IXSlbQ0gyXVtDQEhdNE8zKVtDQEhdMVtDSDJdW0NAQEhdKFtDQEBIXTJbQ0BdNDU2KVtDSDJdW0NAQEhdNU82

>  <s_epik_cmdline>  (274) 
J2VwaWtfcHl0aG9uJywgJy1waHQnLCAnMi4wJywgJy1waCcsICc3LjAnLCAnLXRuJywgJzgnLCAnLW1hJywgJzIwMCcsICctaW1hZScsICc8aW5maWxlLm1hZT4nLCAnLW9tYWUnLCAnPG91dGZpbGUubWFlPic=

>  <r_lp_tautomer_probability>  (274) 
1

>  <r_epik_Ionization_Penalty>  (274) 
2.74557e-07

>  <r_epik_Ionization_Penalty_Charging>  (274) 
0

>  <r_epik_Ionization_Penalty_Neutral>  (274) 
2.74557e-07

>  <r_epik_State_Penalty>  (274) 
-0

>  <r_epik_Charging_Adjusted_Penalty>  (274) 
0

>  <i_epik_Tot_Q>  (274) 
0

>  <i_epik_Tot_abs_Q>  (274) 
0

>  <s_lp_Force_Field>  (274) 
OPLS3e

>  <r_lp_Energy>  (274) 
264.666

>  <b_lp_Chiralities_Consistent>  (274) 
1

>  <s_lp_Variant>  (274) 
82:0-1

>  <s_i_glide_gridfile>  (274) 
pfpi4k_grid

>  <i_i_glide_lignum>  (274) 
28

>  <i_i_glide_rotatable_bonds>  (274) 
5

>  <r_i_docking_score>  (274) 
-2.75929

>  <r_i_glide_ligand_efficiency>  (274) 
-0.119969

>  <r_i_glide_ligand_efficiency_sa>  (274) 
-0.341176

>  <r_i_glide_ligand_efficiency_ln>  (274) 
-0.66722

>  <r_i_glide_gscore>  (274) 
-2.75929

>  <r_i_glide_lipo>  (274) 
-0.213413

>  <r_i_glide_hbond>  (274) 
-0.0101388

>  <r_i_glide_metal>  (274) 
-0

>  <r_i_glide_rewards>  (274) 
-1.18403

>  <r_i_glide_evdw>  (274) 
-22.1188

>  <r_i_glide_ecoul>  (274) 
-1.63838

>  <r_i_glide_erotb>  (274) 
0

>  <r_i_glide_esite>  (274) 
0

>  <r_i_glide_emodel>  (274) 
-27.8155

>  <r_i_glide_energy>  (274) 
-23.7572

>  <r_i_glide_einternal>  (274) 
1.06391

>  <r_i_glide_intrahb_reward>  (274) 
-0

>  <i_i_glide_confnum>  (274) 
1

>  <i_i_glide_posenum>  (274) 
6

>  <r_i_glide_eff_state_penalty>  (274) 
0

>  <ligand_id>  (274) 
82

>  <original_smiles>  (274) 
OC1CC(O)C2(O)C(O)C3C4CC5OC53C3CC(O)C2(O3)C1C4

>  <smiles>  (274) 
[H]OC1([H])C([H])([H])C([H])(O[H])C2(O[H])C([H])(O[H])C3([H])C4([H])C([H])([H])C5([H])OC53C3([H])OC2(C([H])(O[H])C3([H])[H])C1([H])C4([H])[H]

$$$$
83:0:0
     RDKit          3D

 39 41  0  0  1  0  0  0  0  0999 V2000
    3.9718   -1.4449   -3.7468 C   0  0  0  0  0  0  0  0  0  0  0  0
    4.2636   -2.4919   -2.6414 C   0  0  0  0  0  0  0  0  0  0  0  0
    4.6521   -3.8327   -3.3034 C   0  0  0  0  0  0  0  0  0  0  0  0
    5.4326   -2.0301   -1.8088 C   0  0  0  0  0  0  0  0  0  0  0  0
    5.5058   -2.1263   -0.4784 C   0  0  0  0  0  0  0  0  0  0  0  0
    6.6199   -1.6300    0.1578 O   0  0  0  0  0  0  0  0  0  0  0  0
    6.4972   -1.1960    1.4612 C   0  0  0  0  0  0  0  0  0  0  0  0
    5.3636   -1.2235    2.1752 C   0  0  0  0  0  0  0  0  0  0  0  0
    5.3151   -0.5448    3.5389 C   0  0  0  0  0  0  0  0  0  0  0  0
    4.5365   -1.3909    4.5392 C   0  0  0  0  0  0  0  0  0  0  0  0
    4.9259   -1.5299    5.6989 O   0  0  0  0  0  0  0  0  0  0  0  0
    3.2165   -1.9731    4.0719 C   0  0  0  0  0  0  0  0  0  0  0  0
    3.4036   -2.7147    2.7341 C   0  0  0  0  0  0  0  0  0  0  0  0
    4.0893   -1.8586    1.6406 C   0  0  1  0  0  0  0  0  0  0  0  0
    3.1666   -0.7002    1.2072 C   0  0  0  0  0  0  0  0  0  0  0  0
    4.4601   -2.7612    0.4305 C   0  0  1  0  0  0  0  0  0  0  0  0
    3.2881   -3.3137   -0.4179 C   0  0  0  0  0  0  0  0  0  0  0  0
    2.5833   -4.2407   -0.0085 O   0  0  0  0  0  0  0  0  0  0  0  0
    3.0087   -2.6490   -1.7653 C   0  0  0  0  0  0  0  0  0  0  0  0
    3.1214   -1.7365   -4.3594 H   0  0  0  0  0  0  0  0  0  0  0  0
    4.8269   -1.2893   -4.3961 H   0  0  0  0  0  0  0  0  0  0  0  0
    3.7308   -0.4763   -3.2965 H   0  0  0  0  0  0  0  0  0  0  0  0
    3.8355   -4.2437   -3.8982 H   0  0  0  0  0  0  0  0  0  0  0  0
    4.8965   -4.5646   -2.5291 H   0  0  0  0  0  0  0  0  0  0  0  0
    5.5343   -3.7428   -3.9277 H   0  0  0  0  0  0  0  0  0  0  0  0
    6.2417   -1.5443   -2.3098 H   0  0  0  0  0  0  0  0  0  0  0  0
    7.4010   -0.7120    1.7923 H   0  0  0  0  0  0  0  0  0  0  0  0
    6.3169   -0.3656    3.9089 H   0  0  0  0  0  0  0  0  0  0  0  0
    4.8224    0.4224    3.4473 H   0  0  0  0  0  0  0  0  0  0  0  0
    2.8132   -2.6422    4.8286 H   0  0  0  0  0  0  0  0  0  0  0  0
    2.5010   -1.1569    3.9601 H   0  0  0  0  0  0  0  0  0  0  0  0
    4.0060   -3.5982    2.9298 H   0  0  0  0  0  0  0  0  0  0  0  0
    2.4340   -3.0796    2.3953 H   0  0  0  0  0  0  0  0  0  0  0  0
    2.1875   -1.0698    0.9005 H   0  0  0  0  0  0  0  0  0  0  0  0
    3.5956   -0.1503    0.3727 H   0  0  0  0  0  0  0  0  0  0  0  0
    2.9931    0.0201    2.0092 H   0  0  0  0  0  0  0  0  0  0  0  0
    4.9516   -3.6534    0.8250 H   0  0  0  0  0  0  0  0  0  0  0  0
    2.6176   -1.6511   -1.5424 H   0  0  0  0  0  0  0  0  0  0  0  0
    2.2194   -3.1723   -2.3037 H   0  0  0  0  0  0  0  0  0  0  0  0
  1  2  1  0
  1 20  1  0
  1 21  1  0
  1 22  1  0
  2 19  1  0
  2  3  1  0
  2  4  1  0
  3 23  1  0
  3 24  1  0
  3 25  1  0
  4  5  2  0
  4 26  1  0
  5 16  1  0
  5  6  1  0
  6  7  1  0
  7  8  2  0
  7 27  1  0
  8 14  1  0
  8  9  1  0
  9 10  1  0
  9 28  1  0
  9 29  1  0
 10 11  2  0
 10 12  1  0
 12 13  1  0
 12 30  1  0
 12 31  1  0
 13 14  1  0
 13 32  1  0
 13 33  1  0
 14 15  1  6
 14 16  1  0
 15 34  1  0
 15 35  1  0
 15 36  1  0
 16 17  1  0
 16 37  1  1
 17 18  2  0
 17 19  1  0
 19 38  1  0
 19 39  1  0
M  END
>  <i_m_ct_stereo_status>  (275) 
1

>  <s_m_source_file>  (275) 
/var/tmp/pbs.5076255.sched01/tmpyqr7shjn/887d44c5qo.sdf

>  <i_m_source_file_index>  (275) 
29

>  <i_lp_mmshare_version>  (275) 
48012

>  <i_f3d_flags>  (275) 
0

>  <s_epik_input>  (275) 
W0NIM11DKFtDSDNdKShbQ0hdPTEpW0NIMl1DKD1PKVtDQEhdMkMxT1tDSF09QyhbQ0BAXTIzW0NIM10pW0NIMl1DKD1PKVtDSDJdW0NIMl0z

>  <s_epik_cmdline>  (275) 
J2VwaWtfcHl0aG9uJywgJy1waHQnLCAnMi4wJywgJy1waCcsICc3LjAnLCAnLXRuJywgJzgnLCAnLW1hJywgJzIwMCcsICctaW1hZScsICc8aW5maWxlLm1hZT4nLCAnLW9tYWUnLCAnPG91dGZpbGUubWFlPic=

>  <r_lp_tautomer_probability>  (275) 
1

>  <r_epik_Ionization_Penalty>  (275) 
4.01117e-11

>  <r_epik_Ionization_Penalty_Charging>  (275) 
0

>  <r_epik_Ionization_Penalty_Neutral>  (275) 
4.01117e-11

>  <r_epik_State_Penalty>  (275) 
-0

>  <r_epik_Charging_Adjusted_Penalty>  (275) 
0

>  <i_epik_Tot_Q>  (275) 
0

>  <i_epik_Tot_abs_Q>  (275) 
0

>  <s_lp_Force_Field>  (275) 
OPLS3e

>  <r_lp_Energy>  (275) 
18.5224

>  <b_lp_Chiralities_Consistent>  (275) 
1

>  <s_lp_Variant>  (275) 
83:0-1

>  <s_i_glide_gridfile>  (275) 
pfpi4k_grid

>  <i_i_glide_lignum>  (275) 
29

>  <i_i_glide_rotatable_bonds>  (275) 
0

>  <r_i_docking_score>  (275) 
-3.71905

>  <r_i_glide_ligand_efficiency>  (275) 
-0.19574

>  <r_i_glide_ligand_efficiency_sa>  (275) 
-0.522312

>  <r_i_glide_ligand_efficiency_ln>  (275) 
-0.942859

>  <r_i_glide_gscore>  (275) 
-3.71905

>  <r_i_glide_lipo>  (275) 
-0.618607

>  <r_i_glide_hbond>  (275) 
-0.0129029

>  <r_i_glide_metal>  (275) 
-0

>  <r_i_glide_rewards>  (275) 
-1.72325

>  <r_i_glide_evdw>  (275) 
-22.4431

>  <r_i_glide_ecoul>  (275) 
-1.61424

>  <r_i_glide_erotb>  (275) 
0

>  <r_i_glide_esite>  (275) 
0

>  <r_i_glide_emodel>  (275) 
-29.5417

>  <r_i_glide_energy>  (275) 
-24.0574

>  <r_i_glide_einternal>  (275) 
0

>  <r_i_glide_intrahb_reward>  (275) 
-0

>  <i_i_glide_confnum>  (275) 
2

>  <i_i_glide_posenum>  (275) 
30

>  <r_i_glide_eff_state_penalty>  (275) 
0

>  <ligand_id>  (275) 
83

>  <original_smiles>  (275) 
CC1(C)C=C2OC=C3CC(=O)CCC3(C)C2C(=O)C1

>  <smiles>  (275) 
[H]C1=C2C([H])([H])C(=O)C([H])([H])C([H])([H])C2(C([H])([H])[H])C2([H])C(=O)C([H])([H])C(C([H])([H])[H])(C([H])([H])[H])C([H])=C2O1

$$$$
83:0:1
     RDKit          3D

 39 41  0  0  1  0  0  0  0  0999 V2000
    3.1437   -3.0065    5.1909 C   0  0  0  0  0  0  0  0  0  0  0  0
    4.1201   -3.4870    4.0965 C   0  0  0  0  0  0  0  0  0  0  0  0
    5.1968   -4.3847    4.7384 C   0  0  0  0  0  0  0  0  0  0  0  0
    3.3538   -4.3237    3.1076 C   0  0  0  0  0  0  0  0  0  0  0  0
    3.5257   -4.2635    1.7681 C   0  0  0  0  0  0  0  0  0  0  0  0
    2.7347   -5.0312    0.9622 O   0  0  0  0  0  0  0  0  0  0  0  0
    2.5022   -4.5900   -0.3276 C   0  0  0  0  0  0  0  0  0  0  0  0
    2.9831   -3.4578   -0.8681 C   0  0  0  0  0  0  0  0  0  0  0  0
    2.5405   -3.0431   -2.2560 C   0  0  0  0  0  0  0  0  0  0  0  0
    3.6684   -2.4585   -3.0870 C   0  0  0  0  0  0  0  0  0  0  0  0
    3.7959   -2.6960   -4.2863 O   0  0  0  0  0  0  0  0  0  0  0  0
    4.5855   -1.4781   -2.3709 C   0  0  0  0  0  0  0  0  0  0  0  0
    5.1001   -2.0814   -1.0646 C   0  0  0  0  0  0  0  0  0  0  0  0
    3.9754   -2.5646   -0.1068 C   0  0  1  0  0  0  0  0  0  0  0  0
    3.2145   -1.3511    0.4604 C   0  0  0  0  0  0  0  0  0  0  0  0
    4.5618   -3.4028    1.0469 C   0  0  1  0  0  0  0  0  0  0  0  0
    5.3860   -2.5764    2.0333 C   0  0  0  0  0  0  0  0  0  0  0  0
    6.4377   -2.0796    1.6642 O   0  0  0  0  0  0  0  0  0  0  0  0
    4.7548   -2.2567    3.4046 C   0  0  0  0  0  0  0  0  0  0  0  0
    3.6426   -2.3974    5.9464 H   0  0  0  0  0  0  0  0  0  0  0  0
    2.6584   -3.8417    5.7021 H   0  0  0  0  0  0  0  0  0  0  0  0
    2.3497   -2.4001    4.7537 H   0  0  0  0  0  0  0  0  0  0  0  0
    5.8040   -3.8465    5.4731 H   0  0  0  0  0  0  0  0  0  0  0  0
    5.8706   -4.7744    3.9708 H   0  0  0  0  0  0  0  0  0  0  0  0
    4.7510   -5.2540    5.2330 H   0  0  0  0  0  0  0  0  0  0  0  0
    2.5949   -4.9719    3.5071 H   0  0  0  0  0  0  0  0  0  0  0  0
    1.8074   -5.2399   -0.8400 H   0  0  0  0  0  0  0  0  0  0  0  0
    2.0555   -3.8747   -2.7817 H   0  0  0  0  0  0  0  0  0  0  0  0
    1.7939   -2.2702   -2.1582 H   0  0  0  0  0  0  0  0  0  0  0  0
    5.4163   -1.2400   -3.0348 H   0  0  0  0  0  0  0  0  0  0  0  0
    4.0415   -0.5526   -2.1932 H   0  0  0  0  0  0  0  0  0  0  0  0
    5.7478   -2.9189   -1.3152 H   0  0  0  0  0  0  0  0  0  0  0  0
    5.7370   -1.3412   -0.5774 H   0  0  0  0  0  0  0  0  0  0  0  0
    3.8517   -0.6021    0.9404 H   0  0  0  0  0  0  0  0  0  0  0  0
    2.4357   -1.6701    1.1609 H   0  0  0  0  0  0  0  0  0  0  0  0
    2.7077   -0.8250   -0.3430 H   0  0  0  0  0  0  0  0  0  0  0  0
    5.2724   -4.1105    0.6169 H   0  0  0  0  0  0  0  0  0  0  0  0
    3.9754   -1.5170    3.2306 H   0  0  0  0  0  0  0  0  0  0  0  0
    5.4694   -1.7780    4.0711 H   0  0  0  0  0  0  0  0  0  0  0  0
  1  2  1  0
  1 20  1  0
  1 21  1  0
  1 22  1  0
  2 19  1  0
  2  3  1  0
  2  4  1  0
  3 23  1  0
  3 24  1  0
  3 25  1  0
  4  5  2  0
  4 26  1  0
  5 16  1  0
  5  6  1  0
  6  7  1  0
  7  8  2  0
  7 27  1  0
  8 14  1  0
  8  9  1  0
  9 10  1  0
  9 28  1  0
  9 29  1  0
 10 11  2  0
 10 12  1  0
 12 13  1  0
 12 30  1  0
 12 31  1  0
 13 14  1  0
 13 32  1  0
 13 33  1  0
 14 15  1  1
 14 16  1  0
 15 34  1  0
 15 35  1  0
 15 36  1  0
 16 17  1  0
 16 37  1  6
 17 18  2  0
 17 19  1  0
 19 38  1  0
 19 39  1  0
M  END
>  <i_m_ct_stereo_status>  (276) 
1

>  <s_m_source_file>  (276) 
/var/tmp/pbs.5076255.sched01/tmpyqr7shjn/887d44c5qo.sdf

>  <i_m_source_file_index>  (276) 
29

>  <i_lp_mmshare_version>  (276) 
48012

>  <i_f3d_flags>  (276) 
0

>  <s_epik_input>  (276) 
W0NIM11DKFtDSDNdKShbQ0hdPTEpW0NIMl1DKD1PKVtDQEhdMkMxT1tDSF09QyhbQ0BAXTIzW0NIM10pW0NIMl1DKD1PKVtDSDJdW0NIMl0z

>  <s_epik_cmdline>  (276) 
J2VwaWtfcHl0aG9uJywgJy1waHQnLCAnMi4wJywgJy1waCcsICc3LjAnLCAnLXRuJywgJzgnLCAnLW1hJywgJzIwMCcsICctaW1hZScsICc8aW5maWxlLm1hZT4nLCAnLW9tYWUnLCAnPG91dGZpbGUubWFlPic=

>  <r_lp_tautomer_probability>  (276) 
1

>  <r_epik_Ionization_Penalty>  (276) 
4.01117e-11

>  <r_epik_Ionization_Penalty_Charging>  (276) 
0

>  <r_epik_Ionization_Penalty_Neutral>  (276) 
4.01117e-11

>  <r_epik_State_Penalty>  (276) 
-0

>  <r_epik_Charging_Adjusted_Penalty>  (276) 
0

>  <i_epik_Tot_Q>  (276) 
0

>  <i_epik_Tot_abs_Q>  (276) 
0

>  <s_lp_Force_Field>  (276) 
OPLS3e

>  <r_lp_Energy>  (276) 
18.5224

>  <b_lp_Chiralities_Consistent>  (276) 
1

>  <s_lp_Variant>  (276) 
83:0-1

>  <s_i_glide_gridfile>  (276) 
pfpi4k_grid

>  <i_i_glide_lignum>  (276) 
29

>  <i_i_glide_rotatable_bonds>  (276) 
0

>  <r_i_docking_score>  (276) 
-3.70164

>  <r_i_glide_ligand_efficiency>  (276) 
-0.194823

>  <r_i_glide_ligand_efficiency_sa>  (276) 
-0.519866

>  <r_i_glide_ligand_efficiency_ln>  (276) 
-0.938445

>  <r_i_glide_gscore>  (276) 
-3.70164

>  <r_i_glide_lipo>  (276) 
-0.12959

>  <r_i_glide_hbond>  (276) 
-0.30925

>  <r_i_glide_metal>  (276) 
-0

>  <r_i_glide_rewards>  (276) 
-1.84258

>  <r_i_glide_evdw>  (276) 
-16.6563

>  <r_i_glide_ecoul>  (276) 
-3.91601

>  <r_i_glide_erotb>  (276) 
0

>  <r_i_glide_esite>  (276) 
0

>  <r_i_glide_emodel>  (276) 
-25.8341

>  <r_i_glide_energy>  (276) 
-20.5723

>  <r_i_glide_einternal>  (276) 
0

>  <r_i_glide_intrahb_reward>  (276) 
-0

>  <i_i_glide_confnum>  (276) 
1

>  <i_i_glide_posenum>  (276) 
2

>  <r_i_glide_eff_state_penalty>  (276) 
0

>  <ligand_id>  (276) 
83

>  <original_smiles>  (276) 
CC1(C)C=C2OC=C3CC(=O)CCC3(C)C2C(=O)C1

>  <smiles>  (276) 
[H]C1=C2C([H])([H])C(=O)C([H])([H])C([H])([H])C2(C([H])([H])[H])C2([H])C(=O)C([H])([H])C(C([H])([H])[H])(C([H])([H])[H])C([H])=C2O1

$$$$
83:0:2
     RDKit          3D

 39 41  0  0  1  0  0  0  0  0999 V2000
    4.5847   -1.0302   -1.8756 C   0  0  0  0  0  0  0  0  0  0  0  0
    4.3530   -2.5447   -1.7591 C   0  0  0  0  0  0  0  0  0  0  0  0
    4.0527   -3.1277   -3.1546 C   0  0  0  0  0  0  0  0  0  0  0  0
    5.6184   -3.1915   -1.2388 C   0  0  0  0  0  0  0  0  0  0  0  0
    5.6476   -4.1694   -0.3190 C   0  0  0  0  0  0  0  0  0  0  0  0
    6.8586   -4.6466    0.1090 O   0  0  0  0  0  0  0  0  0  0  0  0
    6.9644   -5.1977    1.3626 C   0  0  0  0  0  0  0  0  0  0  0  0
    5.9445   -5.3063    2.2336 C   0  0  0  0  0  0  0  0  0  0  0  0
    6.2167   -5.7624    3.6622 C   0  0  0  0  0  0  0  0  0  0  0  0
    5.1377   -6.7057    4.1710 C   0  0  0  0  0  0  0  0  0  0  0  0
    5.4175   -7.7084    4.8277 O   0  0  0  0  0  0  0  0  0  0  0  0
    3.6955   -6.3124    3.8829 C   0  0  0  0  0  0  0  0  0  0  0  0
    3.5102   -5.9734    2.3954 C   0  0  0  0  0  0  0  0  0  0  0  0
    4.5113   -4.9109    1.8602 C   0  0  1  0  0  0  0  0  0  0  0  0
    4.2266   -3.5356    2.5077 C   0  0  0  0  0  0  0  0  0  0  0  0
    4.4158   -4.8314    0.3068 C   0  0  1  0  0  0  0  0  0  0  0  0
    3.1149   -4.2232   -0.2525 C   0  0  0  0  0  0  0  0  0  0  0  0
    2.0522   -4.8490   -0.2566 O   0  0  0  0  0  0  0  0  0  0  0  0
    3.1829   -2.7899   -0.7775 C   0  0  0  0  0  0  0  0  0  0  0  0
    3.6948   -0.5228   -2.2473 H   0  0  0  0  0  0  0  0  0  0  0  0
    5.4103   -0.7942   -2.5479 H   0  0  0  0  0  0  0  0  0  0  0  0
    4.8245   -0.5996   -0.9000 H   0  0  0  0  0  0  0  0  0  0  0  0
    3.1309   -2.7243   -3.5779 H   0  0  0  0  0  0  0  0  0  0  0  0
    3.9455   -4.2125   -3.0927 H   0  0  0  0  0  0  0  0  0  0  0  0
    4.8712   -2.9404   -3.8535 H   0  0  0  0  0  0  0  0  0  0  0  0
    6.5486   -2.8052   -1.6262 H   0  0  0  0  0  0  0  0  0  0  0  0
    7.9909   -5.4386    1.6098 H   0  0  0  0  0  0  0  0  0  0  0  0
    7.1870   -6.2520    3.7149 H   0  0  0  0  0  0  0  0  0  0  0  0
    6.2458   -4.8968    4.3185 H   0  0  0  0  0  0  0  0  0  0  0  0
    3.0305   -7.1210    4.1844 H   0  0  0  0  0  0  0  0  0  0  0  0
    3.4547   -5.4547    4.5073 H   0  0  0  0  0  0  0  0  0  0  0  0
    3.6239   -6.8989    1.8297 H   0  0  0  0  0  0  0  0  0  0  0  0
    2.4808   -5.6538    2.2347 H   0  0  0  0  0  0  0  0  0  0  0  0
    3.1915   -3.2217    2.3665 H   0  0  0  0  0  0  0  0  0  0  0  0
    4.8725   -2.7680    2.0758 H   0  0  0  0  0  0  0  0  0  0  0  0
    4.4174   -3.5416    3.5814 H   0  0  0  0  0  0  0  0  0  0  0  0
    4.4318   -5.8522   -0.0681 H   0  0  0  0  0  0  0  0  0  0  0  0
    3.2915   -2.1381    0.0908 H   0  0  0  0  0  0  0  0  0  0  0  0
    2.2390   -2.5253   -1.2512 H   0  0  0  0  0  0  0  0  0  0  0  0
  1  2  1  0
  1 20  1  0
  1 21  1  0
  1 22  1  0
  2 19  1  0
  2  3  1  0
  2  4  1  0
  3 23  1  0
  3 24  1  0
  3 25  1  0
  4  5  2  0
  4 26  1  0
  5 16  1  0
  5  6  1  0
  6  7  1  0
  7  8  2  0
  7 27  1  0
  8 14  1  0
  8  9  1  0
  9 10  1  0
  9 28  1  0
  9 29  1  0
 10 11  2  0
 10 12  1  0
 12 13  1  0
 12 30  1  0
 12 31  1  0
 13 14  1  0
 13 32  1  0
 13 33  1  0
 14 15  1  1
 14 16  1  0
 15 34  1  0
 15 35  1  0
 15 36  1  0
 16 17  1  0
 16 37  1  6
 17 18  2  0
 17 19  1  0
 19 38  1  0
 19 39  1  0
M  END
>  <i_m_ct_stereo_status>  (277) 
1

>  <s_m_source_file>  (277) 
/var/tmp/pbs.5076255.sched01/tmpyqr7shjn/887d44c5qo.sdf

>  <i_m_source_file_index>  (277) 
29

>  <i_lp_mmshare_version>  (277) 
48012

>  <i_f3d_flags>  (277) 
0

>  <s_epik_input>  (277) 
W0NIM11DKFtDSDNdKShbQ0hdPTEpW0NIMl1DKD1PKVtDQEhdMkMxT1tDSF09QyhbQ0BAXTIzW0NIM10pW0NIMl1DKD1PKVtDSDJdW0NIMl0z

>  <s_epik_cmdline>  (277) 
J2VwaWtfcHl0aG9uJywgJy1waHQnLCAnMi4wJywgJy1waCcsICc3LjAnLCAnLXRuJywgJzgnLCAnLW1hJywgJzIwMCcsICctaW1hZScsICc8aW5maWxlLm1hZT4nLCAnLW9tYWUnLCAnPG91dGZpbGUubWFlPic=

>  <r_lp_tautomer_probability>  (277) 
1

>  <r_epik_Ionization_Penalty>  (277) 
4.01117e-11

>  <r_epik_Ionization_Penalty_Charging>  (277) 
0

>  <r_epik_Ionization_Penalty_Neutral>  (277) 
4.01117e-11

>  <r_epik_State_Penalty>  (277) 
-0

>  <r_epik_Charging_Adjusted_Penalty>  (277) 
0

>  <i_epik_Tot_Q>  (277) 
0

>  <i_epik_Tot_abs_Q>  (277) 
0

>  <s_lp_Force_Field>  (277) 
OPLS3e

>  <r_lp_Energy>  (277) 
18.5224

>  <b_lp_Chiralities_Consistent>  (277) 
1

>  <s_lp_Variant>  (277) 
83:0-1

>  <s_i_glide_gridfile>  (277) 
pfpi4k_grid

>  <i_i_glide_lignum>  (277) 
29

>  <i_i_glide_rotatable_bonds>  (277) 
0

>  <r_i_docking_score>  (277) 
-3.22181

>  <r_i_glide_ligand_efficiency>  (277) 
-0.169569

>  <r_i_glide_ligand_efficiency_sa>  (277) 
-0.452477

>  <r_i_glide_ligand_efficiency_ln>  (277) 
-0.816797

>  <r_i_glide_gscore>  (277) 
-3.22181

>  <r_i_glide_lipo>  (277) 
-0.407283

>  <r_i_glide_hbond>  (277) 
-0.0131706

>  <r_i_glide_metal>  (277) 
-0

>  <r_i_glide_rewards>  (277) 
-1.63413

>  <r_i_glide_evdw>  (277) 
-18.2554

>  <r_i_glide_ecoul>  (277) 
-1.49641

>  <r_i_glide_erotb>  (277) 
0

>  <r_i_glide_esite>  (277) 
-0.0299957

>  <r_i_glide_emodel>  (277) 
-24.5521

>  <r_i_glide_energy>  (277) 
-19.7518

>  <r_i_glide_einternal>  (277) 
0

>  <r_i_glide_intrahb_reward>  (277) 
-0

>  <i_i_glide_confnum>  (277) 
2

>  <i_i_glide_posenum>  (277) 
24

>  <r_i_glide_eff_state_penalty>  (277) 
0

>  <ligand_id>  (277) 
83

>  <original_smiles>  (277) 
CC1(C)C=C2OC=C3CC(=O)CCC3(C)C2C(=O)C1

>  <smiles>  (277) 
[H]C1=C2C([H])([H])C(=O)C([H])([H])C([H])([H])C2(C([H])([H])[H])C2([H])C(=O)C([H])([H])C(C([H])([H])[H])(C([H])([H])[H])C([H])=C2O1

$$$$
85:0:0
     RDKit          3D

 44 48  0  0  1  0  0  0  0  0999 V2000
    2.2293   -3.1010   -2.3712 C   0  0  0  0  0  0  0  0  0  0  0  0
    3.6831   -2.6733   -2.0650 C   0  0  0  0  0  0  0  0  0  0  0  0
    4.2547   -2.1988   -3.4227 C   0  0  0  0  0  0  0  0  0  0  0  0
    3.8511   -1.6941   -0.8796 C   0  0  2  0  0  0  0  0  0  0  0  0
    5.3949   -1.5854   -0.7356 C   0  0  2  0  0  0  0  0  0  0  0  0
    5.8660   -3.0243   -1.0438 C   0  0  0  0  0  0  0  0  0  0  0  0
    4.5334   -3.7339   -1.3454 C   0  0  1  0  0  0  0  0  0  0  0  0
    3.8698   -3.9044    0.0079 C   0  0  2  0  0  0  0  0  0  0  0  0
    4.1016   -5.0884    0.9169 C   0  0  0  0  0  0  0  0  0  0  0  0
    2.8946   -4.9561    0.1589 O   0  0  0  0  0  0  0  0  0  0  0  0
    3.3247   -2.5059    0.3379 C   0  0  1  0  0  0  0  0  0  0  0  0
    3.7299   -1.8947    1.7067 C   0  0  2  0  0  0  0  0  0  0  0  0
    3.2610   -2.7422    2.7376 O   0  0  0  0  0  0  0  0  0  0  0  0
    3.1356   -0.5080    2.0202 C   0  0  0  0  0  0  0  0  0  0  0  0
    4.0124    0.0578    3.1520 C   0  0  1  0  0  0  0  0  0  0  0  0
    3.3797   -0.1375    4.4013 O   0  0  0  0  0  0  0  0  0  0  0  0
    5.3353   -0.7322    3.0985 C   0  0  0  0  0  0  0  0  0  0  0  0
    5.2444   -1.6709    1.8729 C   0  0  2  0  0  0  0  0  0  0  0  0
    5.8537   -1.0011    0.6127 C   0  0  1  0  0  0  0  0  0  0  0  0
    7.2620   -1.0547    0.6506 O   0  0  0  0  0  0  0  0  0  0  0  0
    1.6439   -2.2533   -2.7237 H   0  0  0  0  0  0  0  0  0  0  0  0
    1.6835   -3.5235   -1.5341 H   0  0  0  0  0  0  0  0  0  0  0  0
    2.2065   -3.8539   -3.1581 H   0  0  0  0  0  0  0  0  0  0  0  0
    5.3008   -1.9207   -3.3986 H   0  0  0  0  0  0  0  0  0  0  0  0
    3.7019   -1.3391   -3.7987 H   0  0  0  0  0  0  0  0  0  0  0  0
    4.1703   -2.9898   -4.1670 H   0  0  0  0  0  0  0  0  0  0  0  0
    3.3512   -0.7344   -1.0198 H   0  0  0  0  0  0  0  0  0  0  0  0
    5.7805   -0.9223   -1.5105 H   0  0  0  0  0  0  0  0  0  0  0  0
    6.5450   -3.0502   -1.8960 H   0  0  0  0  0  0  0  0  0  0  0  0
    6.3826   -3.4984   -0.2069 H   0  0  0  0  0  0  0  0  0  0  0  0
    4.6451   -4.6813   -1.8835 H   0  0  0  0  0  0  0  0  0  0  0  0
    4.7895   -5.8484    0.5538 H   0  0  0  0  0  0  0  0  0  0  0  0
    3.9749   -5.0215    1.9919 H   0  0  0  0  0  0  0  0  0  0  0  0
    2.2378   -2.5553    0.3056 H   0  0  0  0  0  0  0  0  0  0  0  0
    3.4560   -2.3285    3.5672 H   0  0  0  0  0  0  0  0  0  0  0  0
    3.2444    0.1446    1.1518 H   0  0  0  0  0  0  0  0  0  0  0  0
    2.0693   -0.5247    2.2497 H   0  0  0  0  0  0  0  0  0  0  0  0
    4.1746    1.1264    3.0206 H   0  0  0  0  0  0  0  0  0  0  0  0
    2.6274    0.4287    4.4306 H   0  0  0  0  0  0  0  0  0  0  0  0
    6.1996   -0.0697    3.0498 H   0  0  0  0  0  0  0  0  0  0  0  0
    5.4496   -1.3239    4.0095 H   0  0  0  0  0  0  0  0  0  0  0  0
    5.7498   -2.6181    2.0719 H   0  0  0  0  0  0  0  0  0  0  0  0
    5.5698    0.0522    0.6083 H   0  0  0  0  0  0  0  0  0  0  0  0
    7.5625   -0.3944    1.2761 H   0  0  0  0  0  0  0  0  0  0  0  0
  1  2  1  0
  1 21  1  0
  1 22  1  0
  1 23  1  0
  2  7  1  0
  2  3  1  0
  2  4  1  0
  3 24  1  0
  3 25  1  0
  3 26  1  0
  4 11  1  0
  4  5  1  0
  4 27  1  6
  5 19  1  0
  5  6  1  0
  5 28  1  6
  6  7  1  0
  6 29  1  0
  6 30  1  0
  7  8  1  0
  7 31  1  6
  8 10  1  6
  8  9  1  0
  8 11  1  0
  9 10  1  0
  9 32  1  0
  9 33  1  0
 11 12  1  0
 11 34  1  1
 12 18  1  0
 12 13  1  1
 12 14  1  0
 13 35  1  0
 14 15  1  0
 14 36  1  0
 14 37  1  0
 15 16  1  0
 15 17  1  0
 15 38  1  6
 16 39  1  0
 17 18  1  0
 17 40  1  0
 17 41  1  0
 18 19  1  0
 18 42  1  1
 19 20  1  0
 19 43  1  6
 20 44  1  0
M  END
>  <i_m_ct_stereo_status>  (278) 
1

>  <s_m_source_file>  (278) 
/var/tmp/pbs.5076255.sched01/tmpyqr7shjn/887d44c5qo.sdf

>  <i_m_source_file_index>  (278) 
32

>  <i_lp_mmshare_version>  (278) 
48012

>  <i_f3d_flags>  (278) 
0

>  <s_epik_input>  (278) 
TzFbQ0gyXVtDQEBdMTJbQ0BIXTNDKFtDSDNdKShbQ0gzXSlbQ0BASF00W0NASF0oW0NIMl0zKVtDQEhdKFtPSF0pW0NAQEhdNVtDQEBdKFtDQEhdMjQpKFtPSF0pW0NIMl1bQ0BASF0oW09IXSlbQ0gyXTU=

>  <s_epik_cmdline>  (278) 
J2VwaWtfcHl0aG9uJywgJy1waHQnLCAnMi4wJywgJy1waCcsICc3LjAnLCAnLXRuJywgJzgnLCAnLW1hJywgJzIwMCcsICctaW1hZScsICc8aW5maWxlLm1hZT4nLCAnLW9tYWUnLCAnPG91dGZpbGUubWFlPic=

>  <r_lp_tautomer_probability>  (278) 
1

>  <r_epik_Ionization_Penalty>  (278) 
3.55308e-06

>  <r_epik_Ionization_Penalty_Charging>  (278) 
0

>  <r_epik_Ionization_Penalty_Neutral>  (278) 
3.55308e-06

>  <r_epik_State_Penalty>  (278) 
-0

>  <r_epik_Charging_Adjusted_Penalty>  (278) 
0

>  <i_epik_Tot_Q>  (278) 
0

>  <i_epik_Tot_abs_Q>  (278) 
0

>  <s_lp_Force_Field>  (278) 
OPLS3e

>  <r_lp_Energy>  (278) 
48.6871

>  <b_lp_Chiralities_Consistent>  (278) 
1

>  <s_lp_Variant>  (278) 
85:0-1

>  <s_i_glide_gridfile>  (278) 
pfpi4k_grid

>  <i_i_glide_lignum>  (278) 
32

>  <i_i_glide_rotatable_bonds>  (278) 
3

>  <r_i_docking_score>  (278) 
-4.35161

>  <r_i_glide_ligand_efficiency>  (278) 
-0.217581

>  <r_i_glide_ligand_efficiency_sa>  (278) 
-0.590605

>  <r_i_glide_ligand_efficiency_ln>  (278) 
-1.08907

>  <r_i_glide_gscore>  (278) 
-4.35161

>  <r_i_glide_lipo>  (278) 
-0.672713

>  <r_i_glide_hbond>  (278) 
-0.323935

>  <r_i_glide_metal>  (278) 
-0

>  <r_i_glide_rewards>  (278) 
-1.49755

>  <r_i_glide_evdw>  (278) 
-24.309

>  <r_i_glide_ecoul>  (278) 
-4.27976

>  <r_i_glide_erotb>  (278) 
0

>  <r_i_glide_esite>  (278) 
0

>  <r_i_glide_emodel>  (278) 
-35.8672

>  <r_i_glide_energy>  (278) 
-28.5888

>  <r_i_glide_einternal>  (278) 
1.04646

>  <r_i_glide_intrahb_reward>  (278) 
-0

>  <i_i_glide_confnum>  (278) 
1

>  <i_i_glide_posenum>  (278) 
8

>  <r_i_glide_eff_state_penalty>  (278) 
0

>  <ligand_id>  (278) 
85

>  <original_smiles>  (278) 
CC1(C)C2C3CC1C1(CO1)C2C1(O)CC(O)CC1C3O

>  <smiles>  (278) 
[H]OC1([H])C([H])([H])C2([H])C([H])(O[H])C3([H])C([H])([H])C4([H])C5(OC5([H])[H])C([H])(C3([H])C4(C([H])([H])[H])C([H])([H])[H])C2(O[H])C1([H])[H]

$$$$
85:0:1
     RDKit          3D

 44 48  0  0  1  0  0  0  0  0999 V2000
    5.0211   -3.4521   -3.0904 C   0  0  0  0  0  0  0  0  0  0  0  0
    4.3900   -2.6269   -1.9400 C   0  0  0  0  0  0  0  0  0  0  0  0
    3.2284   -1.8377   -2.5950 C   0  0  0  0  0  0  0  0  0  0  0  0
    4.0338   -3.4352   -0.6694 C   0  0  2  0  0  0  0  0  0  0  0  0
    3.5879   -2.3314    0.3338 C   0  0  2  0  0  0  0  0  0  0  0  0
    4.5500   -1.1675    0.0099 C   0  0  0  0  0  0  0  0  0  0  0  0
    5.3786   -1.7566   -1.1438 C   0  0  1  0  0  0  0  0  0  0  0  0
    6.3077   -2.7489   -0.4695 C   0  0  2  0  0  0  0  0  0  0  0  0
    7.6494   -2.3840    0.1179 C   0  0  0  0  0  0  0  0  0  0  0  0
    7.5410   -3.0414   -1.1445 O   0  0  0  0  0  0  0  0  0  0  0  0
    5.4105   -3.9713   -0.1807 C   0  0  1  0  0  0  0  0  0  0  0  0
    5.3812   -4.5042    1.2812 C   0  0  2  0  0  0  0  0  0  0  0  0
    6.6837   -4.9305    1.6381 O   0  0  0  0  0  0  0  0  0  0  0  0
    4.4845   -5.7343    1.5277 C   0  0  0  0  0  0  0  0  0  0  0  0
    4.2535   -5.7709    3.0516 C   0  0  1  0  0  0  0  0  0  0  0  0
    5.1330   -6.6943    3.6603 O   0  0  0  0  0  0  0  0  0  0  0  0
    4.5595   -4.3435    3.5585 C   0  0  0  0  0  0  0  0  0  0  0  0
    4.8503   -3.4843    2.3077 C   0  0  2  0  0  0  0  0  0  0  0  0
    3.5549   -2.7953    1.8054 C   0  0  1  0  0  0  0  0  0  0  0  0
    3.2590   -1.6920    2.6366 O   0  0  0  0  0  0  0  0  0  0  0  0
    4.3081   -4.1699   -3.4975 H   0  0  0  0  0  0  0  0  0  0  0  0
    5.9108   -4.0105   -2.8163 H   0  0  0  0  0  0  0  0  0  0  0  0
    5.3237   -2.7981   -3.9054 H   0  0  0  0  0  0  0  0  0  0  0  0
    2.7080   -1.1564   -1.9295 H   0  0  0  0  0  0  0  0  0  0  0  0
    2.4775   -2.5152   -2.9984 H   0  0  0  0  0  0  0  0  0  0  0  0
    3.5922   -1.2276   -3.4207 H   0  0  0  0  0  0  0  0  0  0  0  0
    3.2865   -4.2144   -0.8362 H   0  0  0  0  0  0  0  0  0  0  0  0
    2.5821   -2.0083    0.0800 H   0  0  0  0  0  0  0  0  0  0  0  0
    4.0039   -0.2758   -0.2966 H   0  0  0  0  0  0  0  0  0  0  0  0
    5.1831   -0.8838    0.8528 H   0  0  0  0  0  0  0  0  0  0  0  0
    5.9079   -1.0117   -1.7398 H   0  0  0  0  0  0  0  0  0  0  0  0
    7.9448   -1.3382    0.0745 H   0  0  0  0  0  0  0  0  0  0  0  0
    8.1327   -2.9825    0.8832 H   0  0  0  0  0  0  0  0  0  0  0  0
    5.7315   -4.7881   -0.8218 H   0  0  0  0  0  0  0  0  0  0  0  0
    7.2766   -4.2007    1.5457 H   0  0  0  0  0  0  0  0  0  0  0  0
    3.5158   -5.6009    1.0413 H   0  0  0  0  0  0  0  0  0  0  0  0
    4.9026   -6.6591    1.1266 H   0  0  0  0  0  0  0  0  0  0  0  0
    3.2285   -6.0636    3.2816 H   0  0  0  0  0  0  0  0  0  0  0  0
    6.0152   -6.4708    3.3945 H   0  0  0  0  0  0  0  0  0  0  0  0
    3.7331   -3.9463    4.1521 H   0  0  0  0  0  0  0  0  0  0  0  0
    5.4357   -4.3481    4.2072 H   0  0  0  0  0  0  0  0  0  0  0  0
    5.6018   -2.7225    2.5235 H   0  0  0  0  0  0  0  0  0  0  0  0
    2.7239   -3.4970    1.8969 H   0  0  0  0  0  0  0  0  0  0  0  0
    2.5069   -1.2400    2.2815 H   0  0  0  0  0  0  0  0  0  0  0  0
  1  2  1  0
  1 21  1  0
  1 22  1  0
  1 23  1  0
  2  7  1  0
  2  3  1  0
  2  4  1  0
  3 24  1  0
  3 25  1  0
  3 26  1  0
  4 11  1  0
  4  5  1  0
  4 27  1  6
  5 19  1  0
  5  6  1  0
  5 28  1  6
  6  7  1  0
  6 29  1  0
  6 30  1  0
  7  8  1  0
  7 31  1  6
  8 10  1  6
  8  9  1  0
  8 11  1  0
  9 10  1  0
  9 32  1  0
  9 33  1  0
 11 12  1  0
 11 34  1  6
 12 18  1  0
 12 13  1  1
 12 14  1  0
 13 35  1  0
 14 15  1  0
 14 36  1  0
 14 37  1  0
 15 16  1  0
 15 17  1  0
 15 38  1  6
 16 39  1  0
 17 18  1  0
 17 40  1  0
 17 41  1  0
 18 19  1  0
 18 42  1  1
 19 20  1  0
 19 43  1  6
 20 44  1  0
M  END
>  <i_m_ct_stereo_status>  (279) 
1

>  <s_m_source_file>  (279) 
/var/tmp/pbs.5076255.sched01/tmpyqr7shjn/887d44c5qo.sdf

>  <i_m_source_file_index>  (279) 
32

>  <i_lp_mmshare_version>  (279) 
48012

>  <i_f3d_flags>  (279) 
0

>  <s_epik_input>  (279) 
TzFbQ0gyXVtDQEBdMTJbQ0BIXTNDKFtDSDNdKShbQ0gzXSlbQ0BASF00W0NASF0oW0NIMl0zKVtDQEhdKFtPSF0pW0NAQEhdNVtDQEBdKFtDQEhdMjQpKFtPSF0pW0NIMl1bQ0BASF0oW09IXSlbQ0gyXTU=

>  <s_epik_cmdline>  (279) 
J2VwaWtfcHl0aG9uJywgJy1waHQnLCAnMi4wJywgJy1waCcsICc3LjAnLCAnLXRuJywgJzgnLCAnLW1hJywgJzIwMCcsICctaW1hZScsICc8aW5maWxlLm1hZT4nLCAnLW9tYWUnLCAnPG91dGZpbGUubWFlPic=

>  <r_lp_tautomer_probability>  (279) 
1

>  <r_epik_Ionization_Penalty>  (279) 
3.55308e-06

>  <r_epik_Ionization_Penalty_Charging>  (279) 
0

>  <r_epik_Ionization_Penalty_Neutral>  (279) 
3.55308e-06

>  <r_epik_State_Penalty>  (279) 
-0

>  <r_epik_Charging_Adjusted_Penalty>  (279) 
0

>  <i_epik_Tot_Q>  (279) 
0

>  <i_epik_Tot_abs_Q>  (279) 
0

>  <s_lp_Force_Field>  (279) 
OPLS3e

>  <r_lp_Energy>  (279) 
48.6871

>  <b_lp_Chiralities_Consistent>  (279) 
1

>  <s_lp_Variant>  (279) 
85:0-1

>  <s_i_glide_gridfile>  (279) 
pfpi4k_grid

>  <i_i_glide_lignum>  (279) 
32

>  <i_i_glide_rotatable_bonds>  (279) 
3

>  <r_i_docking_score>  (279) 
-3.8856

>  <r_i_glide_ligand_efficiency>  (279) 
-0.19428

>  <r_i_glide_ligand_efficiency_sa>  (279) 
-0.527357

>  <r_i_glide_ligand_efficiency_ln>  (279) 
-0.972438

>  <r_i_glide_gscore>  (279) 
-3.8856

>  <r_i_glide_lipo>  (279) 
-0.515363

>  <r_i_glide_hbond>  (279) 
0

>  <r_i_glide_metal>  (279) 
-0

>  <r_i_glide_rewards>  (279) 
-1.99755

>  <r_i_glide_evdw>  (279) 
-24.1889

>  <r_i_glide_ecoul>  (279) 
-1.0883

>  <r_i_glide_erotb>  (279) 
0

>  <r_i_glide_esite>  (279) 
0

>  <r_i_glide_emodel>  (279) 
-37.1726

>  <r_i_glide_energy>  (279) 
-25.2772

>  <r_i_glide_einternal>  (279) 
0.410724

>  <r_i_glide_intrahb_reward>  (279) 
-0.5

>  <i_i_glide_confnum>  (279) 
1

>  <i_i_glide_posenum>  (279) 
9

>  <r_i_glide_eff_state_penalty>  (279) 
0

>  <ligand_id>  (279) 
85

>  <original_smiles>  (279) 
CC1(C)C2C3CC1C1(CO1)C2C1(O)CC(O)CC1C3O

>  <smiles>  (279) 
[H]OC1([H])C([H])([H])C2([H])C([H])(O[H])C3([H])C([H])([H])C4([H])C5(OC5([H])[H])C([H])(C3([H])C4(C([H])([H])[H])C([H])([H])[H])C2(O[H])C1([H])[H]

$$$$
85:0:2
     RDKit          3D

 44 48  0  0  1  0  0  0  0  0999 V2000
    5.0136   -3.4465   -2.9868 C   0  0  0  0  0  0  0  0  0  0  0  0
    4.4530   -2.4748   -1.9146 C   0  0  0  0  0  0  0  0  0  0  0  0
    3.5500   -1.4785   -2.6875 C   0  0  0  0  0  0  0  0  0  0  0  0
    3.8207   -3.1579   -0.6801 C   0  0  2  0  0  0  0  0  0  0  0  0
    3.5149   -1.9592    0.2667 C   0  0  2  0  0  0  0  0  0  0  0  0
    4.7211   -1.0247    0.0319 C   0  0  0  0  0  0  0  0  0  0  0  0
    5.5130   -1.7995   -1.0314 C   0  0  1  0  0  0  0  0  0  0  0  0
    6.1582   -2.9327   -0.2605 C   0  0  2  0  0  0  0  0  0  0  0  0
    7.4834   -2.8193    0.4563 C   0  0  0  0  0  0  0  0  0  0  0  0
    7.3693   -3.4748   -0.8048 O   0  0  0  0  0  0  0  0  0  0  0  0
    5.0101   -3.9473   -0.0554 C   0  0  1  0  0  0  0  0  0  0  0  0
    4.7304   -4.4206    1.4016 C   0  0  2  0  0  0  0  0  0  0  0  0
    5.8765   -5.0902    1.8966 O   0  0  0  0  0  0  0  0  0  0  0  0
    3.5795   -5.4343    1.5648 C   0  0  0  0  0  0  0  0  0  0  0  0
    3.1977   -5.3774    3.0571 C   0  0  1  0  0  0  0  0  0  0  0  0
    3.7988   -6.4425    3.7630 O   0  0  0  0  0  0  0  0  0  0  0  0
    3.7408   -4.0302    3.5818 C   0  0  0  0  0  0  0  0  0  0  0  0
    4.3229   -3.2853    2.3610 C   0  0  2  0  0  0  0  0  0  0  0  0
    3.2494   -2.3636    1.7295 C   0  0  1  0  0  0  0  0  0  0  0  0
    3.1059   -1.2003    2.5180 O   0  0  0  0  0  0  0  0  0  0  0  0
    4.2126   -4.0117   -3.4639 H   0  0  0  0  0  0  0  0  0  0  0  0
    5.7376   -4.1705   -2.6237 H   0  0  0  0  0  0  0  0  0  0  0  0
    5.5261   -2.8919   -3.7676 H   0  0  0  0  0  0  0  0  0  0  0  0
    3.1154   -0.6891   -2.0816 H   0  0  0  0  0  0  0  0  0  0  0  0
    2.7213   -1.9986   -3.1650 H   0  0  0  0  0  0  0  0  0  0  0  0
    4.1149   -0.9767   -3.4733 H   0  0  0  0  0  0  0  0  0  0  0  0
    2.9501   -3.7727   -0.9184 H   0  0  0  0  0  0  0  0  0  0  0  0
    2.6192   -1.4455   -0.0767 H   0  0  0  0  0  0  0  0  0  0  0  0
    4.4013   -0.0488   -0.3307 H   0  0  0  0  0  0  0  0  0  0  0  0
    5.3200   -0.8543    0.9294 H   0  0  0  0  0  0  0  0  0  0  0  0
    6.2243   -1.1920   -1.5855 H   0  0  0  0  0  0  0  0  0  0  0  0
    8.0005   -1.8628    0.4203 H   0  0  0  0  0  0  0  0  0  0  0  0
    7.7582   -3.4787    1.2745 H   0  0  0  0  0  0  0  0  0  0  0  0
    5.2232   -4.8290   -0.6574 H   0  0  0  0  0  0  0  0  0  0  0  0
    6.6100   -4.4945    1.8697 H   0  0  0  0  0  0  0  0  0  0  0  0
    2.7124   -5.1177    0.9819 H   0  0  0  0  0  0  0  0  0  0  0  0
    3.8343   -6.4361    1.2144 H   0  0  0  0  0  0  0  0  0  0  0  0
    2.1174   -5.4478    3.1842 H   0  0  0  0  0  0  0  0  0  0  0  0
    4.7327   -6.4042    3.6023 H   0  0  0  0  0  0  0  0  0  0  0  0
    2.9611   -3.4557    4.0861 H   0  0  0  0  0  0  0  0  0  0  0  0
    4.5301   -4.1957    4.3149 H   0  0  0  0  0  0  0  0  0  0  0  0
    5.1905   -2.6863    2.6444 H   0  0  0  0  0  0  0  0  0  0  0  0
    2.2874   -2.8786    1.7413 H   0  0  0  0  0  0  0  0  0  0  0  0
    2.4444   -0.6505    2.1217 H   0  0  0  0  0  0  0  0  0  0  0  0
  1  2  1  0
  1 21  1  0
  1 22  1  0
  1 23  1  0
  2  7  1  0
  2  3  1  0
  2  4  1  0
  3 24  1  0
  3 25  1  0
  3 26  1  0
  4 11  1  0
  4  5  1  0
  4 27  1  6
  5 19  1  0
  5  6  1  0
  5 28  1  6
  6  7  1  0
  6 29  1  0
  6 30  1  0
  7  8  1  0
  7 31  1  6
  8 10  1  6
  8  9  1  0
  8 11  1  0
  9 10  1  0
  9 32  1  0
  9 33  1  0
 11 12  1  0
 11 34  1  6
 12 18  1  0
 12 13  1  1
 12 14  1  0
 13 35  1  0
 14 15  1  0
 14 36  1  0
 14 37  1  0
 15 16  1  0
 15 17  1  0
 15 38  1  6
 16 39  1  0
 17 18  1  0
 17 40  1  0
 17 41  1  0
 18 19  1  0
 18 42  1  1
 19 20  1  0
 19 43  1  6
 20 44  1  0
M  END
>  <i_m_ct_stereo_status>  (280) 
1

>  <s_m_source_file>  (280) 
/var/tmp/pbs.5076255.sched01/tmpyqr7shjn/887d44c5qo.sdf

>  <i_m_source_file_index>  (280) 
32

>  <i_lp_mmshare_version>  (280) 
48012

>  <i_f3d_flags>  (280) 
0

>  <s_epik_input>  (280) 
TzFbQ0gyXVtDQEBdMTJbQ0BIXTNDKFtDSDNdKShbQ0gzXSlbQ0BASF00W0NASF0oW0NIMl0zKVtDQEhdKFtPSF0pW0NAQEhdNVtDQEBdKFtDQEhdMjQpKFtPSF0pW0NIMl1bQ0BASF0oW09IXSlbQ0gyXTU=

>  <s_epik_cmdline>  (280) 
J2VwaWtfcHl0aG9uJywgJy1waHQnLCAnMi4wJywgJy1waCcsICc3LjAnLCAnLXRuJywgJzgnLCAnLW1hJywgJzIwMCcsICctaW1hZScsICc8aW5maWxlLm1hZT4nLCAnLW9tYWUnLCAnPG91dGZpbGUubWFlPic=

>  <r_lp_tautomer_probability>  (280) 
1

>  <r_epik_Ionization_Penalty>  (280) 
3.55308e-06

>  <r_epik_Ionization_Penalty_Charging>  (280) 
0

>  <r_epik_Ionization_Penalty_Neutral>  (280) 
3.55308e-06

>  <r_epik_State_Penalty>  (280) 
-0

>  <r_epik_Charging_Adjusted_Penalty>  (280) 
0

>  <i_epik_Tot_Q>  (280) 
0

>  <i_epik_Tot_abs_Q>  (280) 
0

>  <s_lp_Force_Field>  (280) 
OPLS3e

>  <r_lp_Energy>  (280) 
48.6871

>  <b_lp_Chiralities_Consistent>  (280) 
1

>  <s_lp_Variant>  (280) 
85:0-1

>  <s_i_glide_gridfile>  (280) 
pfpi4k_grid

>  <i_i_glide_lignum>  (280) 
32

>  <i_i_glide_rotatable_bonds>  (280) 
3

>  <r_i_docking_score>  (280) 
-3.84464

>  <r_i_glide_ligand_efficiency>  (280) 
-0.192232

>  <r_i_glide_ligand_efficiency_sa>  (280) 
-0.521799

>  <r_i_glide_ligand_efficiency_ln>  (280) 
-0.962188

>  <r_i_glide_gscore>  (280) 
-3.84464

>  <r_i_glide_lipo>  (280) 
-0.506882

>  <r_i_glide_hbond>  (280) 
0

>  <r_i_glide_metal>  (280) 
-0

>  <r_i_glide_rewards>  (280) 
-1.99755

>  <r_i_glide_evdw>  (280) 
-22.9016

>  <r_i_glide_ecoul>  (280) 
-1.30089

>  <r_i_glide_erotb>  (280) 
0

>  <r_i_glide_esite>  (280) 
0

>  <r_i_glide_emodel>  (280) 
-36.0569

>  <r_i_glide_energy>  (280) 
-24.2025

>  <r_i_glide_einternal>  (280) 
0.345202

>  <r_i_glide_intrahb_reward>  (280) 
-0.5

>  <i_i_glide_confnum>  (280) 
1

>  <i_i_glide_posenum>  (280) 
12

>  <r_i_glide_eff_state_penalty>  (280) 
0

>  <ligand_id>  (280) 
85

>  <original_smiles>  (280) 
CC1(C)C2C3CC1C1(CO1)C2C1(O)CC(O)CC1C3O

>  <smiles>  (280) 
[H]OC1([H])C([H])([H])C2([H])C([H])(O[H])C3([H])C([H])([H])C4([H])C5(OC5([H])[H])C([H])(C3([H])C4(C([H])([H])[H])C([H])([H])[H])C2(O[H])C1([H])[H]

$$$$
86:0:0
     RDKit          3D

 62 67  0  0  1  0  0  0  0  0999 V2000
    5.3979  -10.1331    2.0813 C   0  0  0  0  0  0  0  0  0  0  0  0
    5.2359   -8.9280    1.3422 O   0  0  0  0  0  0  0  0  0  0  0  0
    4.6876   -7.8348    1.9722 C   0  0  0  0  0  0  0  0  0  0  0  0
    4.4081   -7.7736    3.3543 C   0  0  0  0  0  0  0  0  0  0  0  0
    3.8378   -6.6165    3.9063 C   0  0  0  0  0  0  0  0  0  0  0  0
    3.5397   -5.4843    3.1173 C   0  0  0  0  0  0  0  0  0  0  0  0
    3.8680   -5.5111    1.7191 C   0  0  0  0  0  0  0  0  0  0  0  0
    4.4133   -6.7078    1.1820 C   0  0  0  0  0  0  0  0  0  0  0  0
    3.6081   -4.3036    0.7662 C   0  0  1  0  0  0  0  0  0  0  0  0
    2.4751   -4.7547   -0.1964 C   0  0  0  0  0  0  0  0  0  0  0  0
    2.1871   -3.7795   -1.3552 C   0  0  0  0  0  0  0  0  0  0  0  0
    3.3777   -3.4466   -2.1745 N   0  0  1  0  0  0  0  0  0  0  0  0
    3.4195   -2.0650   -2.7286 C   0  0  0  0  0  0  0  0  0  0  0  0
    4.3004   -1.0790   -1.9385 C   0  0  0  0  0  0  0  0  0  0  0  0
    3.8791   -0.9413   -0.4659 C   0  0  0  0  0  0  0  0  0  0  0  0
    4.7996   -1.5632    0.5981 C   0  0  2  0  0  0  0  0  0  0  0  0
    5.7414   -2.7420    0.3391 C   0  0  2  0  0  0  0  0  0  0  0  0
    6.6104   -2.4381    1.6090 C   0  0  0  0  0  0  0  0  0  0  0  0
    5.5913   -1.9398    2.7145 C   0  0  1  0  0  0  0  0  0  0  0  0
    5.9105   -0.5819    3.2187 N   0  0  0  0  0  0  0  0  0  0  0  0
    4.2023   -1.9343    1.9699 C   0  0  1  0  0  0  0  0  0  0  0  0
    3.1189   -3.0409    1.6193 C   0  0  2  0  0  0  0  0  0  0  0  0
    2.2398   -3.4652    2.7993 C   0  0  0  0  0  0  0  0  0  0  0  0
    2.9207   -4.3551    3.7141 N   0  0  0  0  0  0  0  0  0  0  0  0
    2.2749   -4.4519    5.0170 C   0  0  0  0  0  0  0  0  0  0  0  0
    4.8972   -3.9779   -0.1500 C   0  0  2  0  0  0  0  0  0  0  0  0
    4.6729   -3.9767   -1.6883 C   0  0  0  0  0  0  0  0  0  0  0  0
    5.8142  -10.9024    1.4302 H   0  0  0  0  0  0  0  0  0  0  0  0
    4.4427  -10.5045    2.4539 H   0  0  0  0  0  0  0  0  0  0  0  0
    6.0879  -10.0110    2.9166 H   0  0  0  0  0  0  0  0  0  0  0  0
    4.6092   -8.6032    4.0105 H   0  0  0  0  0  0  0  0  0  0  0  0
    3.6328   -6.6347    4.9639 H   0  0  0  0  0  0  0  0  0  0  0  0
    4.6254   -6.7893    0.1268 H   0  0  0  0  0  0  0  0  0  0  0  0
    2.7533   -5.7083   -0.6319 H   0  0  0  0  0  0  0  0  0  0  0  0
    1.5596   -4.9686    0.3450 H   0  0  0  0  0  0  0  0  0  0  0  0
    1.4316   -4.2068   -2.0204 H   0  0  0  0  0  0  0  0  0  0  0  0
    1.7496   -2.8809   -0.9583 H   0  0  0  0  0  0  0  0  0  0  0  0
    3.8213   -2.1243   -3.7378 H   0  0  0  0  0  0  0  0  0  0  0  0
    2.4102   -1.6664   -2.8491 H   0  0  0  0  0  0  0  0  0  0  0  0
    5.3628   -1.3137   -2.0166 H   0  0  0  0  0  0  0  0  0  0  0  0
    4.1959   -0.1021   -2.4121 H   0  0  0  0  0  0  0  0  0  0  0  0
    3.8756    0.1195   -0.2085 H   0  0  0  0  0  0  0  0  0  0  0  0
    2.8388   -1.1990   -0.3679 H   0  0  0  0  0  0  0  0  0  0  0  0
    5.4484   -0.6880    0.7046 H   0  0  0  0  0  0  0  0  0  0  0  0
    5.7179   -3.5399    1.0556 H   0  0  0  0  0  0  0  0  0  0  0  0
    7.2633   -3.2557    1.9556 H   0  0  0  0  0  0  0  0  0  0  0  0
    7.3047   -1.6374    1.3389 H   0  0  0  0  0  0  0  0  0  0  0  0
    5.6854   -2.5540    3.6278 H   0  0  0  0  0  0  0  0  0  0  0  0
    5.9378    0.0873    2.4643 H   0  0  0  0  0  0  0  0  0  0  0  0
    6.8274   -0.6047    3.6393 H   0  0  0  0  0  0  0  0  0  0  0  0
    4.4105   -2.8948    2.3959 H   0  0  0  0  0  0  0  0  0  0  0  0
    2.3792   -2.5137    1.0382 H   0  0  0  0  0  0  0  0  0  0  0  0
    1.8831   -2.5685    3.3098 H   0  0  0  0  0  0  0  0  0  0  0  0
    1.3619   -3.9939    2.4324 H   0  0  0  0  0  0  0  0  0  0  0  0
    2.8973   -4.8927    5.7906 H   0  0  0  0  0  0  0  0  0  0  0  0
    1.3450   -5.0148    4.9359 H   0  0  0  0  0  0  0  0  0  0  0  0
    2.0114   -3.4539    5.3712 H   0  0  0  0  0  0  0  0  0  0  0  0
    5.5489   -4.8643   -0.1535 H   0  0  0  0  0  0  0  0  0  0  0  0
    4.6872   -5.0125   -2.0153 H   0  0  0  0  0  0  0  0  0  0  0  0
    5.5113   -3.5232   -2.2208 H   0  0  0  0  0  0  0  0  0  0  0  0
    5.2390   -0.2966    3.9166 H   0  0  0  0  0  0  0  0  0  0  0  0
    3.1977   -4.0204   -2.9890 H   0  0  0  0  0  0  0  0  0  0  0  0
  1  2  1  0
  1 28  1  0
  1 29  1  0
  1 30  1  0
  2  3  1  0
  3  8  2  0
  3  4  1  0
  4  5  2  0
  4 31  1  0
  5  6  1  0
  5 32  1  0
  6 24  1  0
  6  7  2  0
  7  8  1  0
  7  9  1  0
  8 33  1  0
  9 22  1  0
  9 26  1  0
  9 10  1  6
 10 11  1  0
 10 34  1  0
 10 35  1  0
 11 12  1  0
 11 36  1  0
 11 37  1  0
 12 27  1  0
 12 13  1  0
 12 62  1  6
 13 14  1  0
 13 38  1  0
 13 39  1  0
 14 15  1  0
 14 40  1  0
 14 41  1  0
 15 16  1  0
 15 42  1  0
 15 43  1  0
 16 21  1  0
 16 17  1  0
 16 44  1  1
 17 18  1  0
 17 26  1  0
 17 45  1  6
 18 19  1  0
 18 46  1  0
 18 47  1  0
 19 20  1  0
 19 21  1  0
 19 48  1  1
 20 49  1  0
 20 50  1  0
 20 61  1  0
 21 22  1  0
 21 51  1  1
 22 23  1  0
 22 52  1  6
 23 24  1  0
 23 53  1  0
 23 54  1  0
 24 25  1  0
 25 55  1  0
 25 56  1  0
 25 57  1  0
 26 27  1  0
 26 58  1  6
 27 59  1  0
 27 60  1  0
M  CHG  2  12   1  20   1
M  END
>  <i_m_ct_stereo_status>  (281) 
1

>  <s_m_source_file>  (281) 
/var/tmp/pbs.5076255.sched01/tmpyqr7shjn/887d44c5qo.sdf

>  <i_m_source_file_index>  (281) 
33

>  <i_lp_mmshare_version>  (281) 
48012

>  <i_f3d_flags>  (281) 
0

>  <s_epik_input>  (281) 
W0NIM11PYyhbY0hdMSlbY0hdW2NIXWMoYzFbQ0BAXTIzNClOKFtDSDNdKVtDSDJdW0NASF0zW0NASF01W0NASF02W0NASF0oW0NIMl1bQ0BIXTVbTkgyXSlbQ0BASF00W0NIMl1OKFtDSDJdW0NIMl0yKVtDSDJdW0NIMl1bQ0gyXTY=

>  <s_epik_cmdline>  (281) 
J2VwaWtfcHl0aG9uJywgJy1waHQnLCAnMi4wJywgJy1waCcsICc3LjAnLCAnLXRuJywgJzgnLCAnLW1hJywgJzIwMCcsICctaW1hZScsICc8aW5maWxlLm1hZT4nLCAnLW9tYWUnLCAnPG91dGZpbGUubWFlPic=

>  <r_lp_tautomer_probability>  (281) 
1

>  <r_epik_Ionization_Penalty>  (281) 
0.110383

>  <r_epik_Ionization_Penalty_Charging>  (281) 
0.00109107

>  <r_epik_Ionization_Penalty_Neutral>  (281) 
0.109292

>  <r_epik_State_Penalty>  (281) 
0.0990671

>  <r_epik_Charging_Adjusted_Penalty>  (281) 
0.100158

>  <i_epik_Tot_Q>  (281) 
2

>  <i_epik_Tot_abs_Q>  (281) 
2

>  <s_lp_Force_Field>  (281) 
OPLS3e

>  <r_lp_Energy>  (281) 
285.568

>  <b_lp_Chiralities_Consistent>  (281) 
1

>  <s_lp_Variant>  (281) 
86:0-1

>  <s_i_glide_gridfile>  (281) 
pfpi4k_grid

>  <i_i_glide_lignum>  (281) 
33

>  <i_i_glide_rotatable_bonds>  (281) 
1

>  <r_i_docking_score>  (281) 
-2.8576

>  <r_i_glide_ligand_efficiency>  (281) 
-0.105837

>  <r_i_glide_ligand_efficiency_sa>  (281) 
-0.317511

>  <r_i_glide_ligand_efficiency_ln>  (281) 
-0.665202

>  <r_i_glide_gscore>  (281) 
-2.8576

>  <r_i_glide_lipo>  (281) 
-0.354507

>  <r_i_glide_hbond>  (281) 
0

>  <r_i_glide_metal>  (281) 
-0

>  <r_i_glide_rewards>  (281) 
-0.889477

>  <r_i_glide_evdw>  (281) 
-13.8974

>  <r_i_glide_ecoul>  (281) 
-6.03117

>  <r_i_glide_erotb>  (281) 
0

>  <r_i_glide_esite>  (281) 
-0.0140715

>  <r_i_glide_emodel>  (281) 
-22.3687

>  <r_i_glide_energy>  (281) 
-19.9286

>  <r_i_glide_einternal>  (281) 
0.083865

>  <r_i_glide_intrahb_reward>  (281) 
-0

>  <i_i_glide_confnum>  (281) 
1

>  <i_i_glide_posenum>  (281) 
34

>  <r_i_glide_eff_state_penalty>  (281) 
0

>  <ligand_id>  (281) 
86

>  <original_smiles>  (281) 
COc1ccc2c(c1)C13CCN4CCCC5C(CC(N)C5C1CN2C)C3C4

>  <smiles>  (281) 
[H]c1c([H])c2c(c([H])c1OC([H])([H])[H])C13C([H])([H])C([H])([H])[N+]4([H])C([H])([H])C([H])([H])C([H])([H])C5([H])C([H])(C([H])([H])C([H])([N+]([H])([H])[H])C5([H])C1([H])C([H])([H])N2C([H])([H])[H])C3([H])C4([H])[H]

$$$$
86:1:0
     RDKit          3D

 62 67  0  0  1  0  0  0  0  0999 V2000
   -1.3454   -8.2169    2.6815 C   0  0  0  0  0  0  0  0  0  0  0  0
   -0.5926   -7.0063    2.6995 O   0  0  0  0  0  0  0  0  0  0  0  0
    0.7566   -7.0611    2.4227 C   0  0  0  0  0  0  0  0  0  0  0  0
    1.4508   -8.2412    2.0787 C   0  0  0  0  0  0  0  0  0  0  0  0
    2.8242   -8.1918    1.7871 C   0  0  0  0  0  0  0  0  0  0  0  0
    3.5493   -6.9784    1.8272 C   0  0  0  0  0  0  0  0  0  0  0  0
    2.8627   -5.7717    2.1796 C   0  0  0  0  0  0  0  0  0  0  0  0
    1.4759   -5.8544    2.4761 C   0  0  0  0  0  0  0  0  0  0  0  0
    3.5638   -4.3798    2.2581 C   0  0  1  0  0  0  0  0  0  0  0  0
    3.3839   -3.8342    3.7244 C   0  0  0  0  0  0  0  0  0  0  0  0
    3.7697   -2.3430    3.9462 C   0  0  0  0  0  0  0  0  0  0  0  0
    3.0964   -1.3919    3.0032 N   0  0  1  0  0  0  0  0  0  0  0  0
    3.9274   -0.2075    2.5510 C   0  0  0  0  0  0  0  0  0  0  0  0
    4.3534   -0.0940    1.0451 C   0  0  0  0  0  0  0  0  0  0  0  0
    5.4384   -1.0725    0.4948 C   0  0  0  0  0  0  0  0  0  0  0  0
    4.9617   -2.4884    0.7639 C   0  0  1  0  0  0  0  0  0  0  0  0
    3.6480   -2.8353    0.0843 C   0  0  2  0  0  0  0  0  0  0  0  0
    4.2381   -3.3441   -1.2696 C   0  0  0  0  0  0  0  0  0  0  0  0
    5.6273   -3.9519   -0.8980 C   0  0  1  0  0  0  0  0  0  0  0  0
    6.7288   -3.2361   -1.5849 N   0  0  0  0  0  0  0  0  0  0  0  0
    5.7489   -3.7887    0.6576 C   0  0  1  0  0  0  0  0  0  0  0  0
    5.1552   -4.5279    1.9569 C   0  0  2  0  0  0  0  0  0  0  0  0
    5.6863   -5.9454    2.2387 C   0  0  0  0  0  0  0  0  0  0  0  0
    4.9362   -6.9679    1.5369 N   0  0  0  0  0  0  0  0  0  0  0  0
    5.6708   -8.2102    1.3219 C   0  0  0  0  0  0  0  0  0  0  0  0
    2.7946   -3.3275    1.2946 C   0  0  2  0  0  0  0  0  0  0  0  0
    2.2107   -2.0570    2.0020 C   0  0  0  0  0  0  0  0  0  0  0  0
   -2.3824   -8.0033    2.9437 H   0  0  0  0  0  0  0  0  0  0  0  0
   -0.9742   -8.9417    3.4080 H   0  0  0  0  0  0  0  0  0  0  0  0
   -1.3490   -8.6693    1.6893 H   0  0  0  0  0  0  0  0  0  0  0  0
    0.9505   -9.1953    2.0222 H   0  0  0  0  0  0  0  0  0  0  0  0
    3.2978   -9.1309    1.5393 H   0  0  0  0  0  0  0  0  0  0  0  0
    0.9294   -4.9661    2.7524 H   0  0  0  0  0  0  0  0  0  0  0  0
    2.3422   -3.9211    4.0383 H   0  0  0  0  0  0  0  0  0  0  0  0
    3.9361   -4.4567    4.4242 H   0  0  0  0  0  0  0  0  0  0  0  0
    3.5001   -2.0492    4.9621 H   0  0  0  0  0  0  0  0  0  0  0  0
    4.8521   -2.2353    3.9142 H   0  0  0  0  0  0  0  0  0  0  0  0
    3.3155    0.6685    2.7584 H   0  0  0  0  0  0  0  0  0  0  0  0
    4.7974   -0.0830    3.1965 H   0  0  0  0  0  0  0  0  0  0  0  0
    3.4689   -0.1262    0.4078 H   0  0  0  0  0  0  0  0  0  0  0  0
    4.7408    0.9069    0.8828 H   0  0  0  0  0  0  0  0  0  0  0  0
    5.5809   -0.8846   -0.5697 H   0  0  0  0  0  0  0  0  0  0  0  0
    6.3949   -0.8984    0.9891 H   0  0  0  0  0  0  0  0  0  0  0  0
    4.9192   -2.3337    1.8108 H   0  0  0  0  0  0  0  0  0  0  0  0
    3.4283   -3.8934   -0.0192 H   0  0  0  0  0  0  0  0  0  0  0  0
    3.6319   -4.0460   -1.8565 H   0  0  0  0  0  0  0  0  0  0  0  0
    4.3592   -2.4857   -1.9334 H   0  0  0  0  0  0  0  0  0  0  0  0
    5.6967   -4.9801   -1.2767 H   0  0  0  0  0  0  0  0  0  0  0  0
    6.7033   -2.2631   -1.3184 H   0  0  0  0  0  0  0  0  0  0  0  0
    6.6363   -3.3255   -2.5873 H   0  0  0  0  0  0  0  0  0  0  0  0
    5.2031   -4.6939    0.4485 H   0  0  0  0  0  0  0  0  0  0  0  0
    5.6715   -3.9945    2.7557 H   0  0  0  0  0  0  0  0  0  0  0  0
    6.7379   -5.9797    1.9514 H   0  0  0  0  0  0  0  0  0  0  0  0
    5.6446   -6.1601    3.3093 H   0  0  0  0  0  0  0  0  0  0  0  0
    5.1772   -8.9032    0.6419 H   0  0  0  0  0  0  0  0  0  0  0  0
    5.8566   -8.7145    2.2718 H   0  0  0  0  0  0  0  0  0  0  0  0
    6.6487   -7.9913    0.8888 H   0  0  0  0  0  0  0  0  0  0  0  0
    1.8633   -3.7813    0.9447 H   0  0  0  0  0  0  0  0  0  0  0  0
    1.3229   -2.3510    2.5590 H   0  0  0  0  0  0  0  0  0  0  0  0
    1.8436   -1.3285    1.2763 H   0  0  0  0  0  0  0  0  0  0  0  0
    7.6151   -3.6329   -1.3104 H   0  0  0  0  0  0  0  0  0  0  0  0
    2.4291   -0.9354    3.6114 H   0  0  0  0  0  0  0  0  0  0  0  0
  1  2  1  0
  1 28  1  0
  1 29  1  0
  1 30  1  0
  2  3  1  0
  3  8  2  0
  3  4  1  0
  4  5  2  0
  4 31  1  0
  5  6  1  0
  5 32  1  0
  6 24  1  0
  6  7  2  0
  7  8  1  0
  7  9  1  0
  8 33  1  0
  9 22  1  0
  9 26  1  0
  9 10  1  1
 10 11  1  0
 10 34  1  0
 10 35  1  0
 11 12  1  0
 11 36  1  0
 11 37  1  0
 12 27  1  0
 12 13  1  0
 12 62  1  1
 13 14  1  0
 13 38  1  0
 13 39  1  0
 14 15  1  0
 14 40  1  0
 14 41  1  0
 15 16  1  0
 15 42  1  0
 15 43  1  0
 16 21  1  0
 16 17  1  0
 16 44  1  1
 17 18  1  0
 17 26  1  0
 17 45  1  6
 18 19  1  0
 18 46  1  0
 18 47  1  0
 19 20  1  0
 19 21  1  0
 19 48  1  1
 20 49  1  0
 20 50  1  0
 20 61  1  0
 21 22  1  0
 21 51  1  1
 22 23  1  0
 22 52  1  1
 23 24  1  0
 23 53  1  0
 23 54  1  0
 24 25  1  0
 25 55  1  0
 25 56  1  0
 25 57  1  0
 26 27  1  0
 26 58  1  6
 27 59  1  0
 27 60  1  0
M  CHG  2  12   1  20   1
M  END
>  <i_m_ct_stereo_status>  (282) 
1

>  <s_m_source_file>  (282) 
/var/tmp/pbs.5076255.sched01/tmpyqr7shjn/887d44c5qo.sdf

>  <i_m_source_file_index>  (282) 
34

>  <i_lp_mmshare_version>  (282) 
48012

>  <i_f3d_flags>  (282) 
0

>  <s_epik_input>  (282) 
W0NIM11PYyhbY0hdMSlbY0hdW2NIXWMoYzFbQ0BAXTIzNClOKFtDSDNdKVtDSDJdW0NASF0zW0NASF01W0NASF02W0NASF0oW0NIMl1bQ0BIXTVbTkgyXSlbQ0BASF00W0NIMl1OKFtDSDJdW0NIMl0yKVtDSDJdW0NIMl1bQ0gyXTY=

>  <s_epik_cmdline>  (282) 
J2VwaWtfcHl0aG9uJywgJy1waHQnLCAnMi4wJywgJy1waCcsICc3LjAnLCAnLXRuJywgJzgnLCAnLW1hJywgJzIwMCcsICctaW1hZScsICc8aW5maWxlLm1hZT4nLCAnLW9tYWUnLCAnPG91dGZpbGUubWFlPic=

>  <r_lp_tautomer_probability>  (282) 
1

>  <r_epik_Ionization_Penalty>  (282) 
0.110383

>  <r_epik_Ionization_Penalty_Charging>  (282) 
0.00109107

>  <r_epik_Ionization_Penalty_Neutral>  (282) 
0.109292

>  <r_epik_State_Penalty>  (282) 
0.0990671

>  <r_epik_Charging_Adjusted_Penalty>  (282) 
0.100158

>  <i_epik_Tot_Q>  (282) 
2

>  <i_epik_Tot_abs_Q>  (282) 
2

>  <s_lp_Force_Field>  (282) 
OPLS3e

>  <r_lp_Energy>  (282) 
292.234

>  <b_lp_Chiralities_Consistent>  (282) 
1

>  <s_lp_Variant>  (282) 
86:0-2

>  <s_i_glide_gridfile>  (282) 
pfpi4k_grid

>  <i_i_glide_lignum>  (282) 
34

>  <i_i_glide_rotatable_bonds>  (282) 
1

>  <r_i_docking_score>  (282) 
-3.69522

>  <r_i_glide_ligand_efficiency>  (282) 
-0.13686

>  <r_i_glide_ligand_efficiency_sa>  (282) 
-0.41058

>  <r_i_glide_ligand_efficiency_ln>  (282) 
-0.860187

>  <r_i_glide_gscore>  (282) 
-3.69522

>  <r_i_glide_lipo>  (282) 
-0.555426

>  <r_i_glide_hbond>  (282) 
-0.156848

>  <r_i_glide_metal>  (282) 
-0

>  <r_i_glide_rewards>  (282) 
-0.990358

>  <r_i_glide_evdw>  (282) 
-21.5736

>  <r_i_glide_ecoul>  (282) 
-6.08235

>  <r_i_glide_erotb>  (282) 
0

>  <r_i_glide_esite>  (282) 
-0.00155752

>  <r_i_glide_emodel>  (282) 
-33.1852

>  <r_i_glide_energy>  (282) 
-27.656

>  <r_i_glide_einternal>  (282) 
0.000165062

>  <r_i_glide_intrahb_reward>  (282) 
-0

>  <i_i_glide_confnum>  (282) 
2

>  <i_i_glide_posenum>  (282) 
7

>  <r_i_glide_eff_state_penalty>  (282) 
0

>  <ligand_id>  (282) 
86

>  <original_smiles>  (282) 
COc1ccc2c(c1)C13CCN4CCCC5C(CC(N)C5C1CN2C)C3C4

>  <smiles>  (282) 
[H]c1c([H])c2c(c([H])c1OC([H])([H])[H])C13C([H])([H])C([H])([H])[N+]4([H])C([H])([H])C([H])([H])C([H])([H])C5([H])C([H])(C([H])([H])C([H])([N+]([H])([H])[H])C5([H])C1([H])C([H])([H])N2C([H])([H])[H])C3([H])C4([H])[H]

$$$$
86:1:1
     RDKit          3D

 62 67  0  0  1  0  0  0  0  0999 V2000
   -1.2969   -8.0391    2.3773 C   0  0  0  0  0  0  0  0  0  0  0  0
   -0.5163   -6.8516    2.2456 O   0  0  0  0  0  0  0  0  0  0  0  0
    0.8392   -6.9260    2.4895 C   0  0  0  0  0  0  0  0  0  0  0  0
    1.5382   -8.1275    2.7369 C   0  0  0  0  0  0  0  0  0  0  0  0
    2.9234   -8.0990    2.9676 C   0  0  0  0  0  0  0  0  0  0  0  0
    3.6600   -6.8892    2.9550 C   0  0  0  0  0  0  0  0  0  0  0  0
    2.9658   -5.6628    2.7006 C   0  0  0  0  0  0  0  0  0  0  0  0
    1.5669   -5.7223    2.4786 C   0  0  0  0  0  0  0  0  0  0  0  0
    3.6692   -4.2721    2.6592 C   0  0  1  0  0  0  0  0  0  0  0  0
    2.9995   -3.3626    3.7588 C   0  0  0  0  0  0  0  0  0  0  0  0
    3.3657   -1.8491    3.7085 C   0  0  0  0  0  0  0  0  0  0  0  0
    3.1398   -1.2133    2.3705 N   0  0  1  0  0  0  0  0  0  0  0  0
    4.1451   -0.1582    1.9638 C   0  0  0  0  0  0  0  0  0  0  0  0
    5.1042   -0.4242    0.7500 C   0  0  0  0  0  0  0  0  0  0  0  0
    6.2504   -1.4736    0.9088 C   0  0  0  0  0  0  0  0  0  0  0  0
    5.6248   -2.7911    1.3423 C   0  0  1  0  0  0  0  0  0  0  0  0
    4.6316   -3.3620    0.3446 C   0  0  2  0  0  0  0  0  0  0  0  0
    5.6441   -4.1946   -0.5117 C   0  0  0  0  0  0  0  0  0  0  0  0
    6.7715   -4.6165    0.4880 C   0  0  1  0  0  0  0  0  0  0  0  0
    8.0847   -4.0540    0.0958 N   0  0  0  0  0  0  0  0  0  0  0  0
    6.3180   -4.0417    1.8763 C   0  0  1  0  0  0  0  0  0  0  0  0
    5.2478   -4.4277    3.0137 C   0  0  2  0  0  0  0  0  0  0  0  0
    5.5563   -5.6916    3.8343 C   0  0  0  0  0  0  0  0  0  0  0  0
    5.0523   -6.8954    3.2044 N   0  0  0  0  0  0  0  0  0  0  0  0
    5.7425   -8.1170    3.6039 C   0  0  0  0  0  0  0  0  0  0  0  0
    3.3646   -3.5460    1.2407 C   0  0  2  0  0  0  0  0  0  0  0  0
    2.6441   -2.1543    1.3271 C   0  0  0  0  0  0  0  0  0  0  0  0
   -2.3437   -7.8225    2.1603 H   0  0  0  0  0  0  0  0  0  0  0  0
   -1.2555   -8.4314    3.3945 H   0  0  0  0  0  0  0  0  0  0  0  0
   -0.9840   -8.8172    1.6805 H   0  0  0  0  0  0  0  0  0  0  0  0
    1.0363   -9.0823    2.7545 H   0  0  0  0  0  0  0  0  0  0  0  0
    3.4009   -9.0482    3.1649 H   0  0  0  0  0  0  0  0  0  0  0  0
    1.0244   -4.8115    2.2971 H   0  0  0  0  0  0  0  0  0  0  0  0
    1.9105   -3.4048    3.6820 H   0  0  0  0  0  0  0  0  0  0  0  0
    3.2191   -3.7532    4.7520 H   0  0  0  0  0  0  0  0  0  0  0  0
    2.7626   -1.3078    4.4404 H   0  0  0  0  0  0  0  0  0  0  0  0
    4.3907   -1.7089    4.0495 H   0  0  0  0  0  0  0  0  0  0  0  0
    3.5538    0.7152    1.6954 H   0  0  0  0  0  0  0  0  0  0  0  0
    4.7259    0.1663    2.8271 H   0  0  0  0  0  0  0  0  0  0  0  0
    4.5247   -0.6438   -0.1497 H   0  0  0  0  0  0  0  0  0  0  0  0
    5.5989    0.5197    0.5270 H   0  0  0  0  0  0  0  0  0  0  0  0
    6.7886   -1.5737   -0.0343 H   0  0  0  0  0  0  0  0  0  0  0  0
    6.9698   -1.1336    1.6563 H   0  0  0  0  0  0  0  0  0  0  0  0
    5.2135   -2.3623    2.2201 H   0  0  0  0  0  0  0  0  0  0  0  0
    4.3993   -4.4156    0.4516 H   0  0  0  0  0  0  0  0  0  0  0  0
    5.2454   -5.0516   -1.0747 H   0  0  0  0  0  0  0  0  0  0  0  0
    6.0501   -3.5370   -1.2830 H   0  0  0  0  0  0  0  0  0  0  0  0
    6.9485   -5.7028    0.4491 H   0  0  0  0  0  0  0  0  0  0  0  0
    8.0475   -3.0453    0.0666 H   0  0  0  0  0  0  0  0  0  0  0  0
    8.3509   -4.3985   -0.8137 H   0  0  0  0  0  0  0  0  0  0  0  0
    5.8361   -4.9938    1.7187 H   0  0  0  0  0  0  0  0  0  0  0  0
    5.4658   -3.6781    3.7761 H   0  0  0  0  0  0  0  0  0  0  0  0
    6.6357   -5.7587    3.9716 H   0  0  0  0  0  0  0  0  0  0  0  0
    5.1152   -5.6163    4.8305 H   0  0  0  0  0  0  0  0  0  0  0  0
    5.4886   -8.9832    2.9963 H   0  0  0  0  0  0  0  0  0  0  0  0
    5.5400   -8.3424    4.6513 H   0  0  0  0  0  0  0  0  0  0  0  0
    6.8199   -7.9776    3.5107 H   0  0  0  0  0  0  0  0  0  0  0  0
    2.5969   -4.1131    0.7004 H   0  0  0  0  0  0  0  0  0  0  0  0
    1.5966   -2.3136    1.5733 H   0  0  0  0  0  0  0  0  0  0  0  0
    2.6175   -1.6612    0.3552 H   0  0  0  0  0  0  0  0  0  0  0  0
    8.7652   -4.3376    0.7822 H   0  0  0  0  0  0  0  0  0  0  0  0
    2.3244   -0.6411    2.5445 H   0  0  0  0  0  0  0  0  0  0  0  0
  1  2  1  0
  1 28  1  0
  1 29  1  0
  1 30  1  0
  2  3  1  0
  3  8  2  0
  3  4  1  0
  4  5  2  0
  4 31  1  0
  5  6  1  0
  5 32  1  0
  6 24  1  0
  6  7  2  0
  7  8  1  0
  7  9  1  0
  8 33  1  0
  9 22  1  0
  9 26  1  0
  9 10  1  1
 10 11  1  0
 10 34  1  0
 10 35  1  0
 11 12  1  0
 11 36  1  0
 11 37  1  0
 12 27  1  0
 12 13  1  0
 12 62  1  1
 13 14  1  0
 13 38  1  0
 13 39  1  0
 14 15  1  0
 14 40  1  0
 14 41  1  0
 15 16  1  0
 15 42  1  0
 15 43  1  0
 16 21  1  0
 16 17  1  0
 16 44  1  1
 17 18  1  0
 17 26  1  0
 17 45  1  6
 18 19  1  0
 18 46  1  0
 18 47  1  0
 19 20  1  0
 19 21  1  0
 19 48  1  1
 20 49  1  0
 20 50  1  0
 20 61  1  0
 21 22  1  0
 21 51  1  1
 22 23  1  0
 22 52  1  1
 23 24  1  0
 23 53  1  0
 23 54  1  0
 24 25  1  0
 25 55  1  0
 25 56  1  0
 25 57  1  0
 26 27  1  0
 26 58  1  6
 27 59  1  0
 27 60  1  0
M  CHG  2  12   1  20   1
M  END
>  <i_m_ct_stereo_status>  (283) 
1

>  <s_m_source_file>  (283) 
/var/tmp/pbs.5076255.sched01/tmpyqr7shjn/887d44c5qo.sdf

>  <i_m_source_file_index>  (283) 
34

>  <i_lp_mmshare_version>  (283) 
48012

>  <i_f3d_flags>  (283) 
0

>  <s_epik_input>  (283) 
W0NIM11PYyhbY0hdMSlbY0hdW2NIXWMoYzFbQ0BAXTIzNClOKFtDSDNdKVtDSDJdW0NASF0zW0NASF01W0NASF02W0NASF0oW0NIMl1bQ0BIXTVbTkgyXSlbQ0BASF00W0NIMl1OKFtDSDJdW0NIMl0yKVtDSDJdW0NIMl1bQ0gyXTY=

>  <s_epik_cmdline>  (283) 
J2VwaWtfcHl0aG9uJywgJy1waHQnLCAnMi4wJywgJy1waCcsICc3LjAnLCAnLXRuJywgJzgnLCAnLW1hJywgJzIwMCcsICctaW1hZScsICc8aW5maWxlLm1hZT4nLCAnLW9tYWUnLCAnPG91dGZpbGUubWFlPic=

>  <r_lp_tautomer_probability>  (283) 
1

>  <r_epik_Ionization_Penalty>  (283) 
0.110383

>  <r_epik_Ionization_Penalty_Charging>  (283) 
0.00109107

>  <r_epik_Ionization_Penalty_Neutral>  (283) 
0.109292

>  <r_epik_State_Penalty>  (283) 
0.0990671

>  <r_epik_Charging_Adjusted_Penalty>  (283) 
0.100158

>  <i_epik_Tot_Q>  (283) 
2

>  <i_epik_Tot_abs_Q>  (283) 
2

>  <s_lp_Force_Field>  (283) 
OPLS3e

>  <r_lp_Energy>  (283) 
292.234

>  <b_lp_Chiralities_Consistent>  (283) 
1

>  <s_lp_Variant>  (283) 
86:0-2

>  <s_i_glide_gridfile>  (283) 
pfpi4k_grid

>  <i_i_glide_lignum>  (283) 
34

>  <i_i_glide_rotatable_bonds>  (283) 
1

>  <r_i_docking_score>  (283) 
-3.61876

>  <r_i_glide_ligand_efficiency>  (283) 
-0.134028

>  <r_i_glide_ligand_efficiency_sa>  (283) 
-0.402085

>  <r_i_glide_ligand_efficiency_ln>  (283) 
-0.842388

>  <r_i_glide_gscore>  (283) 
-3.61876

>  <r_i_glide_lipo>  (283) 
-0.69565

>  <r_i_glide_hbond>  (283) 
-0.16

>  <r_i_glide_metal>  (283) 
-0

>  <r_i_glide_rewards>  (283) 
-0.889476

>  <r_i_glide_evdw>  (283) 
-19.8198

>  <r_i_glide_ecoul>  (283) 
-5.85494

>  <r_i_glide_erotb>  (283) 
0

>  <r_i_glide_esite>  (283) 
-0.00440282

>  <r_i_glide_emodel>  (283) 
-31.0407

>  <r_i_glide_energy>  (283) 
-25.6748

>  <r_i_glide_einternal>  (283) 
0.0806722

>  <r_i_glide_intrahb_reward>  (283) 
-0

>  <i_i_glide_confnum>  (283) 
2

>  <i_i_glide_posenum>  (283) 
30

>  <r_i_glide_eff_state_penalty>  (283) 
0

>  <ligand_id>  (283) 
86

>  <original_smiles>  (283) 
COc1ccc2c(c1)C13CCN4CCCC5C(CC(N)C5C1CN2C)C3C4

>  <smiles>  (283) 
[H]c1c([H])c2c(c([H])c1OC([H])([H])[H])C13C([H])([H])C([H])([H])[N+]4([H])C([H])([H])C([H])([H])C([H])([H])C5([H])C([H])(C([H])([H])C([H])([N+]([H])([H])[H])C5([H])C1([H])C([H])([H])N2C([H])([H])[H])C3([H])C4([H])[H]

$$$$
86:1:2
     RDKit          3D

 62 67  0  0  1  0  0  0  0  0999 V2000
    0.5569   -9.4378    2.2661 C   0  0  0  0  0  0  0  0  0  0  0  0
    1.0425   -8.1535    1.8981 O   0  0  0  0  0  0  0  0  0  0  0  0
    2.3883   -7.9036    2.0194 C   0  0  0  0  0  0  0  0  0  0  0  0
    3.3855   -8.9024    2.0543 C   0  0  0  0  0  0  0  0  0  0  0  0
    4.7363   -8.5393    2.1807 C   0  0  0  0  0  0  0  0  0  0  0  0
    5.1371   -7.1843    2.2694 C   0  0  0  0  0  0  0  0  0  0  0  0
    4.1357   -6.1619    2.2192 C   0  0  0  0  0  0  0  0  0  0  0  0
    2.7807   -6.5569    2.0872 C   0  0  0  0  0  0  0  0  0  0  0  0
    4.4568   -4.6412    2.3100 C   0  0  1  0  0  0  0  0  0  0  0  0
    3.6990   -4.0617    3.5667 C   0  0  0  0  0  0  0  0  0  0  0  0
    3.6680   -2.5096    3.6893 C   0  0  0  0  0  0  0  0  0  0  0  0
    3.1572   -1.8145    2.4650 N   0  0  1  0  0  0  0  0  0  0  0  0
    3.8177   -0.4960    2.1294 C   0  0  0  0  0  0  0  0  0  0  0  0
    4.6813   -0.3767    0.8278 C   0  0  0  0  0  0  0  0  0  0  0  0
    6.0675   -1.0953    0.7697 C   0  0  0  0  0  0  0  0  0  0  0  0
    5.8421   -2.5667    1.0715 C   0  0  1  0  0  0  0  0  0  0  0  0
    4.9291   -3.2636    0.0796 C   0  0  2  0  0  0  0  0  0  0  0  0
    6.0275   -3.7033   -0.9444 C   0  0  0  0  0  0  0  0  0  0  0  0
    7.3243   -3.9228   -0.0910 C   0  0  1  0  0  0  0  0  0  0  0  0
    8.4131   -3.0031   -0.5011 N   0  0  0  0  0  0  0  0  0  0  0  0
    6.8770   -3.6417    1.3863 C   0  0  1  0  0  0  0  0  0  0  0  0
    6.0488   -4.4225    2.5246 C   0  0  2  0  0  0  0  0  0  0  0  0
    6.7484   -5.6372    3.1597 C   0  0  0  0  0  0  0  0  0  0  0  0
    6.5074   -6.8555    2.4179 N   0  0  0  0  0  0  0  0  0  0  0  0
    7.5205   -7.8875    2.6096 C   0  0  0  0  0  0  0  0  0  0  0  0
    3.8434   -3.8702    1.0246 C   0  0  2  0  0  0  0  0  0  0  0  0
    2.8100   -2.7357    1.3445 C   0  0  0  0  0  0  0  0  0  0  0  0
   -0.5185   -9.4767    2.0911 H   0  0  0  0  0  0  0  0  0  0  0  0
    0.7278   -9.6243    3.3254 H   0  0  0  0  0  0  0  0  0  0  0  0
    0.9979  -10.2457    1.6811 H   0  0  0  0  0  0  0  0  0  0  0  0
    3.1432   -9.9515    1.9740 H   0  0  0  0  0  0  0  0  0  0  0  0
    5.4527   -9.3467    2.2165 H   0  0  0  0  0  0  0  0  0  0  0  0
    1.9975   -5.8188    2.0442 H   0  0  0  0  0  0  0  0  0  0  0  0
    2.6545   -4.3793    3.5617 H   0  0  0  0  0  0  0  0  0  0  0  0
    4.1090   -4.4844    4.4826 H   0  0  0  0  0  0  0  0  0  0  0  0
    3.0252   -2.2250    4.5240 H   0  0  0  0  0  0  0  0  0  0  0  0
    4.6523   -2.1420    3.9739 H   0  0  0  0  0  0  0  0  0  0  0  0
    3.0037    0.2169    2.0152 H   0  0  0  0  0  0  0  0  0  0  0  0
    4.3825   -0.1194    2.9818 H   0  0  0  0  0  0  0  0  0  0  0  0
    4.0899   -0.6408   -0.0522 H   0  0  0  0  0  0  0  0  0  0  0  0
    4.8841    0.6802    0.6973 H   0  0  0  0  0  0  0  0  0  0  0  0
    6.5129   -0.9465   -0.2137 H   0  0  0  0  0  0  0  0  0  0  0  0
    6.7483   -0.6632    1.5040 H   0  0  0  0  0  0  0  0  0  0  0  0
    5.4275   -2.3578    2.0243 H   0  0  0  0  0  0  0  0  0  0  0  0
    4.9804   -4.3466    0.0678 H   0  0  0  0  0  0  0  0  0  0  0  0
    5.7890   -4.5654   -1.5812 H   0  0  0  0  0  0  0  0  0  0  0  0
    6.1755   -2.8860   -1.6528 H   0  0  0  0  0  0  0  0  0  0  0  0
    7.7691   -4.9124   -0.2724 H   0  0  0  0  0  0  0  0  0  0  0  0
    8.1144   -2.0502   -0.3708 H   0  0  0  0  0  0  0  0  0  0  0  0
    8.6873   -3.1559   -1.4639 H   0  0  0  0  0  0  0  0  0  0  0  0
    6.6388   -4.6648    1.1408 H   0  0  0  0  0  0  0  0  0  0  0  0
    6.1222   -3.7341    3.3625 H   0  0  0  0  0  0  0  0  0  0  0  0
    7.8193   -5.4412    3.2138 H   0  0  0  0  0  0  0  0  0  0  0  0
    6.4068   -5.7845    4.1869 H   0  0  0  0  0  0  0  0  0  0  0  0
    7.4298   -8.7196    1.9148 H   0  0  0  0  0  0  0  0  0  0  0  0
    7.4877   -8.2679    3.6315 H   0  0  0  0  0  0  0  0  0  0  0  0
    8.5164   -7.4653    2.4609 H   0  0  0  0  0  0  0  0  0  0  0  0
    3.1934   -4.5575    0.4696 H   0  0  0  0  0  0  0  0  0  0  0  0
    1.8721   -3.1987    1.6445 H   0  0  0  0  0  0  0  0  0  0  0  0
    2.5607   -2.1651    0.4490 H   0  0  0  0  0  0  0  0  0  0  0  0
    9.2198   -3.1480    0.0819 H   0  0  0  0  0  0  0  0  0  0  0  0
    2.2467   -1.4942    2.7675 H   0  0  0  0  0  0  0  0  0  0  0  0
  1  2  1  0
  1 28  1  0
  1 29  1  0
  1 30  1  0
  2  3  1  0
  3  8  2  0
  3  4  1  0
  4  5  2  0
  4 31  1  0
  5  6  1  0
  5 32  1  0
  6 24  1  0
  6  7  2  0
  7  8  1  0
  7  9  1  0
  8 33  1  0
  9 22  1  0
  9 26  1  0
  9 10  1  1
 10 11  1  0
 10 34  1  0
 10 35  1  0
 11 12  1  0
 11 36  1  0
 11 37  1  0
 12 27  1  0
 12 13  1  0
 12 62  1  1
 13 14  1  0
 13 38  1  0
 13 39  1  0
 14 15  1  0
 14 40  1  0
 14 41  1  0
 15 16  1  0
 15 42  1  0
 15 43  1  0
 16 21  1  0
 16 17  1  0
 16 44  1  1
 17 18  1  0
 17 26  1  0
 17 45  1  6
 18 19  1  0
 18 46  1  0
 18 47  1  0
 19 20  1  0
 19 21  1  0
 19 48  1  1
 20 49  1  0
 20 50  1  0
 20 61  1  0
 21 22  1  0
 21 51  1  1
 22 23  1  0
 22 52  1  1
 23 24  1  0
 23 53  1  0
 23 54  1  0
 24 25  1  0
 25 55  1  0
 25 56  1  0
 25 57  1  0
 26 27  1  0
 26 58  1  6
 27 59  1  0
 27 60  1  0
M  CHG  2  12   1  20   1
M  END
>  <i_m_ct_stereo_status>  (284) 
1

>  <s_m_source_file>  (284) 
/var/tmp/pbs.5076255.sched01/tmpyqr7shjn/887d44c5qo.sdf

>  <i_m_source_file_index>  (284) 
34

>  <i_lp_mmshare_version>  (284) 
48012

>  <i_f3d_flags>  (284) 
0

>  <s_epik_input>  (284) 
W0NIM11PYyhbY0hdMSlbY0hdW2NIXWMoYzFbQ0BAXTIzNClOKFtDSDNdKVtDSDJdW0NASF0zW0NASF01W0NASF02W0NASF0oW0NIMl1bQ0BIXTVbTkgyXSlbQ0BASF00W0NIMl1OKFtDSDJdW0NIMl0yKVtDSDJdW0NIMl1bQ0gyXTY=

>  <s_epik_cmdline>  (284) 
J2VwaWtfcHl0aG9uJywgJy1waHQnLCAnMi4wJywgJy1waCcsICc3LjAnLCAnLXRuJywgJzgnLCAnLW1hJywgJzIwMCcsICctaW1hZScsICc8aW5maWxlLm1hZT4nLCAnLW9tYWUnLCAnPG91dGZpbGUubWFlPic=

>  <r_lp_tautomer_probability>  (284) 
1

>  <r_epik_Ionization_Penalty>  (284) 
0.110383

>  <r_epik_Ionization_Penalty_Charging>  (284) 
0.00109107

>  <r_epik_Ionization_Penalty_Neutral>  (284) 
0.109292

>  <r_epik_State_Penalty>  (284) 
0.0990671

>  <r_epik_Charging_Adjusted_Penalty>  (284) 
0.100158

>  <i_epik_Tot_Q>  (284) 
2

>  <i_epik_Tot_abs_Q>  (284) 
2

>  <s_lp_Force_Field>  (284) 
OPLS3e

>  <r_lp_Energy>  (284) 
292.234

>  <b_lp_Chiralities_Consistent>  (284) 
1

>  <s_lp_Variant>  (284) 
86:0-2

>  <s_i_glide_gridfile>  (284) 
pfpi4k_grid

>  <i_i_glide_lignum>  (284) 
34

>  <i_i_glide_rotatable_bonds>  (284) 
1

>  <r_i_docking_score>  (284) 
-3.18331

>  <r_i_glide_ligand_efficiency>  (284) 
-0.1179

>  <r_i_glide_ligand_efficiency_sa>  (284) 
-0.353701

>  <r_i_glide_ligand_efficiency_ln>  (284) 
-0.741023

>  <r_i_glide_gscore>  (284) 
-3.18331

>  <r_i_glide_lipo>  (284) 
-0.752373

>  <r_i_glide_hbond>  (284) 
0

>  <r_i_glide_metal>  (284) 
-0

>  <r_i_glide_rewards>  (284) 
-0.917569

>  <r_i_glide_evdw>  (284) 
-18.1531

>  <r_i_glide_ecoul>  (284) 
-3.97408

>  <r_i_glide_erotb>  (284) 
0

>  <r_i_glide_esite>  (284) 
-0.00960524

>  <r_i_glide_emodel>  (284) 
-26.2052

>  <r_i_glide_energy>  (284) 
-22.1271

>  <r_i_glide_einternal>  (284) 
1.02351

>  <r_i_glide_intrahb_reward>  (284) 
-0

>  <i_i_glide_confnum>  (284) 
2

>  <i_i_glide_posenum>  (284) 
17

>  <r_i_glide_eff_state_penalty>  (284) 
0

>  <ligand_id>  (284) 
86

>  <original_smiles>  (284) 
COc1ccc2c(c1)C13CCN4CCCC5C(CC(N)C5C1CN2C)C3C4

>  <smiles>  (284) 
[H]c1c([H])c2c(c([H])c1OC([H])([H])[H])C13C([H])([H])C([H])([H])[N+]4([H])C([H])([H])C([H])([H])C([H])([H])C5([H])C([H])(C([H])([H])C([H])([N+]([H])([H])[H])C5([H])C1([H])C([H])([H])N2C([H])([H])[H])C3([H])C4([H])[H]

$$$$
86:2:0
     RDKit          3D

 63 68  0  0  1  0  0  0  0  0999 V2000
    9.3567   -5.7371    2.3416 C   0  0  0  0  0  0  0  0  0  0  0  0
    8.1593   -6.0781    3.0257 O   0  0  0  0  0  0  0  0  0  0  0  0
    7.9518   -7.3975    3.3295 C   0  0  0  0  0  0  0  0  0  0  0  0
    8.9756   -8.2836    3.7695 C   0  0  0  0  0  0  0  0  0  0  0  0
    8.6529   -9.6115    4.0781 C   0  0  0  0  0  0  0  0  0  0  0  0
    7.3331  -10.0954    3.9351 C   0  0  0  0  0  0  0  0  0  0  0  0
    6.2660   -9.2111    3.5439 C   0  0  0  0  0  0  0  0  0  0  0  0
    6.6323   -7.8844    3.2437 C   0  0  0  0  0  0  0  0  0  0  0  0
    4.7761   -9.6613    3.4076 C   0  0  1  0  0  0  0  0  0  0  0  0
    4.4500   -9.5792    1.8791 C   0  0  0  0  0  0  0  0  0  0  0  0
    2.9656   -9.7923    1.5303 C   0  0  0  0  0  0  0  0  0  0  0  0
    2.0521   -8.8507    2.2226 N   0  0  1  0  0  0  0  0  0  0  0  0
    0.7093   -9.3775    2.5666 C   0  0  0  0  0  0  0  0  0  0  0  0
    0.5620   -9.8728    4.0172 C   0  0  0  0  0  0  0  0  0  0  0  0
    1.5605  -10.9730    4.3996 C   0  0  0  0  0  0  0  0  0  0  0  0
    2.7060  -10.5601    5.3761 C   0  0  2  0  0  0  0  0  0  0  0  0
    3.2572   -9.1281    5.5528 C   0  0  2  0  0  0  0  0  0  0  0  0
    3.8987   -9.4317    6.9706 C   0  0  0  0  0  0  0  0  0  0  0  0
    4.4149  -10.9266    6.8868 C   0  0  1  0  0  0  0  0  0  0  0  0
    3.8215  -11.7931    7.9273 N   0  0  0  0  0  0  0  0  0  0  0  0
    4.0138  -11.3810    5.4132 C   0  0  1  0  0  0  0  0  0  0  0  0
    4.6051  -11.1684    3.9396 C   0  0  2  0  0  0  0  0  0  0  0  0
    5.8275  -12.0493    3.6055 C   0  0  0  0  0  0  0  0  0  0  0  0
    7.0572  -11.5581    4.2362 N   0  0  1  0  0  0  0  0  0  0  0  0
    8.1748  -12.4935    3.9830 C   0  0  0  0  0  0  0  0  0  0  0  0
    3.7864   -8.6265    4.1451 C   0  0  2  0  0  0  0  0  0  0  0  0
    2.6767   -7.9823    3.2490 C   0  0  0  0  0  0  0  0  0  0  0  0
    9.3533   -4.6665    2.1410 H   0  0  0  0  0  0  0  0  0  0  0  0
    9.3989   -6.2313    1.3712 H   0  0  0  0  0  0  0  0  0  0  0  0
   10.2607   -5.9582    2.9092 H   0  0  0  0  0  0  0  0  0  0  0  0
   10.0014   -7.9515    3.8716 H   0  0  0  0  0  0  0  0  0  0  0  0
    9.4700  -10.2573    4.3884 H   0  0  0  0  0  0  0  0  0  0  0  0
    5.8876   -7.1705    2.9027 H   0  0  0  0  0  0  0  0  0  0  0  0
    4.7120   -8.5991    1.4801 H   0  0  0  0  0  0  0  0  0  0  0  0
    5.0773  -10.2627    1.3072 H   0  0  0  0  0  0  0  0  0  0  0  0
    2.8237   -9.6722    0.4609 H   0  0  0  0  0  0  0  0  0  0  0  0
    2.6771  -10.8149    1.6954 H   0  0  0  0  0  0  0  0  0  0  0  0
   -0.0109   -8.5774    2.4062 H   0  0  0  0  0  0  0  0  0  0  0  0
    0.4172  -10.1605    1.8716 H   0  0  0  0  0  0  0  0  0  0  0  0
    0.5803   -9.0605    4.7408 H   0  0  0  0  0  0  0  0  0  0  0  0
   -0.4456  -10.2729    4.1084 H   0  0  0  0  0  0  0  0  0  0  0  0
    0.9914  -11.7622    4.8992 H   0  0  0  0  0  0  0  0  0  0  0  0
    1.8813  -11.4995    3.5142 H   0  0  0  0  0  0  0  0  0  0  0  0
    2.1409  -10.7479    6.2892 H   0  0  0  0  0  0  0  0  0  0  0  0
    4.3328   -8.9986    5.5708 H   0  0  0  0  0  0  0  0  0  0  0  0
    4.6562   -8.7361    7.3632 H   0  0  0  0  0  0  0  0  0  0  0  0
    3.1072   -9.3567    7.7218 H   0  0  0  0  0  0  0  0  0  0  0  0
    5.4840  -10.9839    7.1574 H   0  0  0  0  0  0  0  0  0  0  0  0
    2.7832  -11.8564    7.8400 H   0  0  0  0  0  0  0  0  0  0  0  0
    4.0565  -11.4829    8.8566 H   0  0  0  0  0  0  0  0  0  0  0  0
    4.9641  -10.8780    5.4111 H   0  0  0  0  0  0  0  0  0  0  0  0
    3.8814  -11.6369    3.2900 H   0  0  0  0  0  0  0  0  0  0  0  0
    5.6313  -13.0761    3.9103 H   0  0  0  0  0  0  0  0  0  0  0  0
    5.9872  -12.0934    2.5271 H   0  0  0  0  0  0  0  0  0  0  0  0
    9.0159  -12.3263    4.6474 H   0  0  0  0  0  0  0  0  0  0  0  0
    8.5228  -12.4098    2.9573 H   0  0  0  0  0  0  0  0  0  0  0  0
    7.8744  -13.5282    4.1408 H   0  0  0  0  0  0  0  0  0  0  0  0
    4.3359   -7.6883    4.3120 H   0  0  0  0  0  0  0  0  0  0  0  0
    3.1084   -7.1539    2.6907 H   0  0  0  0  0  0  0  0  0  0  0  0
    1.9220   -7.4912    3.8552 H   0  0  0  0  0  0  0  0  0  0  0  0
    4.1457  -12.7408    7.8317 H   0  0  0  0  0  0  0  0  0  0  0  0
    1.8275   -8.2049    1.4779 H   0  0  0  0  0  0  0  0  0  0  0  0
    6.8864  -11.6355    5.2309 H   0  0  0  0  0  0  0  0  0  0  0  0
  1  2  1  0
  1 28  1  0
  1 29  1  0
  1 30  1  0
  2  3  1  0
  3  8  2  0
  3  4  1  0
  4  5  2  0
  4 31  1  0
  5  6  1  0
  5 32  1  0
  6 24  1  0
  6  7  2  0
  7  8  1  0
  7  9  1  0
  8 33  1  0
  9 22  1  0
  9 26  1  0
  9 10  1  6
 10 11  1  0
 10 34  1  0
 10 35  1  0
 11 12  1  0
 11 36  1  0
 11 37  1  0
 12 27  1  0
 12 13  1  0
 12 62  1  6
 13 14  1  0
 13 38  1  0
 13 39  1  0
 14 15  1  0
 14 40  1  0
 14 41  1  0
 15 16  1  0
 15 42  1  0
 15 43  1  0
 16 21  1  0
 16 17  1  0
 16 44  1  1
 17 18  1  0
 17 26  1  0
 17 45  1  1
 18 19  1  0
 18 46  1  0
 18 47  1  0
 19 20  1  0
 19 21  1  0
 19 48  1  6
 20 49  1  0
 20 50  1  0
 20 61  1  0
 21 22  1  0
 21 51  1  1
 22 23  1  0
 22 52  1  6
 23 24  1  0
 23 53  1  0
 23 54  1  0
 24 25  1  0
 24 63  1  1
 25 55  1  0
 25 56  1  0
 25 57  1  0
 26 27  1  0
 26 58  1  1
 27 59  1  0
 27 60  1  0
M  CHG  3  12   1  20   1  24   1
M  END
>  <i_m_ct_stereo_status>  (285) 
1

>  <s_m_source_file>  (285) 
/var/tmp/pbs.5076255.sched01/tmpyqr7shjn/887d44c5qo.sdf

>  <i_m_source_file_index>  (285) 
35

>  <i_lp_mmshare_version>  (285) 
48012

>  <i_f3d_flags>  (285) 
0

>  <s_epik_input>  (285) 
W0NIM11PYyhbY0hdMSlbY0hdW2NIXWMoYzFbQ0BAXTIzNClOKFtDSDNdKVtDSDJdW0NASF0zW0NASF01W0NASF02W0NASF0oW0NIMl1bQ0BIXTVbTkgyXSlbQ0BASF00W0NIMl1OKFtDSDJdW0NIMl0yKVtDSDJdW0NIMl1bQ0gyXTY=

>  <s_epik_cmdline>  (285) 
J2VwaWtfcHl0aG9uJywgJy1waHQnLCAnMi4wJywgJy1waCcsICc3LjAnLCAnLXRuJywgJzgnLCAnLW1hJywgJzIwMCcsICctaW1hZScsICc8aW5maWxlLm1hZT4nLCAnLW9tYWUnLCAnPG91dGZpbGUubWFlPic=

>  <r_epik_Ionization_Penalty>  (285) 
1.05779

>  <r_epik_Ionization_Penalty_Charging>  (285) 
1.05779

>  <r_epik_Ionization_Penalty_Neutral>  (285) 
0

>  <r_epik_State_Penalty>  (285) 
1.10852

>  <r_epik_Charging_Adjusted_Penalty>  (285) 
2.16631

>  <i_epik_Tot_Q>  (285) 
3

>  <i_epik_Tot_abs_Q>  (285) 
3

>  <s_lp_Force_Field>  (285) 
OPLS3e

>  <r_lp_Energy>  (285) 
286.4

>  <b_lp_Chiralities_Consistent>  (285) 
1

>  <s_lp_Variant>  (285) 
86:0-3

>  <s_i_glide_gridfile>  (285) 
pfpi4k_grid

>  <i_i_glide_lignum>  (285) 
35

>  <i_i_glide_rotatable_bonds>  (285) 
1

>  <r_i_docking_score>  (285) 
-4.03077

>  <r_i_glide_ligand_efficiency>  (285) 
-0.149288

>  <r_i_glide_ligand_efficiency_sa>  (285) 
-0.447863

>  <r_i_glide_ligand_efficiency_ln>  (285) 
-0.938297

>  <r_i_glide_gscore>  (285) 
-4.03077

>  <r_i_glide_lipo>  (285) 
-0.06072

>  <r_i_glide_hbond>  (285) 
-0.199519

>  <r_i_glide_metal>  (285) 
-0

>  <r_i_glide_rewards>  (285) 
-0.882604

>  <r_i_glide_evdw>  (285) 
-14.8723

>  <r_i_glide_ecoul>  (285) 
-13.6213

>  <r_i_glide_erotb>  (285) 
0

>  <r_i_glide_esite>  (285) 
-0.10112

>  <r_i_glide_emodel>  (285) 
-39.4555

>  <r_i_glide_energy>  (285) 
-28.4936

>  <r_i_glide_einternal>  (285) 
2.40029

>  <r_i_glide_intrahb_reward>  (285) 
-0

>  <i_i_glide_confnum>  (285) 
1

>  <i_i_glide_posenum>  (285) 
31

>  <r_i_glide_eff_state_penalty>  (285) 
0

>  <ligand_id>  (285) 
86

>  <original_smiles>  (285) 
COc1ccc2c(c1)C13CCN4CCCC5C(CC(N)C5C1CN2C)C3C4

>  <smiles>  (285) 
[H]c1c([H])c2c(c([H])c1OC([H])([H])[H])C13C([H])([H])C([H])([H])[N+]4([H])C([H])([H])C([H])([H])C([H])([H])C5([H])C([H])(C([H])([H])C([H])([N+]([H])([H])[H])C5([H])C1([H])C([H])([H])[N+]2([H])C([H])([H])[H])C3([H])C4([H])[H]

$$$$
86:2:1
     RDKit          3D

 63 68  0  0  1  0  0  0  0  0999 V2000
    2.9075   -3.7180    0.5743 C   0  0  0  0  0  0  0  0  0  0  0  0
    4.2936   -3.5749    0.8751 O   0  0  0  0  0  0  0  0  0  0  0  0
    4.9148   -4.6428    1.4864 C   0  0  0  0  0  0  0  0  0  0  0  0
    6.2877   -4.5312    1.7559 C   0  0  0  0  0  0  0  0  0  0  0  0
    6.9881   -5.5861    2.3794 C   0  0  0  0  0  0  0  0  0  0  0  0
    6.3124   -6.7725    2.7505 C   0  0  0  0  0  0  0  0  0  0  0  0
    4.9022   -6.8950    2.5249 C   0  0  0  0  0  0  0  0  0  0  0  0
    4.2480   -5.8450    1.8714 C   0  0  0  0  0  0  0  0  0  0  0  0
    4.0552   -8.1385    2.9082 C   0  0  1  0  0  0  0  0  0  0  0  0
    3.6166   -8.7601    1.5454 C   0  0  0  0  0  0  0  0  0  0  0  0
    2.5876   -9.8974    1.6692 C   0  0  0  0  0  0  0  0  0  0  0  0
    1.3538   -9.5192    2.3930 N   0  0  1  0  0  0  0  0  0  0  0  0
    0.7114  -10.5897    3.1862 C   0  0  0  0  0  0  0  0  0  0  0  0
    1.0503  -10.5720    4.6845 C   0  0  0  0  0  0  0  0  0  0  0  0
    2.5574  -10.6688    4.9629 C   0  0  0  0  0  0  0  0  0  0  0  0
    3.2457   -9.3808    5.4949 C   0  0  2  0  0  0  0  0  0  0  0  0
    2.7474   -7.9483    5.2374 C   0  0  2  0  0  0  0  0  0  0  0  0
    3.5590   -7.3234    6.4420 C   0  0  0  0  0  0  0  0  0  0  0  0
    4.9138   -8.1301    6.4805 C   0  0  1  0  0  0  0  0  0  0  0  0
    5.1162   -8.7842    7.7869 N   0  0  0  0  0  0  0  0  0  0  0  0
    4.7660   -9.2011    5.3155 C   0  0  1  0  0  0  0  0  0  0  0  0
    4.9465   -9.1771    3.7295 C   0  0  2  0  0  0  0  0  0  0  0  0
    6.4137   -9.2053    3.2445 C   0  0  0  0  0  0  0  0  0  0  0  0
    7.0928   -7.9097    3.3968 N   0  0  1  0  0  0  0  0  0  0  0  0
    8.5141   -8.0138    3.0047 C   0  0  0  0  0  0  0  0  0  0  0  0
    2.6985   -7.7149    3.6784 C   0  0  2  0  0  0  0  0  0  0  0  0
    1.3625   -8.1805    3.0160 C   0  0  0  0  0  0  0  0  0  0  0  0
    2.4850   -2.8393    0.0868 H   0  0  0  0  0  0  0  0  0  0  0  0
    2.3320   -3.8844    1.4881 H   0  0  0  0  0  0  0  0  0  0  0  0
    2.7536   -4.5687   -0.0941 H   0  0  0  0  0  0  0  0  0  0  0  0
    6.8210   -3.6212    1.4935 H   0  0  0  0  0  0  0  0  0  0  0  0
    8.0442   -5.4526    2.5730 H   0  0  0  0  0  0  0  0  0  0  0  0
    3.2016   -5.9898    1.6715 H   0  0  0  0  0  0  0  0  0  0  0  0
    3.1552   -8.0051    0.9064 H   0  0  0  0  0  0  0  0  0  0  0  0
    4.4706   -9.1218    0.9772 H   0  0  0  0  0  0  0  0  0  0  0  0
    2.3031  -10.1941    0.6604 H   0  0  0  0  0  0  0  0  0  0  0  0
    3.0497  -10.7833    2.0919 H   0  0  0  0  0  0  0  0  0  0  0  0
   -0.3658  -10.4733    3.0986 H   0  0  0  0  0  0  0  0  0  0  0  0
    0.9235  -11.5734    2.7662 H   0  0  0  0  0  0  0  0  0  0  0  0
    0.6047   -9.7195    5.2023 H   0  0  0  0  0  0  0  0  0  0  0  0
    0.5658  -11.4427    5.1280 H   0  0  0  0  0  0  0  0  0  0  0  0
    2.6740  -11.4163    5.7515 H   0  0  0  0  0  0  0  0  0  0  0  0
    3.0517  -11.1608    4.1372 H   0  0  0  0  0  0  0  0  0  0  0  0
    3.0224   -9.5641    6.5478 H   0  0  0  0  0  0  0  0  0  0  0  0
    3.4833   -7.2225    4.9258 H   0  0  0  0  0  0  0  0  0  0  0  0
    3.7244   -6.2336    6.4467 H   0  0  0  0  0  0  0  0  0  0  0  0
    2.9907   -7.4922    7.3605 H   0  0  0  0  0  0  0  0  0  0  0  0
    5.7676   -7.4360    6.4182 H   0  0  0  0  0  0  0  0  0  0  0  0
    4.3560   -9.4187    7.9934 H   0  0  0  0  0  0  0  0  0  0  0  0
    5.1685   -8.0849    8.5134 H   0  0  0  0  0  0  0  0  0  0  0  0
    5.1545   -8.2773    4.9359 H   0  0  0  0  0  0  0  0  0  0  0  0
    4.6444  -10.1645    3.4126 H   0  0  0  0  0  0  0  0  0  0  0  0
    6.9453   -9.9875    3.7875 H   0  0  0  0  0  0  0  0  0  0  0  0
    6.4364   -9.4956    2.1932 H   0  0  0  0  0  0  0  0  0  0  0  0
    9.1007   -7.1704    3.3689 H   0  0  0  0  0  0  0  0  0  0  0  0
    8.6127   -8.0672    1.9219 H   0  0  0  0  0  0  0  0  0  0  0  0
    8.9756   -8.9068    3.4327 H   0  0  0  0  0  0  0  0  0  0  0  0
    2.5140   -6.6436    3.5253 H   0  0  0  0  0  0  0  0  0  0  0  0
    1.1406   -7.5017    2.1970 H   0  0  0  0  0  0  0  0  0  0  0  0
    0.5241   -8.0568    3.6983 H   0  0  0  0  0  0  0  0  0  0  0  0
    5.9798   -9.3065    7.7725 H   0  0  0  0  0  0  0  0  0  0  0  0
    0.7027   -9.4377    1.6159 H   0  0  0  0  0  0  0  0  0  0  0  0
    7.1227   -7.7462    4.3921 H   0  0  0  0  0  0  0  0  0  0  0  0
  1  2  1  0
  1 28  1  0
  1 29  1  0
  1 30  1  0
  2  3  1  0
  3  8  2  0
  3  4  1  0
  4  5  2  0
  4 31  1  0
  5  6  1  0
  5 32  1  0
  6 24  1  0
  6  7  2  0
  7  8  1  0
  7  9  1  0
  8 33  1  0
  9 22  1  0
  9 26  1  0
  9 10  1  6
 10 11  1  0
 10 34  1  0
 10 35  1  0
 11 12  1  0
 11 36  1  0
 11 37  1  0
 12 27  1  0
 12 13  1  0
 12 62  1  6
 13 14  1  0
 13 38  1  0
 13 39  1  0
 14 15  1  0
 14 40  1  0
 14 41  1  0
 15 16  1  0
 15 42  1  0
 15 43  1  0
 16 21  1  0
 16 17  1  0
 16 44  1  1
 17 18  1  0
 17 26  1  0
 17 45  1  1
 18 19  1  0
 18 46  1  0
 18 47  1  0
 19 20  1  0
 19 21  1  0
 19 48  1  6
 20 49  1  0
 20 50  1  0
 20 61  1  0
 21 22  1  0
 21 51  1  1
 22 23  1  0
 22 52  1  6
 23 24  1  0
 23 53  1  0
 23 54  1  0
 24 25  1  0
 24 63  1  1
 25 55  1  0
 25 56  1  0
 25 57  1  0
 26 27  1  0
 26 58  1  1
 27 59  1  0
 27 60  1  0
M  CHG  3  12   1  20   1  24   1
M  END
>  <i_m_ct_stereo_status>  (286) 
1

>  <s_m_source_file>  (286) 
/var/tmp/pbs.5076255.sched01/tmpyqr7shjn/887d44c5qo.sdf

>  <i_m_source_file_index>  (286) 
35

>  <i_lp_mmshare_version>  (286) 
48012

>  <i_f3d_flags>  (286) 
0

>  <s_epik_input>  (286) 
W0NIM11PYyhbY0hdMSlbY0hdW2NIXWMoYzFbQ0BAXTIzNClOKFtDSDNdKVtDSDJdW0NASF0zW0NASF01W0NASF02W0NASF0oW0NIMl1bQ0BIXTVbTkgyXSlbQ0BASF00W0NIMl1OKFtDSDJdW0NIMl0yKVtDSDJdW0NIMl1bQ0gyXTY=

>  <s_epik_cmdline>  (286) 
J2VwaWtfcHl0aG9uJywgJy1waHQnLCAnMi4wJywgJy1waCcsICc3LjAnLCAnLXRuJywgJzgnLCAnLW1hJywgJzIwMCcsICctaW1hZScsICc8aW5maWxlLm1hZT4nLCAnLW9tYWUnLCAnPG91dGZpbGUubWFlPic=

>  <r_epik_Ionization_Penalty>  (286) 
1.05779

>  <r_epik_Ionization_Penalty_Charging>  (286) 
1.05779

>  <r_epik_Ionization_Penalty_Neutral>  (286) 
0

>  <r_epik_State_Penalty>  (286) 
1.10852

>  <r_epik_Charging_Adjusted_Penalty>  (286) 
2.16631

>  <i_epik_Tot_Q>  (286) 
3

>  <i_epik_Tot_abs_Q>  (286) 
3

>  <s_lp_Force_Field>  (286) 
OPLS3e

>  <r_lp_Energy>  (286) 
286.4

>  <b_lp_Chiralities_Consistent>  (286) 
1

>  <s_lp_Variant>  (286) 
86:0-3

>  <s_i_glide_gridfile>  (286) 
pfpi4k_grid

>  <i_i_glide_lignum>  (286) 
35

>  <i_i_glide_rotatable_bonds>  (286) 
1

>  <r_i_docking_score>  (286) 
-3.05885

>  <r_i_glide_ligand_efficiency>  (286) 
-0.113291

>  <r_i_glide_ligand_efficiency_sa>  (286) 
-0.339873

>  <r_i_glide_ligand_efficiency_ln>  (286) 
-0.71205

>  <r_i_glide_gscore>  (286) 
-3.05885

>  <r_i_glide_lipo>  (286) 
-0.257259

>  <r_i_glide_hbond>  (286) 
0

>  <r_i_glide_metal>  (286) 
-0

>  <r_i_glide_rewards>  (286) 
-0.882604

>  <r_i_glide_evdw>  (286) 
-16.698

>  <r_i_glide_ecoul>  (286) 
-7.22726

>  <r_i_glide_erotb>  (286) 
0

>  <r_i_glide_esite>  (286) 
0

>  <r_i_glide_emodel>  (286) 
-31.2715

>  <r_i_glide_energy>  (286) 
-23.9253

>  <r_i_glide_einternal>  (286) 
3.70959

>  <r_i_glide_intrahb_reward>  (286) 
-0

>  <i_i_glide_confnum>  (286) 
1

>  <i_i_glide_posenum>  (286) 
1

>  <r_i_glide_eff_state_penalty>  (286) 
0

>  <ligand_id>  (286) 
86

>  <original_smiles>  (286) 
COc1ccc2c(c1)C13CCN4CCCC5C(CC(N)C5C1CN2C)C3C4

>  <smiles>  (286) 
[H]c1c([H])c2c(c([H])c1OC([H])([H])[H])C13C([H])([H])C([H])([H])[N+]4([H])C([H])([H])C([H])([H])C([H])([H])C5([H])C([H])(C([H])([H])C([H])([N+]([H])([H])[H])C5([H])C1([H])C([H])([H])[N+]2([H])C([H])([H])[H])C3([H])C4([H])[H]

$$$$
86:3:0
     RDKit          3D

 63 68  0  0  1  0  0  0  0  0999 V2000
   -1.3672   -8.1203    2.3744 C   0  0  0  0  0  0  0  0  0  0  0  0
   -0.5900   -6.9340    2.2339 O   0  0  0  0  0  0  0  0  0  0  0  0
    0.7756   -7.0321    2.3834 C   0  0  0  0  0  0  0  0  0  0  0  0
    1.4811   -8.2542    2.4508 C   0  0  0  0  0  0  0  0  0  0  0  0
    2.8783   -8.2483    2.5965 C   0  0  0  0  0  0  0  0  0  0  0  0
    3.5908   -7.0285    2.6760 C   0  0  0  0  0  0  0  0  0  0  0  0
    2.9091   -5.7793    2.6003 C   0  0  0  0  0  0  0  0  0  0  0  0
    1.4979   -5.8216    2.4630 C   0  0  0  0  0  0  0  0  0  0  0  0
    3.6246   -4.3914    2.6627 C   0  0  1  0  0  0  0  0  0  0  0  0
    3.0260   -3.5960    3.8861 C   0  0  0  0  0  0  0  0  0  0  0  0
    3.3827   -2.0803    3.9618 C   0  0  0  0  0  0  0  0  0  0  0  0
    3.0722   -1.3214    2.7081 N   0  0  1  0  0  0  0  0  0  0  0  0
    4.0473   -0.2245    2.3433 C   0  0  0  0  0  0  0  0  0  0  0  0
    4.9257   -0.3745    1.0491 C   0  0  0  0  0  0  0  0  0  0  0  0
    6.0884   -1.4144    1.0332 C   0  0  0  0  0  0  0  0  0  0  0  0
    5.5003   -2.7716    1.3843 C   0  0  1  0  0  0  0  0  0  0  0  0
    4.4511   -3.2544    0.4007 C   0  0  2  0  0  0  0  0  0  0  0  0
    5.4057   -3.9925   -0.5962 C   0  0  0  0  0  0  0  0  0  0  0  0
    6.6066   -4.4796    0.2808 C   0  0  1  0  0  0  0  0  0  0  0  0
    7.8849   -3.8580   -0.1377 N   0  0  0  0  0  0  0  0  0  0  0  0
    6.2329   -4.0579    1.7509 C   0  0  1  0  0  0  0  0  0  0  0  0
    5.2266   -4.5714    2.9058 C   0  0  2  0  0  0  0  0  0  0  0  0
    5.6006   -5.9057    3.5954 C   0  0  0  0  0  0  0  0  0  0  0  0
    5.1073   -7.0672    2.8308 N   0  0  1  0  0  0  0  0  0  0  0  0
    5.6847   -8.3286    3.3638 C   0  0  0  0  0  0  0  0  0  0  0  0
    3.2377   -3.5305    1.3436 C   0  0  2  0  0  0  0  0  0  0  0  0
    2.5148   -2.1626    1.6100 C   0  0  0  0  0  0  0  0  0  0  0  0
   -2.4193   -7.8768    2.2340 H   0  0  0  0  0  0  0  0  0  0  0  0
   -1.2617   -8.5511    3.3697 H   0  0  0  0  0  0  0  0  0  0  0  0
   -1.1150   -8.8764    1.6334 H   0  0  0  0  0  0  0  0  0  0  0  0
    0.9787   -9.2098    2.3852 H   0  0  0  0  0  0  0  0  0  0  0  0
    3.3685   -9.2069    2.6380 H   0  0  0  0  0  0  0  0  0  0  0  0
    0.9409   -4.9015    2.4178 H   0  0  0  0  0  0  0  0  0  0  0  0
    1.9358   -3.6409    3.8718 H   0  0  0  0  0  0  0  0  0  0  0  0
    3.3057   -4.0785    4.8204 H   0  0  0  0  0  0  0  0  0  0  0  0
    2.8212   -1.6190    4.7774 H   0  0  0  0  0  0  0  0  0  0  0  0
    4.4272   -1.9595    4.2514 H   0  0  0  0  0  0  0  0  0  0  0  0
    3.4397    0.6683    2.1959 H   0  0  0  0  0  0  0  0  0  0  0  0
    4.6837    0.0253    3.1943 H   0  0  0  0  0  0  0  0  0  0  0  0
    4.2912   -0.5034    0.1684 H   0  0  0  0  0  0  0  0  0  0  0  0
    5.4063    0.5819    0.8839 H   0  0  0  0  0  0  0  0  0  0  0  0
    6.5597   -1.4135    0.0503 H   0  0  0  0  0  0  0  0  0  0  0  0
    6.8542   -1.1306    1.7567 H   0  0  0  0  0  0  0  0  0  0  0  0
    5.1403   -2.4330    2.3211 H   0  0  0  0  0  0  0  0  0  0  0  0
    4.2316   -4.3159    0.4229 H   0  0  0  0  0  0  0  0  0  0  0  0
    4.9781   -4.8015   -1.2075 H   0  0  0  0  0  0  0  0  0  0  0  0
    5.7514   -3.2636   -1.3309 H   0  0  0  0  0  0  0  0  0  0  0  0
    6.7924   -5.5523    0.1190 H   0  0  0  0  0  0  0  0  0  0  0  0
    7.8420   -2.8490   -0.0689 H   0  0  0  0  0  0  0  0  0  0  0  0
    8.0997   -4.1114   -1.0919 H   0  0  0  0  0  0  0  0  0  0  0  0
    5.7569   -4.9980    1.5290 H   0  0  0  0  0  0  0  0  0  0  0  0
    5.4777   -3.8987    3.7273 H   0  0  0  0  0  0  0  0  0  0  0  0
    6.6840   -5.9527    3.7235 H   0  0  0  0  0  0  0  0  0  0  0  0
    5.1675   -5.9395    4.5963 H   0  0  0  0  0  0  0  0  0  0  0  0
    5.5269   -9.1562    2.6706 H   0  0  0  0  0  0  0  0  0  0  0  0
    5.2519   -8.5888    4.3312 H   0  0  0  0  0  0  0  0  0  0  0  0
    6.7665   -8.2414    3.4894 H   0  0  0  0  0  0  0  0  0  0  0  0
    2.4428   -4.0467    0.7928 H   0  0  0  0  0  0  0  0  0  0  0  0
    1.4845   -2.3592    1.9024 H   0  0  0  0  0  0  0  0  0  0  0  0
    2.4303   -1.5766    0.6953 H   0  0  0  0  0  0  0  0  0  0  0  0
    8.6187   -4.1914    0.4664 H   0  0  0  0  0  0  0  0  0  0  0  0
    2.2671   -0.7721    2.9867 H   0  0  0  0  0  0  0  0  0  0  0  0
    5.5157   -6.9778    1.9132 H   0  0  0  0  0  0  0  0  0  0  0  0
  1  2  1  0
  1 28  1  0
  1 29  1  0
  1 30  1  0
  2  3  1  0
  3  8  2  0
  3  4  1  0
  4  5  2  0
  4 31  1  0
  5  6  1  0
  5 32  1  0
  6 24  1  0
  6  7  2  0
  7  8  1  0
  7  9  1  0
  8 33  1  0
  9 22  1  0
  9 26  1  0
  9 10  1  1
 10 11  1  0
 10 34  1  0
 10 35  1  0
 11 12  1  0
 11 36  1  0
 11 37  1  0
 12 27  1  0
 12 13  1  0
 12 62  1  1
 13 14  1  0
 13 38  1  0
 13 39  1  0
 14 15  1  0
 14 40  1  0
 14 41  1  0
 15 16  1  0
 15 42  1  0
 15 43  1  0
 16 21  1  0
 16 17  1  0
 16 44  1  1
 17 18  1  0
 17 26  1  0
 17 45  1  6
 18 19  1  0
 18 46  1  0
 18 47  1  0
 19 20  1  0
 19 21  1  0
 19 48  1  1
 20 49  1  0
 20 50  1  0
 20 61  1  0
 21 22  1  0
 21 51  1  1
 22 23  1  0
 22 52  1  1
 23 24  1  0
 23 53  1  0
 23 54  1  0
 24 25  1  0
 24 63  1  6
 25 55  1  0
 25 56  1  0
 25 57  1  0
 26 27  1  0
 26 58  1  6
 27 59  1  0
 27 60  1  0
M  CHG  3  12   1  20   1  24   1
M  END
>  <i_m_ct_stereo_status>  (287) 
1

>  <s_m_source_file>  (287) 
/var/tmp/pbs.5076255.sched01/tmpyqr7shjn/887d44c5qo.sdf

>  <i_m_source_file_index>  (287) 
36

>  <i_lp_mmshare_version>  (287) 
48012

>  <i_f3d_flags>  (287) 
0

>  <s_epik_input>  (287) 
W0NIM11PYyhbY0hdMSlbY0hdW2NIXWMoYzFbQ0BAXTIzNClOKFtDSDNdKVtDSDJdW0NASF0zW0NASF01W0NASF02W0NASF0oW0NIMl1bQ0BIXTVbTkgyXSlbQ0BASF00W0NIMl1OKFtDSDJdW0NIMl0yKVtDSDJdW0NIMl1bQ0gyXTY=

>  <s_epik_cmdline>  (287) 
J2VwaWtfcHl0aG9uJywgJy1waHQnLCAnMi4wJywgJy1waCcsICc3LjAnLCAnLXRuJywgJzgnLCAnLW1hJywgJzIwMCcsICctaW1hZScsICc8aW5maWxlLm1hZT4nLCAnLW9tYWUnLCAnPG91dGZpbGUubWFlPic=

>  <r_epik_Ionization_Penalty>  (287) 
1.05779

>  <r_epik_Ionization_Penalty_Charging>  (287) 
1.05779

>  <r_epik_Ionization_Penalty_Neutral>  (287) 
0

>  <r_epik_State_Penalty>  (287) 
1.10852

>  <r_epik_Charging_Adjusted_Penalty>  (287) 
2.16631

>  <i_epik_Tot_Q>  (287) 
3

>  <i_epik_Tot_abs_Q>  (287) 
3

>  <s_lp_Force_Field>  (287) 
OPLS3e

>  <r_lp_Energy>  (287) 
292.632

>  <b_lp_Chiralities_Consistent>  (287) 
1

>  <s_lp_Variant>  (287) 
86:0-4

>  <s_i_glide_gridfile>  (287) 
pfpi4k_grid

>  <i_i_glide_lignum>  (287) 
36

>  <i_i_glide_rotatable_bonds>  (287) 
1

>  <r_i_docking_score>  (287) 
-3.78947

>  <r_i_glide_ligand_efficiency>  (287) 
-0.140351

>  <r_i_glide_ligand_efficiency_sa>  (287) 
-0.421052

>  <r_i_glide_ligand_efficiency_ln>  (287) 
-0.882125

>  <r_i_glide_gscore>  (287) 
-3.78947

>  <r_i_glide_lipo>  (287) 
-0.719882

>  <r_i_glide_hbond>  (287) 
-0.16

>  <r_i_glide_metal>  (287) 
-0

>  <r_i_glide_rewards>  (287) 
-0.882604

>  <r_i_glide_evdw>  (287) 
-20.1402

>  <r_i_glide_ecoul>  (287) 
-6.77803

>  <r_i_glide_erotb>  (287) 
0

>  <r_i_glide_esite>  (287) 
-0.00326214

>  <r_i_glide_emodel>  (287) 
-33.7174

>  <r_i_glide_energy>  (287) 
-26.9183

>  <r_i_glide_einternal>  (287) 
0.21421

>  <r_i_glide_intrahb_reward>  (287) 
-0

>  <i_i_glide_confnum>  (287) 
2

>  <i_i_glide_posenum>  (287) 
10

>  <r_i_glide_eff_state_penalty>  (287) 
0

>  <ligand_id>  (287) 
86

>  <original_smiles>  (287) 
COc1ccc2c(c1)C13CCN4CCCC5C(CC(N)C5C1CN2C)C3C4

>  <smiles>  (287) 
[H]c1c([H])c2c(c([H])c1OC([H])([H])[H])C13C([H])([H])C([H])([H])[N+]4([H])C([H])([H])C([H])([H])C([H])([H])C5([H])C([H])(C([H])([H])C([H])([N+]([H])([H])[H])C5([H])C1([H])C([H])([H])[N+]2([H])C([H])([H])[H])C3([H])C4([H])[H]

$$$$
86:3:1
     RDKit          3D

 63 68  0  0  1  0  0  0  0  0999 V2000
   -1.5043   -7.7504    3.5654 C   0  0  0  0  0  0  0  0  0  0  0  0
   -0.6036   -6.6548    3.4853 O   0  0  0  0  0  0  0  0  0  0  0  0
    0.6246   -6.8456    2.8948 C   0  0  0  0  0  0  0  0  0  0  0  0
    1.0416   -8.0685    2.3306 C   0  0  0  0  0  0  0  0  0  0  0  0
    2.3113   -8.1709    1.7392 C   0  0  0  0  0  0  0  0  0  0  0  0
    3.1814   -7.0572    1.7011 C   0  0  0  0  0  0  0  0  0  0  0  0
    2.7875   -5.8034    2.2554 C   0  0  0  0  0  0  0  0  0  0  0  0
    1.4995   -5.7351    2.8532 C   0  0  0  0  0  0  0  0  0  0  0  0
    3.6905   -4.5276    2.2355 C   0  0  1  0  0  0  0  0  0  0  0  0
    3.9138   -4.0729    3.7273 C   0  0  0  0  0  0  0  0  0  0  0  0
    4.5341   -2.6577    3.9321 C   0  0  0  0  0  0  0  0  0  0  0  0
    3.8053   -1.5660    3.2108 N   0  0  1  0  0  0  0  0  0  0  0  0
    4.6696   -0.4630    2.6399 C   0  0  0  0  0  0  0  0  0  0  0  0
    4.7685   -0.2930    1.0794 C   0  0  0  0  0  0  0  0  0  0  0  0
    5.5672   -1.3452    0.2520 C   0  0  0  0  0  0  0  0  0  0  0  0
    4.9836   -2.7135    0.5572 C   0  0  1  0  0  0  0  0  0  0  0  0
    3.5225   -2.8465    0.1769 C   0  0  2  0  0  0  0  0  0  0  0  0
    3.7193   -3.3191   -1.2991 C   0  0  0  0  0  0  0  0  0  0  0  0
    5.0763   -4.1010   -1.2940 C   0  0  1  0  0  0  0  0  0  0  0  0
    6.0732   -3.4472   -2.1717 N   0  0  0  0  0  0  0  0  0  0  0  0
    5.5496   -4.0857    0.2087 C   0  0  1  0  0  0  0  0  0  0  0  0
    5.1471   -4.8497    1.5755 C   0  0  2  0  0  0  0  0  0  0  0  0
    5.5535   -6.3398    1.6706 C   0  0  0  0  0  0  0  0  0  0  0  0
    4.5470   -7.2176    1.0415 N   0  0  1  0  0  0  0  0  0  0  0  0
    5.0565   -8.6127    0.9274 C   0  0  0  0  0  0  0  0  0  0  0  0
    2.8873   -3.3142    1.5224 C   0  0  2  0  0  0  0  0  0  0  0  0
    2.6441   -2.0406    2.4035 C   0  0  0  0  0  0  0  0  0  0  0  0
   -2.4119   -7.4121    4.0625 H   0  0  0  0  0  0  0  0  0  0  0  0
   -1.0952   -8.5719    4.1537 H   0  0  0  0  0  0  0  0  0  0  0  0
   -1.7900   -8.1111    2.5776 H   0  0  0  0  0  0  0  0  0  0  0  0
    0.4065   -8.9447    2.3291 H   0  0  0  0  0  0  0  0  0  0  0  0
    2.5730   -9.1291    1.3203 H   0  0  0  0  0  0  0  0  0  0  0  0
    1.1495   -4.8098    3.2868 H   0  0  0  0  0  0  0  0  0  0  0  0
    2.9637   -4.0600    4.2653 H   0  0  0  0  0  0  0  0  0  0  0  0
    4.5181   -4.8083    4.2584 H   0  0  0  0  0  0  0  0  0  0  0  0
    4.5304   -2.4158    4.9977 H   0  0  0  0  0  0  0  0  0  0  0  0
    5.5899   -2.6766    3.6627 H   0  0  0  0  0  0  0  0  0  0  0  0
    4.2423    0.4642    3.0198 H   0  0  0  0  0  0  0  0  0  0  0  0
    5.6707   -0.4918    3.0745 H   0  0  0  0  0  0  0  0  0  0  0  0
    3.7745   -0.1464    0.6486 H   0  0  0  0  0  0  0  0  0  0  0  0
    5.2752    0.6457    0.8800 H   0  0  0  0  0  0  0  0  0  0  0  0
    5.4925   -1.0914   -0.8057 H   0  0  0  0  0  0  0  0  0  0  0  0
    6.6235   -1.3141    0.5252 H   0  0  0  0  0  0  0  0  0  0  0  0
    5.1897   -2.6318    1.5933 H   0  0  0  0  0  0  0  0  0  0  0  0
    3.1500   -3.8604    0.0800 H   0  0  0  0  0  0  0  0  0  0  0  0
    2.8986   -3.8835   -1.7618 H   0  0  0  0  0  0  0  0  0  0  0  0
    3.8001   -2.4317   -1.9287 H   0  0  0  0  0  0  0  0  0  0  0  0
    4.9745   -5.0924   -1.7553 H   0  0  0  0  0  0  0  0  0  0  0  0
    6.2320   -2.5018   -1.8735 H   0  0  0  0  0  0  0  0  0  0  0  0
    5.7345   -3.4522   -3.1216 H   0  0  0  0  0  0  0  0  0  0  0  0
    4.8629   -4.9017    0.0655 H   0  0  0  0  0  0  0  0  0  0  0  0
    5.8847   -4.4455    2.2723 H   0  0  0  0  0  0  0  0  0  0  0  0
    6.5348   -6.4754    1.2128 H   0  0  0  0  0  0  0  0  0  0  0  0
    5.6566   -6.6253    2.7179 H   0  0  0  0  0  0  0  0  0  0  0  0
    4.4318   -9.2021    0.2558 H   0  0  0  0  0  0  0  0  0  0  0  0
    5.0981   -9.1066    1.8988 H   0  0  0  0  0  0  0  0  0  0  0  0
    6.0618   -8.6490    0.5071 H   0  0  0  0  0  0  0  0  0  0  0  0
    1.8453   -3.6169    1.3652 H   0  0  0  0  0  0  0  0  0  0  0  0
    1.8673   -2.2701    3.1302 H   0  0  0  0  0  0  0  0  0  0  0  0
    2.2297   -1.2241    1.8121 H   0  0  0  0  0  0  0  0  0  0  0  0
    6.9477   -3.9521   -2.1359 H   0  0  0  0  0  0  0  0  0  0  0  0
    3.3543   -1.0813    3.9745 H   0  0  0  0  0  0  0  0  0  0  0  0
    4.4745   -6.8950    0.0880 H   0  0  0  0  0  0  0  0  0  0  0  0
  1  2  1  0
  1 28  1  0
  1 29  1  0
  1 30  1  0
  2  3  1  0
  3  8  2  0
  3  4  1  0
  4  5  2  0
  4 31  1  0
  5  6  1  0
  5 32  1  0
  6 24  1  0
  6  7  2  0
  7  8  1  0
  7  9  1  0
  8 33  1  0
  9 22  1  0
  9 26  1  0
  9 10  1  1
 10 11  1  0
 10 34  1  0
 10 35  1  0
 11 12  1  0
 11 36  1  0
 11 37  1  0
 12 27  1  0
 12 13  1  0
 12 62  1  1
 13 14  1  0
 13 38  1  0
 13 39  1  0
 14 15  1  0
 14 40  1  0
 14 41  1  0
 15 16  1  0
 15 42  1  0
 15 43  1  0
 16 21  1  0
 16 17  1  0
 16 44  1  1
 17 18  1  0
 17 26  1  0
 17 45  1  6
 18 19  1  0
 18 46  1  0
 18 47  1  0
 19 20  1  0
 19 21  1  0
 19 48  1  6
 20 49  1  0
 20 50  1  0
 20 61  1  0
 21 22  1  0
 21 51  1  6
 22 23  1  0
 22 52  1  1
 23 24  1  0
 23 53  1  0
 23 54  1  0
 24 25  1  0
 24 63  1  6
 25 55  1  0
 25 56  1  0
 25 57  1  0
 26 27  1  0
 26 58  1  6
 27 59  1  0
 27 60  1  0
M  CHG  3  12   1  20   1  24   1
M  END
>  <i_m_ct_stereo_status>  (288) 
1

>  <s_m_source_file>  (288) 
/var/tmp/pbs.5076255.sched01/tmpyqr7shjn/887d44c5qo.sdf

>  <i_m_source_file_index>  (288) 
36

>  <i_lp_mmshare_version>  (288) 
48012

>  <i_f3d_flags>  (288) 
0

>  <s_epik_input>  (288) 
W0NIM11PYyhbY0hdMSlbY0hdW2NIXWMoYzFbQ0BAXTIzNClOKFtDSDNdKVtDSDJdW0NASF0zW0NASF01W0NASF02W0NASF0oW0NIMl1bQ0BIXTVbTkgyXSlbQ0BASF00W0NIMl1OKFtDSDJdW0NIMl0yKVtDSDJdW0NIMl1bQ0gyXTY=

>  <s_epik_cmdline>  (288) 
J2VwaWtfcHl0aG9uJywgJy1waHQnLCAnMi4wJywgJy1waCcsICc3LjAnLCAnLXRuJywgJzgnLCAnLW1hJywgJzIwMCcsICctaW1hZScsICc8aW5maWxlLm1hZT4nLCAnLW9tYWUnLCAnPG91dGZpbGUubWFlPic=

>  <r_epik_Ionization_Penalty>  (288) 
1.05779

>  <r_epik_Ionization_Penalty_Charging>  (288) 
1.05779

>  <r_epik_Ionization_Penalty_Neutral>  (288) 
0

>  <r_epik_State_Penalty>  (288) 
1.10852

>  <r_epik_Charging_Adjusted_Penalty>  (288) 
2.16631

>  <i_epik_Tot_Q>  (288) 
3

>  <i_epik_Tot_abs_Q>  (288) 
3

>  <s_lp_Force_Field>  (288) 
OPLS3e

>  <r_lp_Energy>  (288) 
292.632

>  <b_lp_Chiralities_Consistent>  (288) 
1

>  <s_lp_Variant>  (288) 
86:0-4

>  <s_i_glide_gridfile>  (288) 
pfpi4k_grid

>  <i_i_glide_lignum>  (288) 
36

>  <i_i_glide_rotatable_bonds>  (288) 
1

>  <r_i_docking_score>  (288) 
-3.64194

>  <r_i_glide_ligand_efficiency>  (288) 
-0.134887

>  <r_i_glide_ligand_efficiency_sa>  (288) 
-0.40466

>  <r_i_glide_ligand_efficiency_ln>  (288) 
-0.847784

>  <r_i_glide_gscore>  (288) 
-3.64194

>  <r_i_glide_lipo>  (288) 
-0.582888

>  <r_i_glide_hbond>  (288) 
-0.135603

>  <r_i_glide_metal>  (288) 
-0

>  <r_i_glide_rewards>  (288) 
-0.882604

>  <r_i_glide_evdw>  (288) 
-22.2282

>  <r_i_glide_ecoul>  (288) 
-6.19624

>  <r_i_glide_erotb>  (288) 
0

>  <r_i_glide_esite>  (288) 
0

>  <r_i_glide_emodel>  (288) 
-35.073

>  <r_i_glide_energy>  (288) 
-28.4244

>  <r_i_glide_einternal>  (288) 
0.000562615

>  <r_i_glide_intrahb_reward>  (288) 
-0

>  <i_i_glide_confnum>  (288) 
2

>  <i_i_glide_posenum>  (288) 
5

>  <r_i_glide_eff_state_penalty>  (288) 
0

>  <ligand_id>  (288) 
86

>  <original_smiles>  (288) 
COc1ccc2c(c1)C13CCN4CCCC5C(CC(N)C5C1CN2C)C3C4

>  <smiles>  (288) 
[H]c1c([H])c2c(c([H])c1OC([H])([H])[H])C13C([H])([H])C([H])([H])[N+]4([H])C([H])([H])C([H])([H])C([H])([H])C5([H])C([H])(C([H])([H])C([H])([N+]([H])([H])[H])C5([H])C1([H])C([H])([H])[N+]2([H])C([H])([H])[H])C3([H])C4([H])[H]

$$$$
86:4:0
     RDKit          3D

 63 68  0  0  1  0  0  0  0  0999 V2000
    1.2546   -7.3596    1.2828 C   0  0  0  0  0  0  0  0  0  0  0  0
    1.4445   -6.2871    2.1959 O   0  0  0  0  0  0  0  0  0  0  0  0
    2.2134   -5.2159    1.7982 C   0  0  0  0  0  0  0  0  0  0  0  0
    2.7134   -5.0461    0.4849 C   0  0  0  0  0  0  0  0  0  0  0  0
    3.4660   -3.9051    0.1691 C   0  0  0  0  0  0  0  0  0  0  0  0
    3.7153   -2.9278    1.1504 C   0  0  0  0  0  0  0  0  0  0  0  0
    3.2381   -3.0601    2.4847 C   0  0  0  0  0  0  0  0  0  0  0  0
    2.4926   -4.2346    2.7760 C   0  0  0  0  0  0  0  0  0  0  0  0
    3.5928   -2.0497    3.6191 C   0  0  1  0  0  0  0  0  0  0  0  0
    4.6365   -2.8159    4.4973 C   0  0  0  0  0  0  0  0  0  0  0  0
    5.0193   -2.1318    5.8231 C   0  0  0  0  0  0  0  0  0  0  0  0
    3.8436   -1.8361    6.6827 N   0  0  1  0  0  0  0  0  0  0  0  0
    3.9554   -0.6161    7.5228 C   0  0  0  0  0  0  0  0  0  0  0  0
    3.2814    0.6363    6.9314 C   0  0  0  0  0  0  0  0  0  0  0  0
    3.7994    1.0086    5.5335 C   0  0  0  0  0  0  0  0  0  0  0  0
    2.8190    0.7570    4.3526 C   0  0  2  0  0  0  0  0  0  0  0  0
    1.7005   -0.2996    4.3427 C   0  0  2  0  0  0  0  0  0  0  0  0
    0.8744    0.3954    3.1906 C   0  0  0  0  0  0  0  0  0  0  0  0
    1.9648    1.0212    2.2373 C   0  0  1  0  0  0  0  0  0  0  0  0
    1.8132    2.4978    2.1032 N   0  0  0  0  0  0  0  0  0  0  0  0
    3.3581    0.6188    2.9102 C   0  0  1  0  0  0  0  0  0  0  0  0
    4.2572   -0.7126    3.0107 C   0  0  2  0  0  0  0  0  0  0  0  0
    5.1748   -0.9955    1.7945 C   0  0  0  0  0  0  0  0  0  0  0  0
    4.5196   -1.7373    0.6992 N   0  0  2  0  0  0  0  0  0  0  0  0
    3.7830   -0.8821   -0.2548 C   0  0  0  0  0  0  0  0  0  0  0  0
    2.3326   -1.7269    4.5693 C   0  0  2  0  0  0  0  0  0  0  0  0
    2.5083   -2.0838    6.0796 C   0  0  0  0  0  0  0  0  0  0  0  0
    0.6569   -8.1325    1.7625 H   0  0  0  0  0  0  0  0  0  0  0  0
    2.2031   -7.8127    0.9948 H   0  0  0  0  0  0  0  0  0  0  0  0
    0.7159   -7.0416    0.3899 H   0  0  0  0  0  0  0  0  0  0  0  0
    2.5361   -5.7678   -0.2995 H   0  0  0  0  0  0  0  0  0  0  0  0
    3.8416   -3.7875   -0.8370 H   0  0  0  0  0  0  0  0  0  0  0  0
    2.1316   -4.4240    3.7754 H   0  0  0  0  0  0  0  0  0  0  0  0
    4.2365   -3.7979    4.7649 H   0  0  0  0  0  0  0  0  0  0  0  0
    5.5419   -3.0300    3.9311 H   0  0  0  0  0  0  0  0  0  0  0  0
    5.6786   -2.7961    6.3879 H   0  0  0  0  0  0  0  0  0  0  0  0
    5.6275   -1.2509    5.6377 H   0  0  0  0  0  0  0  0  0  0  0  0
    3.4822   -0.8272    8.4811 H   0  0  0  0  0  0  0  0  0  0  0  0
    5.0010   -0.4115    7.7620 H   0  0  0  0  0  0  0  0  0  0  0  0
    2.1915    0.5566    6.9390 H   0  0  0  0  0  0  0  0  0  0  0  0
    3.5001    1.4633    7.6101 H   0  0  0  0  0  0  0  0  0  0  0  0
    3.9790    2.0857    5.5487 H   0  0  0  0  0  0  0  0  0  0  0  0
    4.8044    0.6360    5.4006 H   0  0  0  0  0  0  0  0  0  0  0  0
    2.2926    1.7079    4.4597 H   0  0  0  0  0  0  0  0  0  0  0  0
    1.6354   -0.9046    3.4514 H   0  0  0  0  0  0  0  0  0  0  0  0
    0.1371   -0.2093    2.6383 H   0  0  0  0  0  0  0  0  0  0  0  0
    0.2677    1.1885    3.6313 H   0  0  0  0  0  0  0  0  0  0  0  0
    1.7869    0.6895    1.2073 H   0  0  0  0  0  0  0  0  0  0  0  0
    1.8910    2.9523    3.0007 H   0  0  0  0  0  0  0  0  0  0  0  0
    0.9260    2.7589    1.6888 H   0  0  0  0  0  0  0  0  0  0  0  0
    3.0393   -0.1696    2.2489 H   0  0  0  0  0  0  0  0  0  0  0  0
    5.0328   -0.4217    3.7043 H   0  0  0  0  0  0  0  0  0  0  0  0
    5.6383   -0.0783    1.4284 H   0  0  0  0  0  0  0  0  0  0  0  0
    6.0085   -1.6199    2.1213 H   0  0  0  0  0  0  0  0  0  0  0  0
    3.7595   -1.3385   -1.2472 H   0  0  0  0  0  0  0  0  0  0  0  0
    4.2258    0.1111   -0.3411 H   0  0  0  0  0  0  0  0  0  0  0  0
    2.7521   -0.7814    0.0699 H   0  0  0  0  0  0  0  0  0  0  0  0
    1.5481   -2.4677    4.3720 H   0  0  0  0  0  0  0  0  0  0  0  0
    2.3547   -3.1559    6.2000 H   0  0  0  0  0  0  0  0  0  0  0  0
    1.7223   -1.6322    6.6852 H   0  0  0  0  0  0  0  0  0  0  0  0
    2.5365    2.8637    1.4998 H   0  0  0  0  0  0  0  0  0  0  0  0
    3.9130   -2.5653    7.3806 H   0  0  0  0  0  0  0  0  0  0  0  0
    5.2948   -2.0767    0.1487 H   0  0  0  0  0  0  0  0  0  0  0  0
  1  2  1  0
  1 28  1  0
  1 29  1  0
  1 30  1  0
  2  3  1  0
  3  8  2  0
  3  4  1  0
  4  5  2  0
  4 31  1  0
  5  6  1  0
  5 32  1  0
  6 24  1  0
  6  7  2  0
  7  8  1  0
  7  9  1  0
  8 33  1  0
  9 22  1  0
  9 26  1  0
  9 10  1  1
 10 11  1  0
 10 34  1  0
 10 35  1  0
 11 12  1  0
 11 36  1  0
 11 37  1  0
 12 27  1  0
 12 13  1  0
 12 62  1  1
 13 14  1  0
 13 38  1  0
 13 39  1  0
 14 15  1  0
 14 40  1  0
 14 41  1  0
 15 16  1  0
 15 42  1  0
 15 43  1  0
 16 21  1  0
 16 17  1  0
 16 44  1  6
 17 18  1  0
 17 26  1  0
 17 45  1  1
 18 19  1  0
 18 46  1  0
 18 47  1  0
 19 20  1  0
 19 21  1  0
 19 48  1  6
 20 49  1  0
 20 50  1  0
 20 61  1  0
 21 22  1  0
 21 51  1  1
 22 23  1  0
 22 52  1  1
 23 24  1  0
 23 53  1  0
 23 54  1  0
 24 25  1  0
 24 63  1  6
 25 55  1  0
 25 56  1  0
 25 57  1  0
 26 27  1  0
 26 58  1  6
 27 59  1  0
 27 60  1  0
M  CHG  3  12   1  20   1  24   1
M  END
>  <i_m_ct_stereo_status>  (289) 
1

>  <s_m_source_file>  (289) 
/var/tmp/pbs.5076255.sched01/tmpyqr7shjn/887d44c5qo.sdf

>  <i_m_source_file_index>  (289) 
37

>  <i_lp_mmshare_version>  (289) 
48012

>  <i_f3d_flags>  (289) 
0

>  <s_epik_input>  (289) 
W0NIM11PYyhbY0hdMSlbY0hdW2NIXWMoYzFbQ0BAXTIzNClOKFtDSDNdKVtDSDJdW0NASF0zW0NASF01W0NASF02W0NASF0oW0NIMl1bQ0BIXTVbTkgyXSlbQ0BASF00W0NIMl1OKFtDSDJdW0NIMl0yKVtDSDJdW0NIMl1bQ0gyXTY=

>  <s_epik_cmdline>  (289) 
J2VwaWtfcHl0aG9uJywgJy1waHQnLCAnMi4wJywgJy1waCcsICc3LjAnLCAnLXRuJywgJzgnLCAnLW1hJywgJzIwMCcsICctaW1hZScsICc8aW5maWxlLm1hZT4nLCAnLW9tYWUnLCAnPG91dGZpbGUubWFlPic=

>  <r_epik_Ionization_Penalty>  (289) 
1.05779

>  <r_epik_Ionization_Penalty_Charging>  (289) 
1.05779

>  <r_epik_Ionization_Penalty_Neutral>  (289) 
0

>  <r_epik_State_Penalty>  (289) 
1.10852

>  <r_epik_Charging_Adjusted_Penalty>  (289) 
2.16631

>  <i_epik_Tot_Q>  (289) 
3

>  <i_epik_Tot_abs_Q>  (289) 
3

>  <s_lp_Force_Field>  (289) 
OPLS3e

>  <r_lp_Energy>  (289) 
290.332

>  <b_lp_Chiralities_Consistent>  (289) 
1

>  <s_lp_Variant>  (289) 
86:0-5

>  <s_i_glide_gridfile>  (289) 
pfpi4k_grid

>  <i_i_glide_lignum>  (289) 
37

>  <i_i_glide_rotatable_bonds>  (289) 
1

>  <r_i_docking_score>  (289) 
-3.29702

>  <r_i_glide_ligand_efficiency>  (289) 
-0.122112

>  <r_i_glide_ligand_efficiency_sa>  (289) 
-0.366336

>  <r_i_glide_ligand_efficiency_ln>  (289) 
-0.767493

>  <r_i_glide_gscore>  (289) 
-3.29702

>  <r_i_glide_lipo>  (289) 
-0.219923

>  <r_i_glide_hbond>  (289) 
-0.155817

>  <r_i_glide_metal>  (289) 
-0

>  <r_i_glide_rewards>  (289) 
-0.882604

>  <r_i_glide_evdw>  (289) 
-16.8567

>  <r_i_glide_ecoul>  (289) 
-7.54543

>  <r_i_glide_erotb>  (289) 
0

>  <r_i_glide_esite>  (289) 
-0.0640281

>  <r_i_glide_emodel>  (289) 
-31.0808

>  <r_i_glide_energy>  (289) 
-24.4021

>  <r_i_glide_einternal>  (289) 
0.0485044

>  <r_i_glide_intrahb_reward>  (289) 
-0

>  <i_i_glide_confnum>  (289) 
2

>  <i_i_glide_posenum>  (289) 
13

>  <r_i_glide_eff_state_penalty>  (289) 
0

>  <ligand_id>  (289) 
86

>  <original_smiles>  (289) 
COc1ccc2c(c1)C13CCN4CCCC5C(CC(N)C5C1CN2C)C3C4

>  <smiles>  (289) 
[H]c1c([H])c2c(c([H])c1OC([H])([H])[H])C13C([H])([H])C([H])([H])[N+]4([H])C([H])([H])C([H])([H])C([H])([H])C5([H])C([H])(C([H])([H])C([H])([N+]([H])([H])[H])C5([H])C1([H])C([H])([H])[N+]2([H])C([H])([H])[H])C3([H])C4([H])[H]

$$$$
86:4:1
     RDKit          3D

 63 68  0  0  1  0  0  0  0  0999 V2000
    1.1024   -6.8767    0.9077 C   0  0  0  0  0  0  0  0  0  0  0  0
    1.3592   -5.8571   -0.0593 O   0  0  0  0  0  0  0  0  0  0  0  0
    2.2292   -4.8554    0.2946 C   0  0  0  0  0  0  0  0  0  0  0  0
    2.5710   -3.8878   -0.6749 C   0  0  0  0  0  0  0  0  0  0  0  0
    3.4358   -2.8213   -0.3547 C   0  0  0  0  0  0  0  0  0  0  0  0
    3.9358   -2.7068    0.9579 C   0  0  0  0  0  0  0  0  0  0  0  0
    3.6095   -3.6533    1.9635 C   0  0  0  0  0  0  0  0  0  0  0  0
    2.7813   -4.7252    1.6026 C   0  0  0  0  0  0  0  0  0  0  0  0
    4.2002   -3.6443    3.4007 C   0  0  1  0  0  0  0  0  0  0  0  0
    5.2178   -4.8324    3.3902 C   0  0  0  0  0  0  0  0  0  0  0  0
    5.8197   -5.1990    4.7595 C   0  0  0  0  0  0  0  0  0  0  0  0
    4.7943   -5.4963    5.7866 N   0  0  1  0  0  0  0  0  0  0  0  0
    5.1563   -5.1209    7.1746 C   0  0  0  0  0  0  0  0  0  0  0  0
    4.5881   -3.7686    7.6419 C   0  0  0  0  0  0  0  0  0  0  0  0
    4.9957   -2.5909    6.7433 C   0  0  0  0  0  0  0  0  0  0  0  0
    3.8692   -1.9844    5.8616 C   0  0  2  0  0  0  0  0  0  0  0  0
    2.6308   -2.7476    5.3728 C   0  0  2  0  0  0  0  0  0  0  0  0
    1.7788   -1.4537    5.0836 C   0  0  0  0  0  0  0  0  0  0  0  0
    2.8317   -0.3964    4.5761 C   0  0  1  0  0  0  0  0  0  0  0  0
    2.8631    0.8073    5.4320 N   0  0  0  0  0  0  0  0  0  0  0  0
    4.2264   -1.1668    4.5999 C   0  0  1  0  0  0  0  0  0  0  0  0
    4.9534   -2.2582    3.6757 C   0  0  2  0  0  0  0  0  0  0  0  0
    5.6783   -1.7015    2.4203 C   0  0  0  0  0  0  0  0  0  0  0  0
    4.8185   -1.5259    1.2349 N   0  0  2  0  0  0  0  0  0  0  0  0
    4.0823   -0.2514    1.1794 C   0  0  0  0  0  0  0  0  0  0  0  0
    3.0961   -3.9896    4.5283 C   0  0  2  0  0  0  0  0  0  0  0  0
    3.3850   -5.2534    5.3992 C   0  0  0  0  0  0  0  0  0  0  0  0
    0.4428   -7.6501    0.5262 H   0  0  0  0  0  0  0  0  0  0  0  0
    0.6263   -6.4504    1.7891 H   0  0  0  0  0  0  0  0  0  0  0  0
    2.0338   -7.3581    1.2059 H   0  0  0  0  0  0  0  0  0  0  0  0
    2.1784   -3.9645   -1.6851 H   0  0  0  0  0  0  0  0  0  0  0  0
    3.6946   -2.0978   -1.1155 H   0  0  0  0  0  0  0  0  0  0  0  0
    2.5913   -5.4657    2.3574 H   0  0  0  0  0  0  0  0  0  0  0  0
    4.7257   -5.7399    3.0286 H   0  0  0  0  0  0  0  0  0  0  0  0
    6.0249   -4.6531    2.6824 H   0  0  0  0  0  0  0  0  0  0  0  0
    6.4449   -6.0895    4.6428 H   0  0  0  0  0  0  0  0  0  0  0  0
    6.5096   -4.4251    5.0847 H   0  0  0  0  0  0  0  0  0  0  0  0
    4.7684   -5.8870    7.8428 H   0  0  0  0  0  0  0  0  0  0  0  0
    6.2391   -5.1463    7.3123 H   0  0  0  0  0  0  0  0  0  0  0  0
    3.5037   -3.8043    7.7793 H   0  0  0  0  0  0  0  0  0  0  0  0
    4.9889   -3.5900    8.6419 H   0  0  0  0  0  0  0  0  0  0  0  0
    5.3093   -1.7876    7.4131 H   0  0  0  0  0  0  0  0  0  0  0  0
    5.9242   -2.8151    6.2393 H   0  0  0  0  0  0  0  0  0  0  0  0
    3.4824   -1.3224    6.6384 H   0  0  0  0  0  0  0  0  0  0  0  0
    2.3927   -2.6248    4.3274 H   0  0  0  0  0  0  0  0  0  0  0  0
    0.9144   -1.5374    4.4059 H   0  0  0  0  0  0  0  0  0  0  0  0
    1.3333   -1.1201    6.0230 H   0  0  0  0  0  0  0  0  0  0  0  0
    2.5018    0.0216    3.6177 H   0  0  0  0  0  0  0  0  0  0  0  0
    3.1033    0.5645    6.3839 H   0  0  0  0  0  0  0  0  0  0  0  0
    1.9547    1.2514    5.4238 H   0  0  0  0  0  0  0  0  0  0  0  0
    3.7395   -1.3303    3.6534 H   0  0  0  0  0  0  0  0  0  0  0  0
    5.8179   -2.5177    4.2598 H   0  0  0  0  0  0  0  0  0  0  0  0
    6.2171   -0.7827    2.6622 H   0  0  0  0  0  0  0  0  0  0  0  0
    6.4448   -2.4184    2.1180 H   0  0  0  0  0  0  0  0  0  0  0  0
    3.9175    0.0404    0.1401 H   0  0  0  0  0  0  0  0  0  0  0  0
    4.6215    0.5453    1.6824 H   0  0  0  0  0  0  0  0  0  0  0  0
    3.0982   -0.3602    1.6320 H   0  0  0  0  0  0  0  0  0  0  0  0
    2.1924   -4.3952    4.0597 H   0  0  0  0  0  0  0  0  0  0  0  0
    3.1116   -6.1373    4.8235 H   0  0  0  0  0  0  0  0  0  0  0  0
    2.7309   -5.2877    6.2706 H   0  0  0  0  0  0  0  0  0  0  0  0
    3.5466    1.4599    5.0758 H   0  0  0  0  0  0  0  0  0  0  0  0
    4.8436   -6.5073    5.8351 H   0  0  0  0  0  0  0  0  0  0  0  0
    5.4840   -1.4527    0.4780 H   0  0  0  0  0  0  0  0  0  0  0  0
  1  2  1  0
  1 28  1  0
  1 29  1  0
  1 30  1  0
  2  3  1  0
  3  8  2  0
  3  4  1  0
  4  5  2  0
  4 31  1  0
  5  6  1  0
  5 32  1  0
  6 24  1  0
  6  7  2  0
  7  8  1  0
  7  9  1  0
  8 33  1  0
  9 22  1  0
  9 26  1  0
  9 10  1  6
 10 11  1  0
 10 34  1  0
 10 35  1  0
 11 12  1  0
 11 36  1  0
 11 37  1  0
 12 27  1  0
 12 13  1  0
 12 62  1  1
 13 14  1  0
 13 38  1  0
 13 39  1  0
 14 15  1  0
 14 40  1  0
 14 41  1  0
 15 16  1  0
 15 42  1  0
 15 43  1  0
 16 21  1  0
 16 17  1  0
 16 44  1  1
 17 18  1  0
 17 26  1  0
 17 45  1  1
 18 19  1  0
 18 46  1  0
 18 47  1  0
 19 20  1  0
 19 21  1  0
 19 48  1  6
 20 49  1  0
 20 50  1  0
 20 61  1  0
 21 22  1  0
 21 51  1  1
 22 23  1  0
 22 52  1  1
 23 24  1  0
 23 53  1  0
 23 54  1  0
 24 25  1  0
 24 63  1  6
 25 55  1  0
 25 56  1  0
 25 57  1  0
 26 27  1  0
 26 58  1  6
 27 59  1  0
 27 60  1  0
M  CHG  3  12   1  20   1  24   1
M  END
>  <i_m_ct_stereo_status>  (290) 
1

>  <s_m_source_file>  (290) 
/var/tmp/pbs.5076255.sched01/tmpyqr7shjn/887d44c5qo.sdf

>  <i_m_source_file_index>  (290) 
37

>  <i_lp_mmshare_version>  (290) 
48012

>  <i_f3d_flags>  (290) 
0

>  <s_epik_input>  (290) 
W0NIM11PYyhbY0hdMSlbY0hdW2NIXWMoYzFbQ0BAXTIzNClOKFtDSDNdKVtDSDJdW0NASF0zW0NASF01W0NASF02W0NASF0oW0NIMl1bQ0BIXTVbTkgyXSlbQ0BASF00W0NIMl1OKFtDSDJdW0NIMl0yKVtDSDJdW0NIMl1bQ0gyXTY=

>  <s_epik_cmdline>  (290) 
J2VwaWtfcHl0aG9uJywgJy1waHQnLCAnMi4wJywgJy1waCcsICc3LjAnLCAnLXRuJywgJzgnLCAnLW1hJywgJzIwMCcsICctaW1hZScsICc8aW5maWxlLm1hZT4nLCAnLW9tYWUnLCAnPG91dGZpbGUubWFlPic=

>  <r_epik_Ionization_Penalty>  (290) 
1.05779

>  <r_epik_Ionization_Penalty_Charging>  (290) 
1.05779

>  <r_epik_Ionization_Penalty_Neutral>  (290) 
0

>  <r_epik_State_Penalty>  (290) 
1.10852

>  <r_epik_Charging_Adjusted_Penalty>  (290) 
2.16631

>  <i_epik_Tot_Q>  (290) 
3

>  <i_epik_Tot_abs_Q>  (290) 
3

>  <s_lp_Force_Field>  (290) 
OPLS3e

>  <r_lp_Energy>  (290) 
290.332

>  <b_lp_Chiralities_Consistent>  (290) 
1

>  <s_lp_Variant>  (290) 
86:0-5

>  <s_i_glide_gridfile>  (290) 
pfpi4k_grid

>  <i_i_glide_lignum>  (290) 
37

>  <i_i_glide_rotatable_bonds>  (290) 
1

>  <r_i_docking_score>  (290) 
-3.02662

>  <r_i_glide_ligand_efficiency>  (290) 
-0.112097

>  <r_i_glide_ligand_efficiency_sa>  (290) 
-0.336291

>  <r_i_glide_ligand_efficiency_ln>  (290) 
-0.704547

>  <r_i_glide_gscore>  (290) 
-3.02662

>  <r_i_glide_lipo>  (290) 
-0.255714

>  <r_i_glide_hbond>  (290) 
-0.349523

>  <r_i_glide_metal>  (290) 
-0

>  <r_i_glide_rewards>  (290) 
-0.882604

>  <r_i_glide_evdw>  (290) 
-13.9515

>  <r_i_glide_ecoul>  (290) 
-5.608

>  <r_i_glide_erotb>  (290) 
0

>  <r_i_glide_esite>  (290) 
0

>  <r_i_glide_emodel>  (290) 
-23.5461

>  <r_i_glide_energy>  (290) 
-19.5595

>  <r_i_glide_einternal>  (290) 
4.02859

>  <r_i_glide_intrahb_reward>  (290) 
-0

>  <i_i_glide_confnum>  (290) 
2

>  <i_i_glide_posenum>  (290) 
1

>  <r_i_glide_eff_state_penalty>  (290) 
0

>  <ligand_id>  (290) 
86

>  <original_smiles>  (290) 
COc1ccc2c(c1)C13CCN4CCCC5C(CC(N)C5C1CN2C)C3C4

>  <smiles>  (290) 
[H]c1c([H])c2c(c([H])c1OC([H])([H])[H])C13C([H])([H])C([H])([H])[N+]4([H])C([H])([H])C([H])([H])C([H])([H])C5([H])C([H])(C([H])([H])C([H])([N+]([H])([H])[H])C5([H])C1([H])C([H])([H])[N+]2([H])C([H])([H])[H])C3([H])C4([H])[H]

$$$$
86:4:2
     RDKit          3D

 63 68  0  0  1  0  0  0  0  0999 V2000
    2.6603   -2.7498   -3.9532 C   0  0  0  0  0  0  0  0  0  0  0  0
    3.5608   -3.4555   -3.1187 O   0  0  0  0  0  0  0  0  0  0  0  0
    3.8393   -2.9221   -1.8892 C   0  0  0  0  0  0  0  0  0  0  0  0
    3.8006   -1.5334   -1.6144 C   0  0  0  0  0  0  0  0  0  0  0  0
    4.1333   -1.0771   -0.3315 C   0  0  0  0  0  0  0  0  0  0  0  0
    4.4673   -1.9910    0.6797 C   0  0  0  0  0  0  0  0  0  0  0  0
    4.5198   -3.3955    0.4447 C   0  0  0  0  0  0  0  0  0  0  0  0
    4.2158   -3.8248   -0.8732 C   0  0  0  0  0  0  0  0  0  0  0  0
    5.0004   -4.4231    1.5114 C   0  0  1  0  0  0  0  0  0  0  0  0
    6.4282   -4.8369    1.0255 C   0  0  0  0  0  0  0  0  0  0  0  0
    7.0772   -6.0099    1.7849 C   0  0  0  0  0  0  0  0  0  0  0  0
    6.2333   -7.2320    1.7937 N   0  0  1  0  0  0  0  0  0  0  0  0
    6.3464   -8.0777    3.0093 C   0  0  0  0  0  0  0  0  0  0  0  0
    5.2456   -7.8465    4.0592 C   0  0  0  0  0  0  0  0  0  0  0  0
    5.1549   -6.3903    4.5391 C   0  0  0  0  0  0  0  0  0  0  0  0
    3.9142   -5.5902    4.0540 C   0  0  2  0  0  0  0  0  0  0  0  0
    3.1299   -5.8731    2.7613 C   0  0  2  0  0  0  0  0  0  0  0  0
    1.8268   -5.1228    3.2378 C   0  0  0  0  0  0  0  0  0  0  0  0
    2.3587   -3.9107    4.0908 C   0  0  1  0  0  0  0  0  0  0  0  0
    1.8480   -3.9488    5.4835 N   0  0  0  0  0  0  0  0  0  0  0  0
    3.9441   -4.0448    4.0406 C   0  0  1  0  0  0  0  0  0  0  0  0
    5.0895   -3.7323    2.9618 C   0  0  2  0  0  0  0  0  0  0  0  0
    5.5617   -2.2584    2.8988 C   0  0  0  0  0  0  0  0  0  0  0  0
    4.7590   -1.3894    2.0249 N   0  0  2  0  0  0  0  0  0  0  0  0
    3.5630   -0.8021    2.6710 C   0  0  0  0  0  0  0  0  0  0  0  0
    4.1044   -5.7614    1.5269 C   0  0  2  0  0  0  0  0  0  0  0  0
    4.8649   -7.0926    1.2300 C   0  0  0  0  0  0  0  0  0  0  0  0
    2.5388   -3.3690   -4.8347 H   0  0  0  0  0  0  0  0  0  0  0  0
    3.0324   -1.7753   -4.2820 H   0  0  0  0  0  0  0  0  0  0  0  0
    1.6681   -2.6448   -3.5063 H   0  0  0  0  0  0  0  0  0  0  0  0
    3.5235   -0.8115   -2.3697 H   0  0  0  0  0  0  0  0  0  0  0  0
    4.1212   -0.0166   -0.1263 H   0  0  0  0  0  0  0  0  0  0  0  0
    4.2717   -4.8702   -1.1354 H   0  0  0  0  0  0  0  0  0  0  0  0
    6.3744   -5.1437   -0.0214 H   0  0  0  0  0  0  0  0  0  0  0  0
    7.1090   -3.9871    1.0368 H   0  0  0  0  0  0  0  0  0  0  0  0
    8.0230   -6.2691    1.3001 H   0  0  0  0  0  0  0  0  0  0  0  0
    7.3677   -5.6996    2.7853 H   0  0  0  0  0  0  0  0  0  0  0  0
    6.2918   -9.1199    2.6955 H   0  0  0  0  0  0  0  0  0  0  0  0
    7.3360   -7.9687    3.4594 H   0  0  0  0  0  0  0  0  0  0  0  0
    4.2727   -8.2121    3.7201 H   0  0  0  0  0  0  0  0  0  0  0  0
    5.4920   -8.4748    4.9169 H   0  0  0  0  0  0  0  0  0  0  0  0
    5.0773   -6.4299    5.6278 H   0  0  0  0  0  0  0  0  0  0  0  0
    6.1101   -5.9004    4.4185 H   0  0  0  0  0  0  0  0  0  0  0  0
    3.2562   -5.9439    4.8513 H   0  0  0  0  0  0  0  0  0  0  0  0
    2.9000   -5.0107    2.1546 H   0  0  0  0  0  0  0  0  0  0  0  0
    1.0980   -4.8013    2.4793 H   0  0  0  0  0  0  0  0  0  0  0  0
    1.2473   -5.8027    3.8659 H   0  0  0  0  0  0  0  0  0  0  0  0
    1.9163   -2.9765    3.7255 H   0  0  0  0  0  0  0  0  0  0  0  0
    2.1335   -4.8020    5.9446 H   0  0  0  0  0  0  0  0  0  0  0  0
    0.8400   -3.9010    5.4745 H   0  0  0  0  0  0  0  0  0  0  0  0
    3.6033   -3.4682    3.1972 H   0  0  0  0  0  0  0  0  0  0  0  0
    5.9626   -4.1532    3.4340 H   0  0  0  0  0  0  0  0  0  0  0  0
    5.6615   -1.8342    3.8975 H   0  0  0  0  0  0  0  0  0  0  0  0
    6.5626   -2.2311    2.4651 H   0  0  0  0  0  0  0  0  0  0  0  0
    3.3249    0.1632    2.2162 H   0  0  0  0  0  0  0  0  0  0  0  0
    3.7030   -0.6475    3.7434 H   0  0  0  0  0  0  0  0  0  0  0  0
    2.7004   -1.4436    2.5067 H   0  0  0  0  0  0  0  0  0  0  0  0
    3.4885   -5.7806    0.6193 H   0  0  0  0  0  0  0  0  0  0  0  0
    5.0079   -7.1682    0.1518 H   0  0  0  0  0  0  0  0  0  0  0  0
    4.2536   -7.9605    1.4801 H   0  0  0  0  0  0  0  0  0  0  0  0
    2.2119   -3.1605    5.9996 H   0  0  0  0  0  0  0  0  0  0  0  0
    6.7051   -7.8106    1.1135 H   0  0  0  0  0  0  0  0  0  0  0  0
    5.3606   -0.5924    1.8845 H   0  0  0  0  0  0  0  0  0  0  0  0
  1  2  1  0
  1 28  1  0
  1 29  1  0
  1 30  1  0
  2  3  1  0
  3  8  2  0
  3  4  1  0
  4  5  2  0
  4 31  1  0
  5  6  1  0
  5 32  1  0
  6 24  1  0
  6  7  2  0
  7  8  1  0
  7  9  1  0
  8 33  1  0
  9 22  1  0
  9 26  1  0
  9 10  1  6
 10 11  1  0
 10 34  1  0
 10 35  1  0
 11 12  1  0
 11 36  1  0
 11 37  1  0
 12 27  1  0
 12 13  1  0
 12 62  1  6
 13 14  1  0
 13 38  1  0
 13 39  1  0
 14 15  1  0
 14 40  1  0
 14 41  1  0
 15 16  1  0
 15 42  1  0
 15 43  1  0
 16 21  1  0
 16 17  1  0
 16 44  1  1
 17 18  1  0
 17 26  1  0
 17 45  1  1
 18 19  1  0
 18 46  1  0
 18 47  1  0
 19 20  1  0
 19 21  1  0
 19 48  1  6
 20 49  1  0
 20 50  1  0
 20 61  1  0
 21 22  1  0
 21 51  1  1
 22 23  1  0
 22 52  1  1
 23 24  1  0
 23 53  1  0
 23 54  1  0
 24 25  1  0
 24 63  1  6
 25 55  1  0
 25 56  1  0
 25 57  1  0
 26 27  1  0
 26 58  1  6
 27 59  1  0
 27 60  1  0
M  CHG  3  12   1  20   1  24   1
M  END
>  <i_m_ct_stereo_status>  (291) 
1

>  <s_m_source_file>  (291) 
/var/tmp/pbs.5076255.sched01/tmpyqr7shjn/887d44c5qo.sdf

>  <i_m_source_file_index>  (291) 
37

>  <i_lp_mmshare_version>  (291) 
48012

>  <i_f3d_flags>  (291) 
0

>  <s_epik_input>  (291) 
W0NIM11PYyhbY0hdMSlbY0hdW2NIXWMoYzFbQ0BAXTIzNClOKFtDSDNdKVtDSDJdW0NASF0zW0NASF01W0NASF02W0NASF0oW0NIMl1bQ0BIXTVbTkgyXSlbQ0BASF00W0NIMl1OKFtDSDJdW0NIMl0yKVtDSDJdW0NIMl1bQ0gyXTY=

>  <s_epik_cmdline>  (291) 
J2VwaWtfcHl0aG9uJywgJy1waHQnLCAnMi4wJywgJy1waCcsICc3LjAnLCAnLXRuJywgJzgnLCAnLW1hJywgJzIwMCcsICctaW1hZScsICc8aW5maWxlLm1hZT4nLCAnLW9tYWUnLCAnPG91dGZpbGUubWFlPic=

>  <r_epik_Ionization_Penalty>  (291) 
1.05779

>  <r_epik_Ionization_Penalty_Charging>  (291) 
1.05779

>  <r_epik_Ionization_Penalty_Neutral>  (291) 
0

>  <r_epik_State_Penalty>  (291) 
1.10852

>  <r_epik_Charging_Adjusted_Penalty>  (291) 
2.16631

>  <i_epik_Tot_Q>  (291) 
3

>  <i_epik_Tot_abs_Q>  (291) 
3

>  <s_lp_Force_Field>  (291) 
OPLS3e

>  <r_lp_Energy>  (291) 
290.332

>  <b_lp_Chiralities_Consistent>  (291) 
1

>  <s_lp_Variant>  (291) 
86:0-5

>  <s_i_glide_gridfile>  (291) 
pfpi4k_grid

>  <i_i_glide_lignum>  (291) 
37

>  <i_i_glide_rotatable_bonds>  (291) 
1

>  <r_i_docking_score>  (291) 
-2.99595

>  <r_i_glide_ligand_efficiency>  (291) 
-0.110961

>  <r_i_glide_ligand_efficiency_sa>  (291) 
-0.332883

>  <r_i_glide_ligand_efficiency_ln>  (291) 
-0.697407

>  <r_i_glide_gscore>  (291) 
-2.99595

>  <r_i_glide_lipo>  (291) 
-0.575024

>  <r_i_glide_hbond>  (291) 
0

>  <r_i_glide_metal>  (291) 
-0

>  <r_i_glide_rewards>  (291) 
-0.882604

>  <r_i_glide_evdw>  (291) 
-19.1325

>  <r_i_glide_ecoul>  (291) 
-3.87795

>  <r_i_glide_erotb>  (291) 
0

>  <r_i_glide_esite>  (291) 
0

>  <r_i_glide_emodel>  (291) 
-28.2492

>  <r_i_glide_energy>  (291) 
-23.0105

>  <r_i_glide_einternal>  (291) 
1.35042

>  <r_i_glide_intrahb_reward>  (291) 
-0

>  <i_i_glide_confnum>  (291) 
2

>  <i_i_glide_posenum>  (291) 
21

>  <r_i_glide_eff_state_penalty>  (291) 
0

>  <ligand_id>  (291) 
86

>  <original_smiles>  (291) 
COc1ccc2c(c1)C13CCN4CCCC5C(CC(N)C5C1CN2C)C3C4

>  <smiles>  (291) 
[H]c1c([H])c2c(c([H])c1OC([H])([H])[H])C13C([H])([H])C([H])([H])[N+]4([H])C([H])([H])C([H])([H])C([H])([H])C5([H])C([H])(C([H])([H])C([H])([N+]([H])([H])[H])C5([H])C1([H])C([H])([H])[N+]2([H])C([H])([H])[H])C3([H])C4([H])[H]

$$$$
86:5:0
     RDKit          3D

 63 68  0  0  1  0  0  0  0  0999 V2000
    4.7403   -4.8621   -0.6719 C   0  0  0  0  0  0  0  0  0  0  0  0
    3.8804   -3.9851    0.0520 O   0  0  0  0  0  0  0  0  0  0  0  0
    3.4979   -4.3914    1.3078 C   0  0  0  0  0  0  0  0  0  0  0  0
    2.7999   -3.4628    2.1088 C   0  0  0  0  0  0  0  0  0  0  0  0
    2.3919   -3.8127    3.4119 C   0  0  0  0  0  0  0  0  0  0  0  0
    2.6703   -5.1094    3.9054 C   0  0  0  0  0  0  0  0  0  0  0  0
    3.3644   -6.0672    3.1328 C   0  0  0  0  0  0  0  0  0  0  0  0
    3.7629   -5.6887    1.8430 C   0  0  0  0  0  0  0  0  0  0  0  0
    3.7509   -7.4931    3.6155 C   0  0  1  0  0  0  0  0  0  0  0  0
    5.3300   -7.5451    3.5915 C   0  0  0  0  0  0  0  0  0  0  0  0
    5.9858   -8.9510    3.7050 C   0  0  0  0  0  0  0  0  0  0  0  0
    5.4565   -9.9444    2.7298 N   0  0  1  0  0  0  0  0  0  0  0  0
    5.3428  -11.3573    3.2293 C   0  0  0  0  0  0  0  0  0  0  0  0
    3.9264  -12.0014    3.4214 C   0  0  0  0  0  0  0  0  0  0  0  0
    3.0048  -11.4944    4.5735 C   0  0  0  0  0  0  0  0  0  0  0  0
    2.8418   -9.9911    4.4182 C   0  0  1  0  0  0  0  0  0  0  0  0
    2.2036   -9.5890    3.1061 C   0  0  2  0  0  0  0  0  0  0  0  0
    0.7087   -9.6569    3.5460 C   0  0  0  0  0  0  0  0  0  0  0  0
    0.7306   -9.3225    5.0738 C   0  0  1  0  0  0  0  0  0  0  0  0
    0.2149  -10.4525    5.8775 N   0  0  0  0  0  0  0  0  0  0  0  0
    2.2385   -8.9947    5.4022 C   0  0  1  0  0  0  0  0  0  0  0  0
    3.2443   -7.7575    5.1372 C   0  0  2  0  0  0  0  0  0  0  0  0
    3.0001   -6.4557    5.9523 C   0  0  0  0  0  0  0  0  0  0  0  0
    2.1662   -5.4491    5.2719 N   0  0  2  0  0  0  0  0  0  0  0  0
    0.7196   -5.7268    5.2743 C   0  0  0  0  0  0  0  0  0  0  0  0
    3.2501   -8.5880    2.5346 C   0  0  2  0  0  0  0  0  0  0  0  0
    4.3833   -9.4225    1.8470 C   0  0  0  0  0  0  0  0  0  0  0  0
    4.9828   -4.4920   -1.6712 H   0  0  0  0  0  0  0  0  0  0  0  0
    4.2935   -5.8485   -0.7967 H   0  0  0  0  0  0  0  0  0  0  0  0
    5.6749   -4.9930   -0.1240 H   0  0  0  0  0  0  0  0  0  0  0  0
    2.5819   -2.4666    1.7254 H   0  0  0  0  0  0  0  0  0  0  0  0
    1.8663   -3.0914    4.0251 H   0  0  0  0  0  0  0  0  0  0  0  0
    4.2880   -6.4414    1.2828 H   0  0  0  0  0  0  0  0  0  0  0  0
    5.7206   -7.1329    2.6580 H   0  0  0  0  0  0  0  0  0  0  0  0
    5.7423   -6.8900    4.3617 H   0  0  0  0  0  0  0  0  0  0  0  0
    7.0618   -8.8561    3.5488 H   0  0  0  0  0  0  0  0  0  0  0  0
    5.8954   -9.3009    4.7319 H   0  0  0  0  0  0  0  0  0  0  0  0
    5.8495  -11.9784    2.4944 H   0  0  0  0  0  0  0  0  0  0  0  0
    5.9202  -11.4965    4.1403 H   0  0  0  0  0  0  0  0  0  0  0  0
    3.3679  -11.9917    2.4823 H   0  0  0  0  0  0  0  0  0  0  0  0
    4.0891  -13.0640    3.6048 H   0  0  0  0  0  0  0  0  0  0  0  0
    2.0517  -12.0231    4.5248 H   0  0  0  0  0  0  0  0  0  0  0  0
    3.4487  -11.7281    5.5402 H   0  0  0  0  0  0  0  0  0  0  0  0
    3.8789   -9.8018    4.5104 H   0  0  0  0  0  0  0  0  0  0  0  0
    1.7863   -8.5894    3.0769 H   0  0  0  0  0  0  0  0  0  0  0  0
   -0.0082   -9.0351    2.9973 H   0  0  0  0  0  0  0  0  0  0  0  0
    0.3512  -10.6796    3.3909 H   0  0  0  0  0  0  0  0  0  0  0  0
    0.0054   -8.5319    5.3058 H   0  0  0  0  0  0  0  0  0  0  0  0
    0.8186  -11.2811    5.7585 H   0  0  0  0  0  0  0  0  0  0  0  0
   -0.7186  -10.6604    5.6094 H   0  0  0  0  0  0  0  0  0  0  0  0
    1.7680   -8.1111    5.0206 H   0  0  0  0  0  0  0  0  0  0  0  0
    4.1317   -8.1066    5.6699 H   0  0  0  0  0  0  0  0  0  0  0  0
    2.6110   -6.6890    6.9427 H   0  0  0  0  0  0  0  0  0  0  0  0
    3.9662   -5.9805    6.1233 H   0  0  0  0  0  0  0  0  0  0  0  0
    0.1571   -4.8122    5.0830 H   0  0  0  0  0  0  0  0  0  0  0  0
    0.3823   -6.1421    6.2278 H   0  0  0  0  0  0  0  0  0  0  0  0
    0.4620   -6.4222    4.4750 H   0  0  0  0  0  0  0  0  0  0  0  0
    2.8313   -8.0866    1.6522 H   0  0  0  0  0  0  0  0  0  0  0  0
    4.8853   -8.7909    1.1188 H   0  0  0  0  0  0  0  0  0  0  0  0
    3.9538  -10.2311    1.2679 H   0  0  0  0  0  0  0  0  0  0  0  0
    0.2951  -10.2512    6.8610 H   0  0  0  0  0  0  0  0  0  0  0  0
    6.2303  -10.0395    2.0874 H   0  0  0  0  0  0  0  0  0  0  0  0
    2.2617   -4.6318    5.8605 H   0  0  0  0  0  0  0  0  0  0  0  0
  1  2  1  0
  1 28  1  0
  1 29  1  0
  1 30  1  0
  2  3  1  0
  3  8  2  0
  3  4  1  0
  4  5  2  0
  4 31  1  0
  5  6  1  0
  5 32  1  0
  6 24  1  0
  6  7  2  0
  7  8  1  0
  7  9  1  0
  8 33  1  0
  9 22  1  0
  9 26  1  0
  9 10  1  1
 10 11  1  0
 10 34  1  0
 10 35  1  0
 11 12  1  0
 11 36  1  0
 11 37  1  0
 12 27  1  0
 12 13  1  0
 12 62  1  6
 13 14  1  0
 13 38  1  0
 13 39  1  0
 14 15  1  0
 14 40  1  0
 14 41  1  0
 15 16  1  0
 15 42  1  0
 15 43  1  0
 16 21  1  0
 16 17  1  0
 16 44  1  6
 17 18  1  0
 17 26  1  0
 17 45  1  6
 18 19  1  0
 18 46  1  0
 18 47  1  0
 19 20  1  0
 19 21  1  0
 19 48  1  6
 20 49  1  0
 20 50  1  0
 20 61  1  0
 21 22  1  0
 21 51  1  1
 22 23  1  0
 22 52  1  1
 23 24  1  0
 23 53  1  0
 23 54  1  0
 24 25  1  0
 24 63  1  1
 25 55  1  0
 25 56  1  0
 25 57  1  0
 26 27  1  0
 26 58  1  6
 27 59  1  0
 27 60  1  0
M  CHG  3  12   1  20   1  24   1
M  END
>  <i_m_ct_stereo_status>  (292) 
1

>  <s_m_source_file>  (292) 
/var/tmp/pbs.5076255.sched01/tmpyqr7shjn/887d44c5qo.sdf

>  <i_m_source_file_index>  (292) 
38

>  <i_lp_mmshare_version>  (292) 
48012

>  <i_f3d_flags>  (292) 
0

>  <s_epik_input>  (292) 
W0NIM11PYyhbY0hdMSlbY0hdW2NIXWMoYzFbQ0BAXTIzNClOKFtDSDNdKVtDSDJdW0NASF0zW0NASF01W0NASF02W0NASF0oW0NIMl1bQ0BIXTVbTkgyXSlbQ0BASF00W0NIMl1OKFtDSDJdW0NIMl0yKVtDSDJdW0NIMl1bQ0gyXTY=

>  <s_epik_cmdline>  (292) 
J2VwaWtfcHl0aG9uJywgJy1waHQnLCAnMi4wJywgJy1waCcsICc3LjAnLCAnLXRuJywgJzgnLCAnLW1hJywgJzIwMCcsICctaW1hZScsICc8aW5maWxlLm1hZT4nLCAnLW9tYWUnLCAnPG91dGZpbGUubWFlPic=

>  <r_epik_Ionization_Penalty>  (292) 
1.05779

>  <r_epik_Ionization_Penalty_Charging>  (292) 
1.05779

>  <r_epik_Ionization_Penalty_Neutral>  (292) 
0

>  <r_epik_State_Penalty>  (292) 
1.10852

>  <r_epik_Charging_Adjusted_Penalty>  (292) 
2.16631

>  <i_epik_Tot_Q>  (292) 
3

>  <i_epik_Tot_abs_Q>  (292) 
3

>  <s_lp_Force_Field>  (292) 
OPLS3e

>  <r_lp_Energy>  (292) 
293.963

>  <b_lp_Chiralities_Consistent>  (292) 
1

>  <s_lp_Variant>  (292) 
86:0-6

>  <s_i_glide_gridfile>  (292) 
pfpi4k_grid

>  <i_i_glide_lignum>  (292) 
38

>  <i_i_glide_rotatable_bonds>  (292) 
1

>  <r_i_docking_score>  (292) 
-4.04748

>  <r_i_glide_ligand_efficiency>  (292) 
-0.149907

>  <r_i_glide_ligand_efficiency_sa>  (292) 
-0.44972

>  <r_i_glide_ligand_efficiency_ln>  (292) 
-0.942187

>  <r_i_glide_gscore>  (292) 
-4.04748

>  <r_i_glide_lipo>  (292) 
-0.0287114

>  <r_i_glide_hbond>  (292) 
-0.233891

>  <r_i_glide_metal>  (292) 
-0

>  <r_i_glide_rewards>  (292) 
-1.4126

>  <r_i_glide_evdw>  (292) 
-15.0133

>  <r_i_glide_ecoul>  (292) 
-9.98746

>  <r_i_glide_erotb>  (292) 
0

>  <r_i_glide_esite>  (292) 
-0.123488

>  <r_i_glide_emodel>  (292) 
-33.9844

>  <r_i_glide_energy>  (292) 
-25.0008

>  <r_i_glide_einternal>  (292) 
3.99002

>  <r_i_glide_intrahb_reward>  (292) 
-0

>  <i_i_glide_confnum>  (292) 
1

>  <i_i_glide_posenum>  (292) 
36

>  <r_i_glide_eff_state_penalty>  (292) 
0

>  <ligand_id>  (292) 
86

>  <original_smiles>  (292) 
COc1ccc2c(c1)C13CCN4CCCC5C(CC(N)C5C1CN2C)C3C4

>  <smiles>  (292) 
[H]c1c([H])c2c(c([H])c1OC([H])([H])[H])C13C([H])([H])C([H])([H])[N+]4([H])C([H])([H])C([H])([H])C([H])([H])C5([H])C([H])(C([H])([H])C([H])([N+]([H])([H])[H])C5([H])C1([H])C([H])([H])[N+]2([H])C([H])([H])[H])C3([H])C4([H])[H]

$$$$
86:5:1
     RDKit          3D

 63 68  0  0  1  0  0  0  0  0999 V2000
   -1.2209   -7.4075    3.8017 C   0  0  0  0  0  0  0  0  0  0  0  0
   -0.3338   -6.6537    2.9790 O   0  0  0  0  0  0  0  0  0  0  0  0
    0.8522   -6.2179    3.5248 C   0  0  0  0  0  0  0  0  0  0  0  0
    1.2598   -6.4883    4.8543 C   0  0  0  0  0  0  0  0  0  0  0  0
    2.4952   -6.0093    5.3150 C   0  0  0  0  0  0  0  0  0  0  0  0
    3.3289   -5.2628    4.4575 C   0  0  0  0  0  0  0  0  0  0  0  0
    2.9532   -4.9507    3.1270 C   0  0  0  0  0  0  0  0  0  0  0  0
    1.7002   -5.4559    2.6890 C   0  0  0  0  0  0  0  0  0  0  0  0
    3.8158   -4.0770    2.1655 C   0  0  1  0  0  0  0  0  0  0  0  0
    2.9601   -2.7943    1.8447 C   0  0  0  0  0  0  0  0  0  0  0  0
    3.4282   -1.9057    0.6560 C   0  0  0  0  0  0  0  0  0  0  0  0
    3.6398   -2.6688   -0.6135 N   0  0  1  0  0  0  0  0  0  0  0  0
    4.7935   -2.2028   -1.4770 C   0  0  0  0  0  0  0  0  0  0  0  0
    6.0568   -3.1256   -1.6657 C   0  0  0  0  0  0  0  0  0  0  0  0
    7.0189   -3.3401   -0.4565 C   0  0  0  0  0  0  0  0  0  0  0  0
    6.1917   -3.8692    0.6996 C   0  0  1  0  0  0  0  0  0  0  0  0
    5.5151   -5.1963    0.4311 C   0  0  2  0  0  0  0  0  0  0  0  0
    6.6758   -6.1374    0.9016 C   0  0  0  0  0  0  0  0  0  0  0  0
    7.4348   -5.3408    2.0027 C   0  0  1  0  0  0  0  0  0  0  0  0
    8.8339   -5.0695    1.6128 N   0  0  0  0  0  0  0  0  0  0  0  0
    6.6020   -4.0159    2.1533 C   0  0  1  0  0  0  0  0  0  0  0  0
    5.2124   -3.5954    2.8632 C   0  0  2  0  0  0  0  0  0  0  0  0
    5.1704   -3.5975    4.4200 C   0  0  0  0  0  0  0  0  0  0  0  0
    4.6617   -4.8513    5.0111 N   0  0  2  0  0  0  0  0  0  0  0  0
    5.6351   -5.9676    5.0402 C   0  0  0  0  0  0  0  0  0  0  0  0
    4.0283   -4.8528    0.7634 C   0  0  2  0  0  0  0  0  0  0  0  0
    3.4173   -4.1408   -0.4914 C   0  0  0  0  0  0  0  0  0  0  0  0
   -2.1109   -7.6578    3.2262 H   0  0  0  0  0  0  0  0  0  0  0  0
   -1.5470   -6.8328    4.6684 H   0  0  0  0  0  0  0  0  0  0  0  0
   -0.7733   -8.3431    4.1365 H   0  0  0  0  0  0  0  0  0  0  0  0
    0.6532   -7.0718    5.5326 H   0  0  0  0  0  0  0  0  0  0  0  0
    2.8097   -6.2354    6.3223 H   0  0  0  0  0  0  0  0  0  0  0  0
    1.3760   -5.2563    1.6804 H   0  0  0  0  0  0  0  0  0  0  0  0
    1.9360   -3.0836    1.6047 H   0  0  0  0  0  0  0  0  0  0  0  0
    2.8682   -2.1688    2.7334 H   0  0  0  0  0  0  0  0  0  0  0  0
    2.6723   -1.1395    0.4637 H   0  0  0  0  0  0  0  0  0  0  0  0
    4.3199   -1.3462    0.9405 H   0  0  0  0  0  0  0  0  0  0  0  0
    4.3726   -2.0713   -2.4742 H   0  0  0  0  0  0  0  0  0  0  0  0
    5.1119   -1.2013   -1.1814 H   0  0  0  0  0  0  0  0  0  0  0  0
    5.7613   -4.0951   -2.0754 H   0  0  0  0  0  0  0  0  0  0  0  0
    6.6572   -2.6794   -2.4587 H   0  0  0  0  0  0  0  0  0  0  0  0
    7.8189   -4.0276   -0.7307 H   0  0  0  0  0  0  0  0  0  0  0  0
    7.4964   -2.3989   -0.1783 H   0  0  0  0  0  0  0  0  0  0  0  0
    5.5687   -3.0148    0.7353 H   0  0  0  0  0  0  0  0  0  0  0  0
    5.1900   -5.7467    1.3044 H   0  0  0  0  0  0  0  0  0  0  0  0
    6.4039   -7.1525    1.2267 H   0  0  0  0  0  0  0  0  0  0  0  0
    7.3661   -6.2882    0.0761 H   0  0  0  0  0  0  0  0  0  0  0  0
    7.5668   -5.9529    2.9063 H   0  0  0  0  0  0  0  0  0  0  0  0
    8.8468   -4.5298    0.7566 H   0  0  0  0  0  0  0  0  0  0  0  0
    9.3161   -5.9523    1.4731 H   0  0  0  0  0  0  0  0  0  0  0  0
    6.1551   -4.7823    2.7534 H   0  0  0  0  0  0  0  0  0  0  0  0
    5.2491   -2.5151    2.7232 H   0  0  0  0  0  0  0  0  0  0  0  0
    6.1328   -3.3270    4.8564 H   0  0  0  0  0  0  0  0  0  0  0  0
    4.4801   -2.8171    4.7400 H   0  0  0  0  0  0  0  0  0  0  0  0
    5.3335   -6.7064    5.7873 H   0  0  0  0  0  0  0  0  0  0  0  0
    6.6426   -5.6229    5.2886 H   0  0  0  0  0  0  0  0  0  0  0  0
    5.6523   -6.4769    4.0763 H   0  0  0  0  0  0  0  0  0  0  0  0
    3.4308   -5.7739    0.7621 H   0  0  0  0  0  0  0  0  0  0  0  0
    2.3345   -4.2680   -0.4726 H   0  0  0  0  0  0  0  0  0  0  0  0
    3.7675   -4.6333   -1.3950 H   0  0  0  0  0  0  0  0  0  0  0  0
    9.3026   -4.5505    2.3471 H   0  0  0  0  0  0  0  0  0  0  0  0
    2.8405   -2.3591   -1.1535 H   0  0  0  0  0  0  0  0  0  0  0  0
    4.5396   -4.6166    5.9849 H   0  0  0  0  0  0  0  0  0  0  0  0
  1  2  1  0
  1 28  1  0
  1 29  1  0
  1 30  1  0
  2  3  1  0
  3  8  2  0
  3  4  1  0
  4  5  2  0
  4 31  1  0
  5  6  1  0
  5 32  1  0
  6 24  1  0
  6  7  2  0
  7  8  1  0
  7  9  1  0
  8 33  1  0
  9 22  1  0
  9 26  1  0
  9 10  1  6
 10 11  1  0
 10 34  1  0
 10 35  1  0
 11 12  1  0
 11 36  1  0
 11 37  1  0
 12 27  1  0
 12 13  1  0
 12 62  1  6
 13 14  1  0
 13 38  1  0
 13 39  1  0
 14 15  1  0
 14 40  1  0
 14 41  1  0
 15 16  1  0
 15 42  1  0
 15 43  1  0
 16 21  1  0
 16 17  1  0
 16 44  1  1
 17 18  1  0
 17 26  1  0
 17 45  1  6
 18 19  1  0
 18 46  1  0
 18 47  1  0
 19 20  1  0
 19 21  1  0
 19 48  1  1
 20 49  1  0
 20 50  1  0
 20 61  1  0
 21 22  1  0
 21 51  1  1
 22 23  1  0
 22 52  1  6
 23 24  1  0
 23 53  1  0
 23 54  1  0
 24 25  1  0
 24 63  1  1
 25 55  1  0
 25 56  1  0
 25 57  1  0
 26 27  1  0
 26 58  1  1
 27 59  1  0
 27 60  1  0
M  CHG  3  12   1  20   1  24   1
M  END
>  <i_m_ct_stereo_status>  (293) 
1

>  <s_m_source_file>  (293) 
/var/tmp/pbs.5076255.sched01/tmpyqr7shjn/887d44c5qo.sdf

>  <i_m_source_file_index>  (293) 
38

>  <i_lp_mmshare_version>  (293) 
48012

>  <i_f3d_flags>  (293) 
0

>  <s_epik_input>  (293) 
W0NIM11PYyhbY0hdMSlbY0hdW2NIXWMoYzFbQ0BAXTIzNClOKFtDSDNdKVtDSDJdW0NASF0zW0NASF01W0NASF02W0NASF0oW0NIMl1bQ0BIXTVbTkgyXSlbQ0BASF00W0NIMl1OKFtDSDJdW0NIMl0yKVtDSDJdW0NIMl1bQ0gyXTY=

>  <s_epik_cmdline>  (293) 
J2VwaWtfcHl0aG9uJywgJy1waHQnLCAnMi4wJywgJy1waCcsICc3LjAnLCAnLXRuJywgJzgnLCAnLW1hJywgJzIwMCcsICctaW1hZScsICc8aW5maWxlLm1hZT4nLCAnLW9tYWUnLCAnPG91dGZpbGUubWFlPic=

>  <r_epik_Ionization_Penalty>  (293) 
1.05779

>  <r_epik_Ionization_Penalty_Charging>  (293) 
1.05779

>  <r_epik_Ionization_Penalty_Neutral>  (293) 
0

>  <r_epik_State_Penalty>  (293) 
1.10852

>  <r_epik_Charging_Adjusted_Penalty>  (293) 
2.16631

>  <i_epik_Tot_Q>  (293) 
3

>  <i_epik_Tot_abs_Q>  (293) 
3

>  <s_lp_Force_Field>  (293) 
OPLS3e

>  <r_lp_Energy>  (293) 
293.963

>  <b_lp_Chiralities_Consistent>  (293) 
1

>  <s_lp_Variant>  (293) 
86:0-6

>  <s_i_glide_gridfile>  (293) 
pfpi4k_grid

>  <i_i_glide_lignum>  (293) 
38

>  <i_i_glide_rotatable_bonds>  (293) 
1

>  <r_i_docking_score>  (293) 
-3.79527

>  <r_i_glide_ligand_efficiency>  (293) 
-0.140565

>  <r_i_glide_ligand_efficiency_sa>  (293) 
-0.421696

>  <r_i_glide_ligand_efficiency_ln>  (293) 
-0.883475

>  <r_i_glide_gscore>  (293) 
-3.79527

>  <r_i_glide_lipo>  (293) 
-0.691477

>  <r_i_glide_hbond>  (293) 
-0.16

>  <r_i_glide_metal>  (293) 
-0

>  <r_i_glide_rewards>  (293) 
-0.882604

>  <r_i_glide_evdw>  (293) 
-15.6615

>  <r_i_glide_ecoul>  (293) 
-8.15723

>  <r_i_glide_erotb>  (293) 
0

>  <r_i_glide_esite>  (293) 
-0.0545266

>  <r_i_glide_emodel>  (293) 
-34.298

>  <r_i_glide_energy>  (293) 
-23.8187

>  <r_i_glide_einternal>  (293) 
0.00110764

>  <r_i_glide_intrahb_reward>  (293) 
-0

>  <i_i_glide_confnum>  (293) 
1

>  <i_i_glide_posenum>  (293) 
17

>  <r_i_glide_eff_state_penalty>  (293) 
0

>  <ligand_id>  (293) 
86

>  <original_smiles>  (293) 
COc1ccc2c(c1)C13CCN4CCCC5C(CC(N)C5C1CN2C)C3C4

>  <smiles>  (293) 
[H]c1c([H])c2c(c([H])c1OC([H])([H])[H])C13C([H])([H])C([H])([H])[N+]4([H])C([H])([H])C([H])([H])C([H])([H])C5([H])C([H])(C([H])([H])C([H])([N+]([H])([H])[H])C5([H])C1([H])C([H])([H])[N+]2([H])C([H])([H])[H])C3([H])C4([H])[H]

$$$$
86:5:2
     RDKit          3D

 63 68  0  0  1  0  0  0  0  0999 V2000
   -1.4277   -8.9807    2.2152 C   0  0  0  0  0  0  0  0  0  0  0  0
   -0.6064  -10.0891    2.5539 O   0  0  0  0  0  0  0  0  0  0  0  0
    0.5222   -9.7998    3.2692 C   0  0  0  0  0  0  0  0  0  0  0  0
    0.8323  -10.6061    4.3803 C   0  0  0  0  0  0  0  0  0  0  0  0
    1.9786  -10.3340    5.1441 C   0  0  0  0  0  0  0  0  0  0  0  0
    2.8300   -9.2810    4.7695 C   0  0  0  0  0  0  0  0  0  0  0  0
    2.5623   -8.4553    3.6437 C   0  0  0  0  0  0  0  0  0  0  0  0
    1.3959   -8.7514    2.8987 C   0  0  0  0  0  0  0  0  0  0  0  0
    3.4476   -7.2541    3.2148 C   0  0  1  0  0  0  0  0  0  0  0  0
    2.5293   -5.9783    3.3338 C   0  0  0  0  0  0  0  0  0  0  0  0
    3.0459   -4.6791    2.6536 C   0  0  0  0  0  0  0  0  0  0  0  0
    3.4330   -4.8622    1.2195 N   0  0  1  0  0  0  0  0  0  0  0  0
    4.6205   -4.0538    0.7562 C   0  0  0  0  0  0  0  0  0  0  0  0
    5.9500   -4.7874    0.3627 C   0  0  0  0  0  0  0  0  0  0  0  0
    6.8112   -5.4461    1.4868 C   0  0  0  0  0  0  0  0  0  0  0  0
    5.9276   -6.4192    2.2575 C   0  0  1  0  0  0  0  0  0  0  0  0
    5.3706   -7.5337    1.3956 C   0  0  2  0  0  0  0  0  0  0  0  0
    6.5461   -8.5559    1.5621 C   0  0  0  0  0  0  0  0  0  0  0  0
    7.1543   -8.2505    2.9703 C   0  0  1  0  0  0  0  0  0  0  0  0
    8.5605   -7.7816    2.8835 N   0  0  0  0  0  0  0  0  0  0  0  0
    6.2170   -7.1343    3.5777 C   0  0  1  0  0  0  0  0  0  0  0  0
    4.7283   -7.0673    4.2133 C   0  0  2  0  0  0  0  0  0  0  0  0
    4.5348   -7.6998    5.6227 C   0  0  0  0  0  0  0  0  0  0  0  0
    4.0648   -9.1001    5.5961 N   0  0  2  0  0  0  0  0  0  0  0  0
    5.1028  -10.1069    5.2798 C   0  0  0  0  0  0  0  0  0  0  0  0
    3.8359   -7.3985    1.6475 C   0  0  2  0  0  0  0  0  0  0  0  0
    3.2907   -6.2598    0.7143 C   0  0  0  0  0  0  0  0  0  0  0  0
   -2.2536   -9.3189    1.5942 H   0  0  0  0  0  0  0  0  0  0  0  0
   -0.9116   -8.1986    1.6583 H   0  0  0  0  0  0  0  0  0  0  0  0
   -1.8549   -8.5481    3.1209 H   0  0  0  0  0  0  0  0  0  0  0  0
    0.1831  -11.4235    4.6627 H   0  0  0  0  0  0  0  0  0  0  0  0
    2.1930  -10.9538    6.0053 H   0  0  0  0  0  0  0  0  0  0  0  0
    1.1748   -8.1731    2.0172 H   0  0  0  0  0  0  0  0  0  0  0  0
    1.5543   -6.1735    2.8832 H   0  0  0  0  0  0  0  0  0  0  0  0
    2.3060   -5.7740    4.3812 H   0  0  0  0  0  0  0  0  0  0  0  0
    2.2618   -3.9186    2.6934 H   0  0  0  0  0  0  0  0  0  0  0  0
    3.8622   -4.2590    3.2428 H   0  0  0  0  0  0  0  0  0  0  0  0
    4.2826   -3.5401   -0.1437 H   0  0  0  0  0  0  0  0  0  0  0  0
    4.8366   -3.2496    1.4618 H   0  0  0  0  0  0  0  0  0  0  0  0
    5.7568   -5.5165   -0.4272 H   0  0  0  0  0  0  0  0  0  0  0  0
    6.5884   -4.0415   -0.1109 H   0  0  0  0  0  0  0  0  0  0  0  0
    7.6703   -5.9439    1.0346 H   0  0  0  0  0  0  0  0  0  0  0  0
    7.1980   -4.6775    2.1559 H   0  0  0  0  0  0  0  0  0  0  0  0
    5.2451   -5.6655    2.5499 H   0  0  0  0  0  0  0  0  0  0  0  0
    5.0053   -8.4004    1.9342 H   0  0  0  0  0  0  0  0  0  0  0  0
    6.3072   -9.6211    1.4212 H   0  0  0  0  0  0  0  0  0  0  0  0
    7.3008   -8.3509    0.8046 H   0  0  0  0  0  0  0  0  0  0  0  0
    7.2422   -9.1781    3.5544 H   0  0  0  0  0  0  0  0  0  0  0  0
    8.6278   -6.9446    2.3216 H   0  0  0  0  0  0  0  0  0  0  0  0
    9.1565   -8.4652    2.4305 H   0  0  0  0  0  0  0  0  0  0  0  0
    5.7657   -8.0902    3.7606 H   0  0  0  0  0  0  0  0  0  0  0  0
    4.6959   -6.0202    4.5167 H   0  0  0  0  0  0  0  0  0  0  0  0
    5.4368   -7.6010    6.2279 H   0  0  0  0  0  0  0  0  0  0  0  0
    3.7609   -7.1329    6.1467 H   0  0  0  0  0  0  0  0  0  0  0  0
    4.7863  -11.0932    5.6299 H   0  0  0  0  0  0  0  0  0  0  0  0
    6.0550   -9.8648    5.7568 H   0  0  0  0  0  0  0  0  0  0  0  0
    5.2446  -10.1811    4.2010 H   0  0  0  0  0  0  0  0  0  0  0  0
    3.3093   -8.2631    1.2203 H   0  0  0  0  0  0  0  0  0  0  0  0
    2.2190   -6.4114    0.5851 H   0  0  0  0  0  0  0  0  0  0  0  0
    3.7044   -6.3412   -0.2915 H   0  0  0  0  0  0  0  0  0  0  0  0
    8.9205   -7.5900    3.8025 H   0  0  0  0  0  0  0  0  0  0  0  0
    2.6874   -4.3817    0.7378 H   0  0  0  0  0  0  0  0  0  0  0  0
    3.8232   -9.2970    6.5564 H   0  0  0  0  0  0  0  0  0  0  0  0
  1  2  1  0
  1 28  1  0
  1 29  1  0
  1 30  1  0
  2  3  1  0
  3  8  2  0
  3  4  1  0
  4  5  2  0
  4 31  1  0
  5  6  1  0
  5 32  1  0
  6 24  1  0
  6  7  2  0
  7  8  1  0
  7  9  1  0
  8 33  1  0
  9 22  1  0
  9 26  1  0
  9 10  1  6
 10 11  1  0
 10 34  1  0
 10 35  1  0
 11 12  1  0
 11 36  1  0
 11 37  1  0
 12 27  1  0
 12 13  1  0
 12 62  1  6
 13 14  1  0
 13 38  1  0
 13 39  1  0
 14 15  1  0
 14 40  1  0
 14 41  1  0
 15 16  1  0
 15 42  1  0
 15 43  1  0
 16 21  1  0
 16 17  1  0
 16 44  1  1
 17 18  1  0
 17 26  1  0
 17 45  1  6
 18 19  1  0
 18 46  1  0
 18 47  1  0
 19 20  1  0
 19 21  1  0
 19 48  1  1
 20 49  1  0
 20 50  1  0
 20 61  1  0
 21 22  1  0
 21 51  1  1
 22 23  1  0
 22 52  1  1
 23 24  1  0
 23 53  1  0
 23 54  1  0
 24 25  1  0
 24 63  1  1
 25 55  1  0
 25 56  1  0
 25 57  1  0
 26 27  1  0
 26 58  1  6
 27 59  1  0
 27 60  1  0
M  CHG  3  12   1  20   1  24   1
M  END
>  <i_m_ct_stereo_status>  (294) 
1

>  <s_m_source_file>  (294) 
/var/tmp/pbs.5076255.sched01/tmpyqr7shjn/887d44c5qo.sdf

>  <i_m_source_file_index>  (294) 
38

>  <i_lp_mmshare_version>  (294) 
48012

>  <i_f3d_flags>  (294) 
0

>  <s_epik_input>  (294) 
W0NIM11PYyhbY0hdMSlbY0hdW2NIXWMoYzFbQ0BAXTIzNClOKFtDSDNdKVtDSDJdW0NASF0zW0NASF01W0NASF02W0NASF0oW0NIMl1bQ0BIXTVbTkgyXSlbQ0BASF00W0NIMl1OKFtDSDJdW0NIMl0yKVtDSDJdW0NIMl1bQ0gyXTY=

>  <s_epik_cmdline>  (294) 
J2VwaWtfcHl0aG9uJywgJy1waHQnLCAnMi4wJywgJy1waCcsICc3LjAnLCAnLXRuJywgJzgnLCAnLW1hJywgJzIwMCcsICctaW1hZScsICc8aW5maWxlLm1hZT4nLCAnLW9tYWUnLCAnPG91dGZpbGUubWFlPic=

>  <r_epik_Ionization_Penalty>  (294) 
1.05779

>  <r_epik_Ionization_Penalty_Charging>  (294) 
1.05779

>  <r_epik_Ionization_Penalty_Neutral>  (294) 
0

>  <r_epik_State_Penalty>  (294) 
1.10852

>  <r_epik_Charging_Adjusted_Penalty>  (294) 
2.16631

>  <i_epik_Tot_Q>  (294) 
3

>  <i_epik_Tot_abs_Q>  (294) 
3

>  <s_lp_Force_Field>  (294) 
OPLS3e

>  <r_lp_Energy>  (294) 
293.963

>  <b_lp_Chiralities_Consistent>  (294) 
1

>  <s_lp_Variant>  (294) 
86:0-6

>  <s_i_glide_gridfile>  (294) 
pfpi4k_grid

>  <i_i_glide_lignum>  (294) 
38

>  <i_i_glide_rotatable_bonds>  (294) 
1

>  <r_i_docking_score>  (294) 
-3.58846

>  <r_i_glide_ligand_efficiency>  (294) 
-0.132906

>  <r_i_glide_ligand_efficiency_sa>  (294) 
-0.398718

>  <r_i_glide_ligand_efficiency_ln>  (294) 
-0.835335

>  <r_i_glide_gscore>  (294) 
-3.58846

>  <r_i_glide_lipo>  (294) 
-0.737916

>  <r_i_glide_hbond>  (294) 
-0.0743926

>  <r_i_glide_metal>  (294) 
-0

>  <r_i_glide_rewards>  (294) 
-0.882604

>  <r_i_glide_evdw>  (294) 
-19.2391

>  <r_i_glide_ecoul>  (294) 
-5.79796

>  <r_i_glide_erotb>  (294) 
0

>  <r_i_glide_esite>  (294) 
-0.0619017

>  <r_i_glide_emodel>  (294) 
-32.3924

>  <r_i_glide_energy>  (294) 
-25.0371

>  <r_i_glide_einternal>  (294) 
4.92491

>  <r_i_glide_intrahb_reward>  (294) 
-0

>  <i_i_glide_confnum>  (294) 
1

>  <i_i_glide_posenum>  (294) 
24

>  <r_i_glide_eff_state_penalty>  (294) 
0

>  <ligand_id>  (294) 
86

>  <original_smiles>  (294) 
COc1ccc2c(c1)C13CCN4CCCC5C(CC(N)C5C1CN2C)C3C4

>  <smiles>  (294) 
[H]c1c([H])c2c(c([H])c1OC([H])([H])[H])C13C([H])([H])C([H])([H])[N+]4([H])C([H])([H])C([H])([H])C([H])([H])C5([H])C([H])(C([H])([H])C([H])([N+]([H])([H])[H])C5([H])C1([H])C([H])([H])[N+]2([H])C([H])([H])[H])C3([H])C4([H])[H]

$$$$
87:0:0
     RDKit          3D

 19 20  0  0  1  0  0  0  0  0999 V2000
    6.8484   -7.4070    1.6704 C   0  0  0  0  0  0  0  0  0  0  0  0
    5.5932   -6.6792    1.3155 C   0  0  0  0  0  0  0  0  0  0  0  0
    5.4569   -5.4670    0.6888 C   0  0  0  0  0  0  0  0  0  0  0  0
    3.7763   -5.0348    0.4793 S   0  0  0  0  0  0  0  0  0  0  0  0
    3.3204   -6.5455    1.2682 C   0  0  0  0  0  0  0  0  0  0  0  0
    1.9259   -6.9399    1.4571 C   0  0  0  0  0  0  0  0  0  0  0  0
    0.9079   -6.2629    0.9418 N   0  0  0  0  0  0  0  0  0  0  0  0
   -0.2026   -6.9951    1.3905 O   0  0  0  0  0  0  0  0  0  0  0  0
    0.2972   -8.0325    2.1103 C   0  0  0  0  0  0  0  0  0  0  0  0
   -0.6503   -9.0011    2.7437 C   0  0  0  0  0  0  0  0  0  0  0  0
   -1.8126   -9.0120    2.0895 F   0  0  0  0  0  0  0  0  0  0  0  0
   -0.1440  -10.2367    2.7354 F   0  0  0  0  0  0  0  0  0  0  0  0
   -0.8781   -8.6375    4.0060 F   0  0  0  0  0  0  0  0  0  0  0  0
    1.6187   -8.0164    2.2251 N   0  0  0  0  0  0  0  0  0  0  0  0
    4.3774   -7.2721    1.6414 N   0  0  0  0  0  0  0  0  0  0  0  0
    7.7548   -6.8710    1.3775 H   0  0  0  0  0  0  0  0  0  0  0  0
    6.8662   -8.3859    1.1928 H   0  0  0  0  0  0  0  0  0  0  0  0
    6.8866   -7.5787    2.7447 H   0  0  0  0  0  0  0  0  0  0  0  0
    6.2351   -4.8049    0.3338 H   0  0  0  0  0  0  0  0  0  0  0  0
  1  2  1  0
  1 16  1  0
  1 17  1  0
  1 18  1  0
  2 15  1  0
  2  3  2  0
  3  4  1  0
  3 19  1  0
  4  5  1  0
  5  6  1  0
  5 15  2  0
  6 14  1  0
  6  7  2  0
  7  8  1  0
  8  9  1  0
  9 10  1  0
  9 14  2  0
 10 11  1  0
 10 12  1  0
 10 13  1  0
M  END
>  <i_m_ct_stereo_status>  (295) 
1

>  <s_m_source_file>  (295) 
/var/tmp/pbs.5076255.sched01/tmpyqr7shjn/887d44c5qo.sdf

>  <i_m_source_file_index>  (295) 
39

>  <i_lp_mmshare_version>  (295) 
48012

>  <i_f3d_flags>  (295) 
0

>  <s_epik_input>  (295) 
W0NIM11jMVtjSF1zYyhuMSktYzJub2MobjIpQyhGKShGKUY=

>  <s_epik_cmdline>  (295) 
J2VwaWtfcHl0aG9uJywgJy1waHQnLCAnMi4wJywgJy1waCcsICc3LjAnLCAnLXRuJywgJzgnLCAnLW1hJywgJzIwMCcsICctaW1hZScsICc8aW5maWxlLm1hZT4nLCAnLW9tYWUnLCAnPG91dGZpbGUubWFlPic=

>  <r_lp_tautomer_probability>  (295) 
1

>  <r_epik_Ionization_Penalty>  (295) 
4.53432e-07

>  <r_epik_Ionization_Penalty_Charging>  (295) 
0

>  <r_epik_Ionization_Penalty_Neutral>  (295) 
4.53432e-07

>  <r_epik_State_Penalty>  (295) 
-0

>  <r_epik_Charging_Adjusted_Penalty>  (295) 
0

>  <i_epik_Tot_Q>  (295) 
0

>  <i_epik_Tot_abs_Q>  (295) 
0

>  <s_lp_Force_Field>  (295) 
OPLS3e

>  <r_lp_Energy>  (295) 
3.1146

>  <b_lp_Chiralities_Consistent>  (295) 
1

>  <s_lp_Variant>  (295) 
87:0-1

>  <s_i_glide_gridfile>  (295) 
pfpi4k_grid

>  <i_i_glide_lignum>  (295) 
39

>  <i_i_glide_rotatable_bonds>  (295) 
2

>  <r_i_docking_score>  (295) 
-3.99491

>  <r_i_glide_ligand_efficiency>  (295) 
-0.266327

>  <r_i_glide_ligand_efficiency_sa>  (295) 
-0.656819

>  <r_i_glide_ligand_efficiency_ln>  (295) 
-1.07736

>  <r_i_glide_gscore>  (295) 
-3.99491

>  <r_i_glide_lipo>  (295) 
-0.324219

>  <r_i_glide_hbond>  (295) 
0

>  <r_i_glide_metal>  (295) 
-0

>  <r_i_glide_rewards>  (295) 
-2.1366

>  <r_i_glide_evdw>  (295) 
-19.5123

>  <r_i_glide_ecoul>  (295) 
-3.7057

>  <r_i_glide_erotb>  (295) 
0.310788

>  <r_i_glide_esite>  (295) 
-0.313407

>  <r_i_glide_emodel>  (295) 
-29.3359

>  <r_i_glide_energy>  (295) 
-23.218

>  <r_i_glide_einternal>  (295) 
0.561868

>  <r_i_glide_intrahb_reward>  (295) 
-0

>  <i_i_glide_confnum>  (295) 
4

>  <i_i_glide_posenum>  (295) 
14

>  <r_i_glide_eff_state_penalty>  (295) 
0

>  <ligand_id>  (295) 
87

>  <original_smiles>  (295) 
Cc1csc(-c2noc(C(F)(F)F)n2)n1

>  <smiles>  (295) 
[H]c1sc(-c2noc(C(F)(F)F)n2)nc1C([H])([H])[H]

$$$$
87:0:1
     RDKit          3D

 19 20  0  0  1  0  0  0  0  0999 V2000
    3.8172   -2.7838   -0.6460 C   0  0  0  0  0  0  0  0  0  0  0  0
    3.8144   -4.1472   -0.0323 C   0  0  0  0  0  0  0  0  0  0  0  0
    4.8816   -4.9760    0.2120 C   0  0  0  0  0  0  0  0  0  0  0  0
    4.3817   -6.4812    0.9404 S   0  0  0  0  0  0  0  0  0  0  0  0
    2.7163   -5.9091    0.8915 C   0  0  0  0  0  0  0  0  0  0  0  0
    1.6011   -6.7054    1.3831 C   0  0  0  0  0  0  0  0  0  0  0  0
    0.3542   -6.2863    1.2047 N   0  0  0  0  0  0  0  0  0  0  0  0
   -0.3995   -7.2995    1.8032 O   0  0  0  0  0  0  0  0  0  0  0  0
    0.4999   -8.2121    2.2649 C   0  0  0  0  0  0  0  0  0  0  0  0
   -0.0097   -9.4233    2.9777 C   0  0  0  0  0  0  0  0  0  0  0  0
    0.2688   -9.3308    4.2797 F   0  0  0  0  0  0  0  0  0  0  0  0
   -1.3319   -9.5230    2.8288 F   0  0  0  0  0  0  0  0  0  0  0  0
    0.5609  -10.5247    2.4862 F   0  0  0  0  0  0  0  0  0  0  0  0
    1.7723   -7.8774    2.0452 N   0  0  0  0  0  0  0  0  0  0  0  0
    2.5965   -4.6880    0.3663 N   0  0  0  0  0  0  0  0  0  0  0  0
    4.8156   -2.4433   -0.9190 H   0  0  0  0  0  0  0  0  0  0  0  0
    3.3896   -2.0571    0.0417 H   0  0  0  0  0  0  0  0  0  0  0  0
    3.1997   -2.7730   -1.5412 H   0  0  0  0  0  0  0  0  0  0  0  0
    5.9263   -4.8029    0.0039 H   0  0  0  0  0  0  0  0  0  0  0  0
  1  2  1  0
  1 16  1  0
  1 17  1  0
  1 18  1  0
  2 15  1  0
  2  3  2  0
  3  4  1  0
  3 19  1  0
  4  5  1  0
  5  6  1  0
  5 15  2  0
  6 14  1  0
  6  7  2  0
  7  8  1  0
  8  9  1  0
  9 10  1  0
  9 14  2  0
 10 11  1  0
 10 12  1  0
 10 13  1  0
M  END
>  <i_m_ct_stereo_status>  (296) 
1

>  <s_m_source_file>  (296) 
/var/tmp/pbs.5076255.sched01/tmpyqr7shjn/887d44c5qo.sdf

>  <i_m_source_file_index>  (296) 
39

>  <i_lp_mmshare_version>  (296) 
48012

>  <i_f3d_flags>  (296) 
0

>  <s_epik_input>  (296) 
W0NIM11jMVtjSF1zYyhuMSktYzJub2MobjIpQyhGKShGKUY=

>  <s_epik_cmdline>  (296) 
J2VwaWtfcHl0aG9uJywgJy1waHQnLCAnMi4wJywgJy1waCcsICc3LjAnLCAnLXRuJywgJzgnLCAnLW1hJywgJzIwMCcsICctaW1hZScsICc8aW5maWxlLm1hZT4nLCAnLW9tYWUnLCAnPG91dGZpbGUubWFlPic=

>  <r_lp_tautomer_probability>  (296) 
1

>  <r_epik_Ionization_Penalty>  (296) 
4.53432e-07

>  <r_epik_Ionization_Penalty_Charging>  (296) 
0

>  <r_epik_Ionization_Penalty_Neutral>  (296) 
4.53432e-07

>  <r_epik_State_Penalty>  (296) 
-0

>  <r_epik_Charging_Adjusted_Penalty>  (296) 
0

>  <i_epik_Tot_Q>  (296) 
0

>  <i_epik_Tot_abs_Q>  (296) 
0

>  <s_lp_Force_Field>  (296) 
OPLS3e

>  <r_lp_Energy>  (296) 
3.1146

>  <b_lp_Chiralities_Consistent>  (296) 
1

>  <s_lp_Variant>  (296) 
87:0-1

>  <s_i_glide_gridfile>  (296) 
pfpi4k_grid

>  <i_i_glide_lignum>  (296) 
39

>  <i_i_glide_rotatable_bonds>  (296) 
2

>  <r_i_docking_score>  (296) 
-3.68076

>  <r_i_glide_ligand_efficiency>  (296) 
-0.245384

>  <r_i_glide_ligand_efficiency_sa>  (296) 
-0.605169

>  <r_i_glide_ligand_efficiency_ln>  (296) 
-0.992641

>  <r_i_glide_gscore>  (296) 
-3.68076

>  <r_i_glide_lipo>  (296) 
-0.155953

>  <r_i_glide_hbond>  (296) 
0

>  <r_i_glide_metal>  (296) 
-0

>  <r_i_glide_rewards>  (296) 
-2.05396

>  <r_i_glide_evdw>  (296) 
-18.0368

>  <r_i_glide_ecoul>  (296) 
-3.89696

>  <r_i_glide_erotb>  (296) 
0.310788

>  <r_i_glide_esite>  (296) 
-0.295251

>  <r_i_glide_emodel>  (296) 
-27.7337

>  <r_i_glide_energy>  (296) 
-21.9338

>  <r_i_glide_einternal>  (296) 
0.237705

>  <r_i_glide_intrahb_reward>  (296) 
-0

>  <i_i_glide_confnum>  (296) 
3

>  <i_i_glide_posenum>  (296) 
12

>  <r_i_glide_eff_state_penalty>  (296) 
0

>  <ligand_id>  (296) 
87

>  <original_smiles>  (296) 
Cc1csc(-c2noc(C(F)(F)F)n2)n1

>  <smiles>  (296) 
[H]c1sc(-c2noc(C(F)(F)F)n2)nc1C([H])([H])[H]

$$$$
87:0:2
     RDKit          3D

 19 20  0  0  1  0  0  0  0  0999 V2000
   -2.0862   -8.0738    3.0817 C   0  0  0  0  0  0  0  0  0  0  0  0
   -0.6378   -8.2543    2.7874 C   0  0  0  0  0  0  0  0  0  0  0  0
    0.1550   -9.3350    3.0718 C   0  0  0  0  0  0  0  0  0  0  0  0
    1.7950   -9.0974    2.5308 S   0  0  0  0  0  0  0  0  0  0  0  0
    1.3296   -7.5071    1.9292 C   0  0  0  0  0  0  0  0  0  0  0  0
    2.2802   -6.6092    1.2772 C   0  0  0  0  0  0  0  0  0  0  0  0
    3.5781   -6.8698    1.1791 N   0  0  0  0  0  0  0  0  0  0  0  0
    4.0586   -5.7511    0.4768 O   0  0  0  0  0  0  0  0  0  0  0  0
    2.9756   -4.9659    0.2273 C   0  0  0  0  0  0  0  0  0  0  0  0
    3.1628   -3.6596   -0.4812 C   0  0  0  0  0  0  0  0  0  0  0  0
    4.3489   -3.6093   -1.0863 F   0  0  0  0  0  0  0  0  0  0  0  0
    2.2153   -3.4781   -1.3990 F   0  0  0  0  0  0  0  0  0  0  0  0
    3.0952   -2.6523    0.3869 F   0  0  0  0  0  0  0  0  0  0  0  0
    1.8275   -5.4580    0.7065 N   0  0  0  0  0  0  0  0  0  0  0  0
    0.0377   -7.2229    2.1328 N   0  0  0  0  0  0  0  0  0  0  0  0
   -2.5245   -8.9362    3.5820 H   0  0  0  0  0  0  0  0  0  0  0  0
   -2.6224   -7.9076    2.1520 H   0  0  0  0  0  0  0  0  0  0  0  0
   -2.2358   -7.1998    3.7114 H   0  0  0  0  0  0  0  0  0  0  0  0
   -0.1236  -10.2519    3.5694 H   0  0  0  0  0  0  0  0  0  0  0  0
  1  2  1  0
  1 16  1  0
  1 17  1  0
  1 18  1  0
  2 15  1  0
  2  3  2  0
  3  4  1  0
  3 19  1  0
  4  5  1  0
  5  6  1  0
  5 15  2  0
  6 14  1  0
  6  7  2  0
  7  8  1  0
  8  9  1  0
  9 10  1  0
  9 14  2  0
 10 11  1  0
 10 12  1  0
 10 13  1  0
M  END
>  <i_m_ct_stereo_status>  (297) 
1

>  <s_m_source_file>  (297) 
/var/tmp/pbs.5076255.sched01/tmpyqr7shjn/887d44c5qo.sdf

>  <i_m_source_file_index>  (297) 
39

>  <i_lp_mmshare_version>  (297) 
48012

>  <i_f3d_flags>  (297) 
0

>  <s_epik_input>  (297) 
W0NIM11jMVtjSF1zYyhuMSktYzJub2MobjIpQyhGKShGKUY=

>  <s_epik_cmdline>  (297) 
J2VwaWtfcHl0aG9uJywgJy1waHQnLCAnMi4wJywgJy1waCcsICc3LjAnLCAnLXRuJywgJzgnLCAnLW1hJywgJzIwMCcsICctaW1hZScsICc8aW5maWxlLm1hZT4nLCAnLW9tYWUnLCAnPG91dGZpbGUubWFlPic=

>  <r_lp_tautomer_probability>  (297) 
1

>  <r_epik_Ionization_Penalty>  (297) 
4.53432e-07

>  <r_epik_Ionization_Penalty_Charging>  (297) 
0

>  <r_epik_Ionization_Penalty_Neutral>  (297) 
4.53432e-07

>  <r_epik_State_Penalty>  (297) 
-0

>  <r_epik_Charging_Adjusted_Penalty>  (297) 
0

>  <i_epik_Tot_Q>  (297) 
0

>  <i_epik_Tot_abs_Q>  (297) 
0

>  <s_lp_Force_Field>  (297) 
OPLS3e

>  <r_lp_Energy>  (297) 
3.1146

>  <b_lp_Chiralities_Consistent>  (297) 
1

>  <s_lp_Variant>  (297) 
87:0-1

>  <s_i_glide_gridfile>  (297) 
pfpi4k_grid

>  <i_i_glide_lignum>  (297) 
39

>  <i_i_glide_rotatable_bonds>  (297) 
2

>  <r_i_docking_score>  (297) 
-3.36167

>  <r_i_glide_ligand_efficiency>  (297) 
-0.224112

>  <r_i_glide_ligand_efficiency_sa>  (297) 
-0.552707

>  <r_i_glide_ligand_efficiency_ln>  (297) 
-0.906588

>  <r_i_glide_gscore>  (297) 
-3.36167

>  <r_i_glide_lipo>  (297) 
-0.0306469

>  <r_i_glide_hbond>  (297) 
-0.100273

>  <r_i_glide_metal>  (297) 
-0

>  <r_i_glide_rewards>  (297) 
-1.88011

>  <r_i_glide_evdw>  (297) 
-20.2191

>  <r_i_glide_ecoul>  (297) 
-3.91376

>  <r_i_glide_erotb>  (297) 
0.310788

>  <r_i_glide_esite>  (297) 
-0.0634111

>  <r_i_glide_emodel>  (297) 
-29.3596

>  <r_i_glide_energy>  (297) 
-24.1328

>  <r_i_glide_einternal>  (297) 
0.21995

>  <r_i_glide_intrahb_reward>  (297) 
-0

>  <i_i_glide_confnum>  (297) 
4

>  <i_i_glide_posenum>  (297) 
7

>  <r_i_glide_eff_state_penalty>  (297) 
0

>  <ligand_id>  (297) 
87

>  <original_smiles>  (297) 
Cc1csc(-c2noc(C(F)(F)F)n2)n1

>  <smiles>  (297) 
[H]c1sc(-c2noc(C(F)(F)F)n2)nc1C([H])([H])[H]

$$$$
88:0:0
     RDKit          3D

 37 40  0  0  1  0  0  0  0  0999 V2000
    1.4247    1.6431    2.2386 C   0  0  0  0  0  0  0  0  0  0  0  0
    1.5918    0.2555    2.1049 C   0  0  0  0  0  0  0  0  0  0  0  0
    2.5027   -0.3535    2.9885 C   0  0  0  0  0  0  0  0  0  0  0  0
    2.8141   -1.7315    2.9312 N   0  0  0  0  0  0  0  0  0  0  0  0
    2.1746   -2.4592    4.0235 C   0  0  0  0  0  0  0  0  0  0  0  0
    2.7059   -3.9016    4.1100 C   0  0  0  0  0  0  0  0  0  0  0  0
    2.5566   -4.5364    2.8444 O   0  0  0  0  0  0  0  0  0  0  0  0
    3.2906   -3.8536    1.8315 C   0  0  1  0  0  0  0  0  0  0  0  0
    3.1529   -4.6154    0.5171 C   0  0  0  0  0  0  0  0  0  0  0  0
    3.9368   -3.8911   -0.5787 C   0  0  0  0  0  0  0  0  0  0  0  0
    3.5263   -2.5051   -0.7701 N   0  0  0  0  0  0  0  0  0  0  0  0
    3.6243   -1.9014   -2.0222 C   0  0  0  0  0  0  0  0  0  0  0  0
    4.2023   -0.7076   -2.1880 N   0  0  0  0  0  0  0  0  0  0  0  0
    4.2127   -0.2951   -3.5031 N   0  0  0  0  0  0  0  0  0  0  0  0
    3.6615   -1.2199   -4.3111 C   0  0  0  0  0  0  0  0  0  0  0  0
    3.1076   -2.6877   -3.5256 S   0  0  0  0  0  0  0  0  0  0  0  0
    3.4704   -1.7208    0.4743 C   0  0  0  0  0  0  0  0  0  0  0  0
    2.7218   -2.4292    1.6469 C   0  0  2  0  0  0  0  0  0  0  0  0
    3.1280    0.3544    3.9501 N   0  0  0  0  0  0  0  0  0  0  0  0
    2.8877    1.6649    3.9817 C   0  0  0  0  0  0  0  0  0  0  0  0
    2.0882    2.3435    3.1752 N   0  0  0  0  0  0  0  0  0  0  0  0
    0.7787    2.1884    1.5699 H   0  0  0  0  0  0  0  0  0  0  0  0
    1.0490   -0.2611    1.3287 H   0  0  0  0  0  0  0  0  0  0  0  0
    2.2783   -1.9462    4.9843 H   0  0  0  0  0  0  0  0  0  0  0  0
    1.1115   -2.4909    3.8021 H   0  0  0  0  0  0  0  0  0  0  0  0
    3.7507   -3.9057    4.4253 H   0  0  0  0  0  0  0  0  0  0  0  0
    2.1406   -4.4720    4.8466 H   0  0  0  0  0  0  0  0  0  0  0  0
    4.3467   -3.8063    2.1140 H   0  0  0  0  0  0  0  0  0  0  0  0
    3.5285   -5.6349    0.6219 H   0  0  0  0  0  0  0  0  0  0  0  0
    2.0970   -4.6993    0.2576 H   0  0  0  0  0  0  0  0  0  0  0  0
    5.0046   -3.9097   -0.3693 H   0  0  0  0  0  0  0  0  0  0  0  0
    3.8048   -4.4204   -1.5155 H   0  0  0  0  0  0  0  0  0  0  0  0
    3.6384   -0.9983   -5.3670 H   0  0  0  0  0  0  0  0  0  0  0  0
    4.4589   -1.3818    0.7907 H   0  0  0  0  0  0  0  0  0  0  0  0
    2.9743   -0.7862    0.2036 H   0  0  0  0  0  0  0  0  0  0  0  0
    1.6627   -2.5367    1.4088 H   0  0  0  0  0  0  0  0  0  0  0  0
    3.3901    2.2468    4.7325 H   0  0  0  0  0  0  0  0  0  0  0  0
  1 21  2  0
  1  2  1  0
  1 22  1  0
  2  3  2  0
  2 23  1  0
  3  4  1  0
  3 19  1  0
  4 18  1  0
  4  5  1  0
  5  6  1  0
  5 24  1  0
  5 25  1  0
  6  7  1  0
  6 26  1  0
  6 27  1  0
  7  8  1  0
  8 18  1  0
  8  9  1  0
  8 28  1  1
  9 10  1  0
  9 29  1  0
  9 30  1  0
 10 11  1  0
 10 31  1  0
 10 32  1  0
 11 12  1  0
 11 17  1  0
 12 16  1  0
 12 13  2  0
 13 14  1  0
 14 15  2  0
 15 16  1  0
 15 33  1  0
 17 18  1  0
 17 34  1  0
 17 35  1  0
 18 36  1  6
 19 20  2  0
 20 21  1  0
 20 37  1  0
M  END
>  <i_m_ct_stereo_status>  (298) 
1

>  <s_m_source_file>  (298) 
/var/tmp/pbs.5076255.sched01/tmpyqr7shjn/887d44c5qo.sdf

>  <i_m_source_file_index>  (298) 
40

>  <i_lp_mmshare_version>  (298) 
48012

>  <i_f3d_flags>  (298) 
0

>  <s_epik_input>  (298) 
bjFbY0hdbltjSF1bY0hdYzFOKFtDSDJdW0NIMl1PMilbQ0BIXShbQ0BASF0yMylbQ0gyXU4oW0NIMl1bQ0gyXTMpYzRubltjSF1zNA==

>  <s_epik_cmdline>  (298) 
J2VwaWtfcHl0aG9uJywgJy1waHQnLCAnMi4wJywgJy1waCcsICc3LjAnLCAnLXRuJywgJzgnLCAnLW1hJywgJzIwMCcsICctaW1hZScsICc8aW5maWxlLm1hZT4nLCAnLW9tYWUnLCAnPG91dGZpbGUubWFlPic=

>  <r_lp_tautomer_probability>  (298) 
1

>  <r_epik_Ionization_Penalty>  (298) 
0.41141

>  <r_epik_Ionization_Penalty_Charging>  (298) 
0

>  <r_epik_Ionization_Penalty_Neutral>  (298) 
0.41141

>  <r_epik_State_Penalty>  (298) 
0.407827

>  <r_epik_Charging_Adjusted_Penalty>  (298) 
0.407827

>  <i_epik_Tot_Q>  (298) 
0

>  <i_epik_Tot_abs_Q>  (298) 
0

>  <s_lp_Force_Field>  (298) 
OPLS3e

>  <r_lp_Energy>  (298) 
45.7131

>  <b_lp_Chiralities_Consistent>  (298) 
1

>  <s_lp_Variant>  (298) 
88:0-1

>  <s_i_glide_gridfile>  (298) 
pfpi4k_grid

>  <i_i_glide_lignum>  (298) 
40

>  <i_i_glide_rotatable_bonds>  (298) 
2

>  <r_i_docking_score>  (298) 
-2.69196

>  <r_i_glide_ligand_efficiency>  (298) 
-0.128189

>  <r_i_glide_ligand_efficiency_sa>  (298) 
-0.353662

>  <r_i_glide_ligand_efficiency_ln>  (298) 
-0.665581

>  <r_i_glide_gscore>  (298) 
-2.69196

>  <r_i_glide_lipo>  (298) 
-0.213013

>  <r_i_glide_hbond>  (298) 
0

>  <r_i_glide_metal>  (298) 
-0

>  <r_i_glide_rewards>  (298) 
-1.33383

>  <r_i_glide_evdw>  (298) 
-28.7779

>  <r_i_glide_ecoul>  (298) 
-0.300845

>  <r_i_glide_erotb>  (298) 
0.398117

>  <r_i_glide_esite>  (298) 
-0.0592121

>  <r_i_glide_emodel>  (298) 
-31.8655

>  <r_i_glide_energy>  (298) 
-29.0787

>  <r_i_glide_einternal>  (298) 
2.44244

>  <r_i_glide_intrahb_reward>  (298) 
-0

>  <i_i_glide_confnum>  (298) 
2

>  <i_i_glide_posenum>  (298) 
38

>  <r_i_glide_eff_state_penalty>  (298) 
0

>  <ligand_id>  (298) 
88

>  <original_smiles>  (298) 
c1cc(N2CCOC3CCN(c4nncs4)CC32)ncn1

>  <smiles>  (298) 
[H]c1nc([H])c([H])c(N2C([H])([H])C([H])([H])OC3([H])C([H])([H])C([H])([H])N(c4nnc([H])s4)C([H])([H])C23[H])n1

$$$$
88:0:1
     RDKit          3D

 37 40  0  0  1  0  0  0  0  0999 V2000
    2.2996    0.7342    2.2107 C   0  0  0  0  0  0  0  0  0  0  0  0
    3.0563   -0.4433    2.2622 C   0  0  0  0  0  0  0  0  0  0  0  0
    2.4374   -1.5841    2.8233 C   0  0  0  0  0  0  0  0  0  0  0  0
    3.0986   -2.8277    2.8621 N   0  0  0  0  0  0  0  0  0  0  0  0
    2.7013   -3.7294    3.9481 C   0  0  0  0  0  0  0  0  0  0  0  0
    3.6793   -4.9098    4.0733 C   0  0  0  0  0  0  0  0  0  0  0  0
    3.7746   -5.5847    2.8255 O   0  0  0  0  0  0  0  0  0  0  0  0
    4.2558   -4.7208    1.8036 C   0  0  1  0  0  0  0  0  0  0  0  0
    4.3763   -5.5157    0.5038 C   0  0  0  0  0  0  0  0  0  0  0  0
    4.8916   -4.6047   -0.6156 C   0  0  0  0  0  0  0  0  0  0  0  0
    4.0481   -3.4224   -0.8365 N   0  0  0  0  0  0  0  0  0  0  0  0
    3.9884   -2.7990   -2.0740 C   0  0  0  0  0  0  0  0  0  0  0  0
    4.2107   -3.4098   -3.2407 N   0  0  0  0  0  0  0  0  0  0  0  0
    4.1070   -2.5307   -4.3025 N   0  0  0  0  0  0  0  0  0  0  0  0
    3.8488   -1.2862   -3.9099 C   0  0  0  0  0  0  0  0  0  0  0  0
    3.7383   -1.0607   -2.1906 S   0  0  0  0  0  0  0  0  0  0  0  0
    3.7239   -2.6968    0.3990 C   0  0  0  0  0  0  0  0  0  0  0  0
    3.2556   -3.5670    1.5918 C   0  0  2  0  0  0  0  0  0  0  0  0
    1.1951   -1.4895    3.3569 N   0  0  0  0  0  0  0  0  0  0  0  0
    0.5955   -0.3040    3.3056 C   0  0  0  0  0  0  0  0  0  0  0  0
    1.0732    0.8074    2.7564 N   0  0  0  0  0  0  0  0  0  0  0  0
    2.6903    1.6353    1.7505 H   0  0  0  0  0  0  0  0  0  0  0  0
    4.0627   -0.4525    1.8708 H   0  0  0  0  0  0  0  0  0  0  0  0
    2.6393   -3.1899    4.8934 H   0  0  0  0  0  0  0  0  0  0  0  0
    1.7050   -4.1119    3.7387 H   0  0  0  0  0  0  0  0  0  0  0  0
    4.6634   -4.5675    4.3975 H   0  0  0  0  0  0  0  0  0  0  0  0
    3.3231   -5.6209    4.8171 H   0  0  0  0  0  0  0  0  0  0  0  0
    5.2411   -4.3305    2.0808 H   0  0  0  0  0  0  0  0  0  0  0  0
    5.0531   -6.3622    0.6300 H   0  0  0  0  0  0  0  0  0  0  0  0
    3.4006   -5.9225    0.2349 H   0  0  0  0  0  0  0  0  0  0  0  0
    5.9174   -4.2835   -0.4055 H   0  0  0  0  0  0  0  0  0  0  0  0
    4.9385   -5.1855   -1.5387 H   0  0  0  0  0  0  0  0  0  0  0  0
    3.7824   -0.4960   -4.6335 H   0  0  0  0  0  0  0  0  0  0  0  0
    4.5945   -2.0924    0.6616 H   0  0  0  0  0  0  0  0  0  0  0  0
    2.9153   -1.9960    0.1773 H   0  0  0  0  0  0  0  0  0  0  0  0
    2.2855   -4.0039    1.3401 H   0  0  0  0  0  0  0  0  0  0  0  0
   -0.3835   -0.2230    3.7340 H   0  0  0  0  0  0  0  0  0  0  0  0
  1 21  2  0
  1  2  1  0
  1 22  1  0
  2  3  2  0
  2 23  1  0
  3  4  1  0
  3 19  1  0
  4 18  1  0
  4  5  1  0
  5  6  1  0
  5 24  1  0
  5 25  1  0
  6  7  1  0
  6 26  1  0
  6 27  1  0
  7  8  1  0
  8 18  1  0
  8  9  1  0
  8 28  1  1
  9 10  1  0
  9 29  1  0
  9 30  1  0
 10 11  1  0
 10 31  1  0
 10 32  1  0
 11 12  1  0
 11 17  1  0
 12 16  1  0
 12 13  2  0
 13 14  1  0
 14 15  2  0
 15 16  1  0
 15 33  1  0
 17 18  1  0
 17 34  1  0
 17 35  1  0
 18 36  1  6
 19 20  2  0
 20 21  1  0
 20 37  1  0
M  END
>  <i_m_ct_stereo_status>  (299) 
1

>  <s_m_source_file>  (299) 
/var/tmp/pbs.5076255.sched01/tmpyqr7shjn/887d44c5qo.sdf

>  <i_m_source_file_index>  (299) 
40

>  <i_lp_mmshare_version>  (299) 
48012

>  <i_f3d_flags>  (299) 
0

>  <s_epik_input>  (299) 
bjFbY0hdbltjSF1bY0hdYzFOKFtDSDJdW0NIMl1PMilbQ0BIXShbQ0BASF0yMylbQ0gyXU4oW0NIMl1bQ0gyXTMpYzRubltjSF1zNA==

>  <s_epik_cmdline>  (299) 
J2VwaWtfcHl0aG9uJywgJy1waHQnLCAnMi4wJywgJy1waCcsICc3LjAnLCAnLXRuJywgJzgnLCAnLW1hJywgJzIwMCcsICctaW1hZScsICc8aW5maWxlLm1hZT4nLCAnLW9tYWUnLCAnPG91dGZpbGUubWFlPic=

>  <r_lp_tautomer_probability>  (299) 
1

>  <r_epik_Ionization_Penalty>  (299) 
0.41141

>  <r_epik_Ionization_Penalty_Charging>  (299) 
0

>  <r_epik_Ionization_Penalty_Neutral>  (299) 
0.41141

>  <r_epik_State_Penalty>  (299) 
0.407827

>  <r_epik_Charging_Adjusted_Penalty>  (299) 
0.407827

>  <i_epik_Tot_Q>  (299) 
0

>  <i_epik_Tot_abs_Q>  (299) 
0

>  <s_lp_Force_Field>  (299) 
OPLS3e

>  <r_lp_Energy>  (299) 
45.7131

>  <b_lp_Chiralities_Consistent>  (299) 
1

>  <s_lp_Variant>  (299) 
88:0-1

>  <s_i_glide_gridfile>  (299) 
pfpi4k_grid

>  <i_i_glide_lignum>  (299) 
40

>  <i_i_glide_rotatable_bonds>  (299) 
2

>  <r_i_docking_score>  (299) 
-2.62662

>  <r_i_glide_ligand_efficiency>  (299) 
-0.125077

>  <r_i_glide_ligand_efficiency_sa>  (299) 
-0.345079

>  <r_i_glide_ligand_efficiency_ln>  (299) 
-0.649427

>  <r_i_glide_gscore>  (299) 
-2.62662

>  <r_i_glide_lipo>  (299) 
-0.194296

>  <r_i_glide_hbond>  (299) 
0

>  <r_i_glide_metal>  (299) 
-0

>  <r_i_glide_rewards>  (299) 
-1.35834

>  <r_i_glide_evdw>  (299) 
-25.6773

>  <r_i_glide_ecoul>  (299) 
-0.742213

>  <r_i_glide_erotb>  (299) 
0.398117

>  <r_i_glide_esite>  (299) 
-0.0769035

>  <r_i_glide_emodel>  (299) 
-30.3238

>  <r_i_glide_energy>  (299) 
-26.4195

>  <r_i_glide_einternal>  (299) 
0.592071

>  <r_i_glide_intrahb_reward>  (299) 
-0

>  <i_i_glide_confnum>  (299) 
2

>  <i_i_glide_posenum>  (299) 
1

>  <r_i_glide_eff_state_penalty>  (299) 
0

>  <ligand_id>  (299) 
88

>  <original_smiles>  (299) 
c1cc(N2CCOC3CCN(c4nncs4)CC32)ncn1

>  <smiles>  (299) 
[H]c1nc([H])c([H])c(N2C([H])([H])C([H])([H])OC3([H])C([H])([H])C([H])([H])N(c4nnc([H])s4)C([H])([H])C23[H])n1

$$$$
88:0:2
     RDKit          3D

 37 40  0  0  1  0  0  0  0  0999 V2000
    2.0107   -0.0220   10.6258 C   0  0  0  0  0  0  0  0  0  0  0  0
    1.0334    0.9166   10.2639 C   0  0  0  0  0  0  0  0  0  0  0  0
    0.1195    0.5356    9.2565 C   0  0  0  0  0  0  0  0  0  0  0  0
   -0.9514    1.3622    8.8458 N   0  0  0  0  0  0  0  0  0  0  0  0
   -1.4136    2.3071    9.8644 C   0  0  0  0  0  0  0  0  0  0  0  0
   -2.7585    2.9421    9.4748 C   0  0  0  0  0  0  0  0  0  0  0  0
   -2.6502    3.5410    8.1881 O   0  0  0  0  0  0  0  0  0  0  0  0
   -2.2813    2.5925    7.1931 C   0  0  1  0  0  0  0  0  0  0  0  0
   -2.2024    3.3013    5.8462 C   0  0  0  0  0  0  0  0  0  0  0  0
   -1.8035    2.3110    4.7443 C   0  0  0  0  0  0  0  0  0  0  0  0
   -0.5454    1.6019    5.0073 N   0  0  0  0  0  0  0  0  0  0  0  0
    0.2450    1.1286    3.9526 C   0  0  0  0  0  0  0  0  0  0  0  0
    0.0476    1.4503    2.6640 N   0  0  0  0  0  0  0  0  0  0  0  0
    0.9395    0.8114    1.8135 N   0  0  0  0  0  0  0  0  0  0  0  0
    1.7657    0.0064    2.4838 C   0  0  0  0  0  0  0  0  0  0  0  0
    1.5511   -0.0293    4.2231 S   0  0  0  0  0  0  0  0  0  0  0  0
   -0.4451    1.0533    6.3723 C   0  0  0  0  0  0  0  0  0  0  0  0
   -0.8967    1.9942    7.5167 C   0  0  2  0  0  0  0  0  0  0  0  0
    0.2028   -0.6879    8.6879 N   0  0  0  0  0  0  0  0  0  0  0  0
    1.1846   -1.4936    9.1023 C   0  0  0  0  0  0  0  0  0  0  0  0
    2.0894   -1.2286   10.0371 N   0  0  0  0  0  0  0  0  0  0  0  0
    2.7378    0.1850   11.3962 H   0  0  0  0  0  0  0  0  0  0  0  0
    1.0038    1.8720   10.7666 H   0  0  0  0  0  0  0  0  0  0  0  0
   -1.5031    1.8166   10.8359 H   0  0  0  0  0  0  0  0  0  0  0  0
   -0.6741    3.1003    9.9662 H   0  0  0  0  0  0  0  0  0  0  0  0
   -3.5428    2.1872    9.4872 H   0  0  0  0  0  0  0  0  0  0  0  0
   -3.0376    3.7048   10.2024 H   0  0  0  0  0  0  0  0  0  0  0  0
   -3.0380    1.8064    7.1438 H   0  0  0  0  0  0  0  0  0  0  0  0
   -3.1706    3.7409    5.6132 H   0  0  0  0  0  0  0  0  0  0  0  0
   -1.4829    4.1203    5.9009 H   0  0  0  0  0  0  0  0  0  0  0  0
   -2.5845    1.5662    4.5939 H   0  0  0  0  0  0  0  0  0  0  0  0
   -1.7364    2.8689    3.8023 H   0  0  0  0  0  0  0  0  0  0  0  0
    2.5032   -0.5687    1.9417 H   0  0  0  0  0  0  0  0  0  0  0  0
   -0.9710    0.0992    6.4036 H   0  0  0  0  0  0  0  0  0  0  0  0
    0.6027    0.8242    6.5618 H   0  0  0  0  0  0  0  0  0  0  0  0
   -0.1830    2.8187    7.5770 H   0  0  0  0  0  0  0  0  0  0  0  0
    1.2508   -2.4652    8.6373 H   0  0  0  0  0  0  0  0  0  0  0  0
  1 21  2  0
  1  2  1  0
  1 22  1  0
  2  3  2  0
  2 23  1  0
  3  4  1  0
  3 19  1  0
  4 18  1  0
  4  5  1  0
  5  6  1  0
  5 24  1  0
  5 25  1  0
  6  7  1  0
  6 26  1  0
  6 27  1  0
  7  8  1  0
  8 18  1  0
  8  9  1  0
  8 28  1  6
  9 10  1  0
  9 29  1  0
  9 30  1  0
 10 11  1  0
 10 31  1  0
 10 32  1  0
 11 12  1  0
 11 17  1  0
 12 16  1  0
 12 13  2  0
 13 14  1  0
 14 15  2  0
 15 16  1  0
 15 33  1  0
 17 18  1  0
 17 34  1  0
 17 35  1  0
 18 36  1  1
 19 20  2  0
 20 21  1  0
 20 37  1  0
M  END
>  <i_m_ct_stereo_status>  (300) 
1

>  <s_m_source_file>  (300) 
/var/tmp/pbs.5076255.sched01/tmpyqr7shjn/887d44c5qo.sdf

>  <i_m_source_file_index>  (300) 
40

>  <i_lp_mmshare_version>  (300) 
48012

>  <i_f3d_flags>  (300) 
0

>  <s_epik_input>  (300) 
bjFbY0hdbltjSF1bY0hdYzFOKFtDSDJdW0NIMl1PMilbQ0BIXShbQ0BASF0yMylbQ0gyXU4oW0NIMl1bQ0gyXTMpYzRubltjSF1zNA==

>  <s_epik_cmdline>  (300) 
J2VwaWtfcHl0aG9uJywgJy1waHQnLCAnMi4wJywgJy1waCcsICc3LjAnLCAnLXRuJywgJzgnLCAnLW1hJywgJzIwMCcsICctaW1hZScsICc8aW5maWxlLm1hZT4nLCAnLW9tYWUnLCAnPG91dGZpbGUubWFlPic=

>  <r_lp_tautomer_probability>  (300) 
1

>  <r_epik_Ionization_Penalty>  (300) 
0.41141

>  <r_epik_Ionization_Penalty_Charging>  (300) 
0

>  <r_epik_Ionization_Penalty_Neutral>  (300) 
0.41141

>  <r_epik_State_Penalty>  (300) 
0.407827

>  <r_epik_Charging_Adjusted_Penalty>  (300) 
0.407827

>  <i_epik_Tot_Q>  (300) 
0

>  <i_epik_Tot_abs_Q>  (300) 
0

>  <s_lp_Force_Field>  (300) 
OPLS3e

>  <r_lp_Energy>  (300) 
45.7131

>  <b_lp_Chiralities_Consistent>  (300) 
1

>  <s_lp_Variant>  (300) 
88:0-1

>  <s_i_glide_gridfile>  (300) 
pfpi4k_grid

>  <i_i_glide_lignum>  (300) 
40

>  <i_i_glide_rotatable_bonds>  (300) 
2

>  <r_i_docking_score>  (300) 
-2.5698

>  <r_i_glide_ligand_efficiency>  (300) 
-0.122371

>  <r_i_glide_ligand_efficiency_sa>  (300) 
-0.337613

>  <r_i_glide_ligand_efficiency_ln>  (300) 
-0.635377

>  <r_i_glide_gscore>  (300) 
-2.5698

>  <r_i_glide_lipo>  (300) 
-0.11966

>  <r_i_glide_hbond>  (300) 
-0.012071

>  <r_i_glide_metal>  (300) 
-0

>  <r_i_glide_rewards>  (300) 
-1.33383

>  <r_i_glide_evdw>  (300) 
-20.5907

>  <r_i_glide_ecoul>  (300) 
-1.88494

>  <r_i_glide_erotb>  (300) 
0.398117

>  <r_i_glide_esite>  (300) 
-0.190076

>  <r_i_glide_emodel>  (300) 
-26.818

>  <r_i_glide_energy>  (300) 
-22.4757

>  <r_i_glide_einternal>  (300) 
0.067263

>  <r_i_glide_intrahb_reward>  (300) 
-0

>  <i_i_glide_confnum>  (300) 
3

>  <i_i_glide_posenum>  (300) 
3

>  <r_i_glide_eff_state_penalty>  (300) 
0

>  <ligand_id>  (300) 
88

>  <original_smiles>  (300) 
c1cc(N2CCOC3CCN(c4nncs4)CC32)ncn1

>  <smiles>  (300) 
[H]c1nc([H])c([H])c(N2C([H])([H])C([H])([H])OC3([H])C([H])([H])C([H])([H])N(c4nnc([H])s4)C([H])([H])C23[H])n1

$$$$
88:1:0
     RDKit          3D

 38 41  0  0  1  0  0  0  0  0999 V2000
    2.2315    2.1095    2.4978 C   0  0  0  0  0  0  0  0  0  0  0  0
    2.8125    0.8913    2.9012 C   0  0  0  0  0  0  0  0  0  0  0  0
    2.0748   -0.2778    2.6806 C   0  0  0  0  0  0  0  0  0  0  0  0
    2.6310   -1.5314    3.0144 N   0  0  0  0  0  0  0  0  0  0  0  0
    2.0491   -2.1276    4.2157 C   0  0  0  0  0  0  0  0  0  0  0  0
    2.9061   -3.3187    4.6891 C   0  0  0  0  0  0  0  0  0  0  0  0
    3.0564   -4.2542    3.6267 O   0  0  0  0  0  0  0  0  0  0  0  0
    3.6860   -3.6665    2.4928 C   0  0  1  0  0  0  0  0  0  0  0  0
    3.8451   -4.7271    1.4097 C   0  0  0  0  0  0  0  0  0  0  0  0
    4.5200   -4.1151    0.1769 C   0  0  0  0  0  0  0  0  0  0  0  0
    3.8136   -2.9515   -0.3685 N   0  0  0  0  0  0  0  0  0  0  0  0
    3.8694   -2.6452   -1.7323 C   0  0  0  0  0  0  0  0  0  0  0  0
    4.3833   -3.4589   -2.6674 N   0  0  0  0  0  0  0  0  0  0  0  0
    4.3682   -2.8890   -3.9205 N   0  0  0  0  0  0  0  0  0  0  0  0
    3.8879   -1.6472   -3.8975 C   0  0  0  0  0  0  0  0  0  0  0  0
    3.4189   -1.0617   -2.3292 S   0  0  0  0  0  0  0  0  0  0  0  0
    3.4301   -1.9510    0.6546 C   0  0  0  0  0  0  0  0  0  0  0  0
    2.8017   -2.5271    1.9484 C   0  0  2  0  0  0  0  0  0  0  0  0
    0.8384   -0.2143    2.1500 N   0  0  0  0  0  0  0  0  0  0  0  0
    0.3451    0.9801    1.7709 C   0  0  0  0  0  0  0  0  0  0  0  0
    1.0077    2.1368    1.9203 N   0  0  0  0  0  0  0  0  0  0  0  0
    2.7245    3.0608    2.5661 H   0  0  0  0  0  0  0  0  0  0  0  0
    3.8068    0.8610    3.3259 H   0  0  0  0  0  0  0  0  0  0  0  0
    1.9412   -1.3999    5.0221 H   0  0  0  0  0  0  0  0  0  0  0  0
    1.0481   -2.4900    3.9872 H   0  0  0  0  0  0  0  0  0  0  0  0
    3.8844   -2.9801    5.0322 H   0  0  0  0  0  0  0  0  0  0  0  0
    2.4382   -3.8329    5.5285 H   0  0  0  0  0  0  0  0  0  0  0  0
    4.6756   -3.2942    2.7804 H   0  0  0  0  0  0  0  0  0  0  0  0
    4.4418   -5.5613    1.7795 H   0  0  0  0  0  0  0  0  0  0  0  0
    2.8666   -5.1338    1.1520 H   0  0  0  0  0  0  0  0  0  0  0  0
    5.5498   -3.8300    0.4099 H   0  0  0  0  0  0  0  0  0  0  0  0
    4.5718   -4.8941   -0.5875 H   0  0  0  0  0  0  0  0  0  0  0  0
    3.8518   -1.0504   -4.7956 H   0  0  0  0  0  0  0  0  0  0  0  0
    4.2805   -1.3051    0.8715 H   0  0  0  0  0  0  0  0  0  0  0  0
    2.6891   -1.2755    0.2352 H   0  0  0  0  0  0  0  0  0  0  0  0
    1.8188   -2.9411    1.7072 H   0  0  0  0  0  0  0  0  0  0  0  0
   -0.6232    1.0452    1.2883 H   0  0  0  0  0  0  0  0  0  0  0  0
    0.6236    3.0318    1.5461 H   0  0  0  0  0  0  0  0  0  0  0  0
  1 21  2  0
  1  2  1  0
  1 22  1  0
  2  3  2  0
  2 23  1  0
  3  4  1  0
  3 19  1  0
  4 18  1  0
  4  5  1  0
  5  6  1  0
  5 24  1  0
  5 25  1  0
  6  7  1  0
  6 26  1  0
  6 27  1  0
  7  8  1  0
  8 18  1  0
  8  9  1  0
  8 28  1  1
  9 10  1  0
  9 29  1  0
  9 30  1  0
 10 11  1  0
 10 31  1  0
 10 32  1  0
 11 12  1  0
 11 17  1  0
 12 16  1  0
 12 13  2  0
 13 14  1  0
 14 15  2  0
 15 16  1  0
 15 33  1  0
 17 18  1  0
 17 34  1  0
 17 35  1  0
 18 36  1  6
 19 20  2  0
 20 21  1  0
 20 37  1  0
 21 38  1  0
M  CHG  1  21   1
M  END
>  <i_m_ct_stereo_status>  (301) 
1

>  <s_m_source_file>  (301) 
/var/tmp/pbs.5076255.sched01/tmpyqr7shjn/887d44c5qo.sdf

>  <i_m_source_file_index>  (301) 
41

>  <i_lp_mmshare_version>  (301) 
48012

>  <i_f3d_flags>  (301) 
0

>  <s_epik_input>  (301) 
bjFbY0hdbltjSF1bY0hdYzFOKFtDSDJdW0NIMl1PMilbQ0BIXShbQ0BASF0yMylbQ0gyXU4oW0NIMl1bQ0gyXTMpYzRubltjSF1zNA==

>  <s_epik_cmdline>  (301) 
J2VwaWtfcHl0aG9uJywgJy1waHQnLCAnMi4wJywgJy1waCcsICc3LjAnLCAnLXRuJywgJzgnLCAnLW1hJywgJzIwMCcsICctaW1hZScsICc8aW5maWxlLm1hZT4nLCAnLW9tYWUnLCAnPG91dGZpbGUubWFlPic=

>  <r_lp_tautomer_probability>  (301) 
0.999336

>  <r_epik_Ionization_Penalty>  (301) 
0.413367

>  <r_epik_Ionization_Penalty_Charging>  (301) 
0.413366

>  <r_epik_Ionization_Penalty_Neutral>  (301) 
8.10178e-07

>  <r_epik_State_Penalty>  (301) 
0.413547

>  <r_epik_Charging_Adjusted_Penalty>  (301) 
0.826913

>  <i_epik_Tot_Q>  (301) 
1

>  <i_epik_Tot_abs_Q>  (301) 
1

>  <s_lp_Force_Field>  (301) 
OPLS3e

>  <r_lp_Energy>  (301) 
51.0776

>  <b_lp_Chiralities_Consistent>  (301) 
1

>  <s_lp_Variant>  (301) 
88:0-2

>  <s_i_glide_gridfile>  (301) 
pfpi4k_grid

>  <i_i_glide_lignum>  (301) 
41

>  <i_i_glide_rotatable_bonds>  (301) 
2

>  <r_i_docking_score>  (301) 
-3.62525

>  <r_i_glide_ligand_efficiency>  (301) 
-0.172631

>  <r_i_glide_ligand_efficiency_sa>  (301) 
-0.476275

>  <r_i_glide_ligand_efficiency_ln>  (301) 
-0.896335

>  <r_i_glide_gscore>  (301) 
-3.62525

>  <r_i_glide_lipo>  (301) 
-0.134829

>  <r_i_glide_hbond>  (301) 
-0.2

>  <r_i_glide_metal>  (301) 
-0

>  <r_i_glide_rewards>  (301) 
-1.32696

>  <r_i_glide_evdw>  (301) 
-23.8959

>  <r_i_glide_ecoul>  (301) 
-6.44055

>  <r_i_glide_erotb>  (301) 
0.395817

>  <r_i_glide_esite>  (301) 
-0.198401

>  <r_i_glide_emodel>  (301) 
-38.8046

>  <r_i_glide_energy>  (301) 
-30.3364

>  <r_i_glide_einternal>  (301) 
1.35722

>  <r_i_glide_intrahb_reward>  (301) 
-0

>  <i_i_glide_confnum>  (301) 
2

>  <i_i_glide_posenum>  (301) 
37

>  <r_i_glide_eff_state_penalty>  (301) 
0

>  <ligand_id>  (301) 
88

>  <original_smiles>  (301) 
c1cc(N2CCOC3CCN(c4nncs4)CC32)ncn1

>  <smiles>  (301) 
[H]c1nnc(N2C([H])([H])C([H])([H])C3([H])OC([H])([H])C([H])([H])N(c4nc([H])[n+]([H])c([H])c4[H])C3([H])C2([H])[H])s1

$$$$
88:1:1
     RDKit          3D

 38 41  0  0  1  0  0  0  0  0999 V2000
    0.1234    5.5745    3.3202 C   0  0  0  0  0  0  0  0  0  0  0  0
   -0.4254    4.4190    3.8926 C   0  0  0  0  0  0  0  0  0  0  0  0
   -0.3406    4.2869    5.2942 C   0  0  0  0  0  0  0  0  0  0  0  0
   -0.8123    3.1434    5.9704 N   0  0  0  0  0  0  0  0  0  0  0  0
   -2.0894    3.3640    6.6416 C   0  0  0  0  0  0  0  0  0  0  0  0
   -2.4327    2.2098    7.6000 C   0  0  0  0  0  0  0  0  0  0  0  0
   -2.3957    0.9684    6.9025 O   0  0  0  0  0  0  0  0  0  0  0  0
   -1.1104    0.7360    6.3410 C   0  0  1  0  0  0  0  0  0  0  0  0
   -1.1241   -0.6151    5.6316 C   0  0  0  0  0  0  0  0  0  0  0  0
    0.2562   -0.8984    5.0285 C   0  0  0  0  0  0  0  0  0  0  0  0
    0.7198    0.1434    4.1029 N   0  0  0  0  0  0  0  0  0  0  0  0
    1.5724   -0.1648    3.0338 C   0  0  0  0  0  0  0  0  0  0  0  0
    1.9423   -1.4144    2.7052 N   0  0  0  0  0  0  0  0  0  0  0  0
    2.8812   -1.4416    1.6818 N   0  0  0  0  0  0  0  0  0  0  0  0
    3.1617   -0.2102    1.2491 C   0  0  0  0  0  0  0  0  0  0  0  0
    2.3253    1.0996    2.0673 S   0  0  0  0  0  0  0  0  0  0  0  0
    0.5873    1.5097    4.6368 C   0  0  0  0  0  0  0  0  0  0  0  0
   -0.7764    1.8322    5.3059 C   0  0  2  0  0  0  0  0  0  0  0  0
    0.1841    5.2839    6.0345 N   0  0  0  0  0  0  0  0  0  0  0  0
    0.6944    6.3688    5.4260 C   0  0  0  0  0  0  0  0  0  0  0  0
    0.6506    6.5405    4.0958 N   0  0  0  0  0  0  0  0  0  0  0  0
    0.1245    5.7891    2.2682 H   0  0  0  0  0  0  0  0  0  0  0  0
   -0.8641    3.6672    3.2477 H   0  0  0  0  0  0  0  0  0  0  0  0
   -2.1005    4.3104    7.1837 H   0  0  0  0  0  0  0  0  0  0  0  0
   -2.8551    3.4300    5.8733 H   0  0  0  0  0  0  0  0  0  0  0  0
   -1.7440    2.2000    8.4460 H   0  0  0  0  0  0  0  0  0  0  0  0
   -3.4358    2.3608    8.0020 H   0  0  0  0  0  0  0  0  0  0  0  0
   -0.3620    0.7238    7.1356 H   0  0  0  0  0  0  0  0  0  0  0  0
   -1.3827   -1.4096    6.3309 H   0  0  0  0  0  0  0  0  0  0  0  0
   -1.8923   -0.6099    4.8575 H   0  0  0  0  0  0  0  0  0  0  0  0
    1.0011   -1.0215    5.8200 H   0  0  0  0  0  0  0  0  0  0  0  0
    0.1981   -1.8555    4.5022 H   0  0  0  0  0  0  0  0  0  0  0  0
    3.8563   -0.0754    0.4277 H   0  0  0  0  0  0  0  0  0  0  0  0
    1.4221    1.7324    5.3030 H   0  0  0  0  0  0  0  0  0  0  0  0
    0.7139    2.1883    3.7986 H   0  0  0  0  0  0  0  0  0  0  0  0
   -1.5662    1.8169    4.5509 H   0  0  0  0  0  0  0  0  0  0  0  0
    1.1143    7.1760    6.0095 H   0  0  0  0  0  0  0  0  0  0  0  0
    0.9711    7.3962    3.6210 H   0  0  0  0  0  0  0  0  0  0  0  0
  1 21  2  0
  1  2  1  0
  1 22  1  0
  2  3  2  0
  2 23  1  0
  3  4  1  0
  3 19  1  0
  4 18  1  0
  4  5  1  0
  5  6  1  0
  5 24  1  0
  5 25  1  0
  6  7  1  0
  6 26  1  0
  6 27  1  0
  7  8  1  0
  8 18  1  0
  8  9  1  0
  8 28  1  1
  9 10  1  0
  9 29  1  0
  9 30  1  0
 10 11  1  0
 10 31  1  0
 10 32  1  0
 11 12  1  0
 11 17  1  0
 12 16  1  0
 12 13  2  0
 13 14  1  0
 14 15  2  0
 15 16  1  0
 15 33  1  0
 17 18  1  0
 17 34  1  0
 17 35  1  0
 18 36  1  6
 19 20  2  0
 20 21  1  0
 20 37  1  0
 21 38  1  0
M  CHG  1  21   1
M  END
>  <i_m_ct_stereo_status>  (302) 
1

>  <s_m_source_file>  (302) 
/var/tmp/pbs.5076255.sched01/tmpyqr7shjn/887d44c5qo.sdf

>  <i_m_source_file_index>  (302) 
41

>  <i_lp_mmshare_version>  (302) 
48012

>  <i_f3d_flags>  (302) 
0

>  <s_epik_input>  (302) 
bjFbY0hdbltjSF1bY0hdYzFOKFtDSDJdW0NIMl1PMilbQ0BIXShbQ0BASF0yMylbQ0gyXU4oW0NIMl1bQ0gyXTMpYzRubltjSF1zNA==

>  <s_epik_cmdline>  (302) 
J2VwaWtfcHl0aG9uJywgJy1waHQnLCAnMi4wJywgJy1waCcsICc3LjAnLCAnLXRuJywgJzgnLCAnLW1hJywgJzIwMCcsICctaW1hZScsICc8aW5maWxlLm1hZT4nLCAnLW9tYWUnLCAnPG91dGZpbGUubWFlPic=

>  <r_lp_tautomer_probability>  (302) 
0.999336

>  <r_epik_Ionization_Penalty>  (302) 
0.413367

>  <r_epik_Ionization_Penalty_Charging>  (302) 
0.413366

>  <r_epik_Ionization_Penalty_Neutral>  (302) 
8.10178e-07

>  <r_epik_State_Penalty>  (302) 
0.413547

>  <r_epik_Charging_Adjusted_Penalty>  (302) 
0.826913

>  <i_epik_Tot_Q>  (302) 
1

>  <i_epik_Tot_abs_Q>  (302) 
1

>  <s_lp_Force_Field>  (302) 
OPLS3e

>  <r_lp_Energy>  (302) 
51.0776

>  <b_lp_Chiralities_Consistent>  (302) 
1

>  <s_lp_Variant>  (302) 
88:0-2

>  <s_i_glide_gridfile>  (302) 
pfpi4k_grid

>  <i_i_glide_lignum>  (302) 
41

>  <i_i_glide_rotatable_bonds>  (302) 
2

>  <r_i_docking_score>  (302) 
-3.49051

>  <r_i_glide_ligand_efficiency>  (302) 
-0.166215

>  <r_i_glide_ligand_efficiency_sa>  (302) 
-0.458574

>  <r_i_glide_ligand_efficiency_ln>  (302) 
-0.863021

>  <r_i_glide_gscore>  (302) 
-3.49051

>  <r_i_glide_lipo>  (302) 
-0.0805105

>  <r_i_glide_hbond>  (302) 
-0.280887

>  <r_i_glide_metal>  (302) 
-0

>  <r_i_glide_rewards>  (302) 
-1.32696

>  <r_i_glide_evdw>  (302) 
-19.9584

>  <r_i_glide_ecoul>  (302) 
-6.71261

>  <r_i_glide_erotb>  (302) 
0.395817

>  <r_i_glide_esite>  (302) 
-0.193158

>  <r_i_glide_emodel>  (302) 
-35.1438

>  <r_i_glide_energy>  (302) 
-26.671

>  <r_i_glide_einternal>  (302) 
0.496146

>  <r_i_glide_intrahb_reward>  (302) 
-0

>  <i_i_glide_confnum>  (302) 
1

>  <i_i_glide_posenum>  (302) 
11

>  <r_i_glide_eff_state_penalty>  (302) 
0

>  <ligand_id>  (302) 
88

>  <original_smiles>  (302) 
c1cc(N2CCOC3CCN(c4nncs4)CC32)ncn1

>  <smiles>  (302) 
[H]c1nnc(N2C([H])([H])C([H])([H])C3([H])OC([H])([H])C([H])([H])N(c4nc([H])[n+]([H])c([H])c4[H])C3([H])C2([H])[H])s1

$$$$
88:1:2
     RDKit          3D

 38 41  0  0  1  0  0  0  0  0999 V2000
    2.2902    4.6956    3.7345 C   0  0  0  0  0  0  0  0  0  0  0  0
    1.6977    3.6881    4.5090 C   0  0  0  0  0  0  0  0  0  0  0  0
    0.2979    3.7174    4.6772 C   0  0  0  0  0  0  0  0  0  0  0  0
   -0.3722    2.6965    5.3985 N   0  0  0  0  0  0  0  0  0  0  0  0
   -1.6398    3.0778    6.0229 C   0  0  0  0  0  0  0  0  0  0  0  0
   -2.1115    2.0208    7.0449 C   0  0  0  0  0  0  0  0  0  0  0  0
   -2.1809    0.7347    6.4398 O   0  0  0  0  0  0  0  0  0  0  0  0
   -0.9291    0.3453    5.8918 C   0  0  1  0  0  0  0  0  0  0  0  0
   -1.0770   -1.0304    5.2425 C   0  0  0  0  0  0  0  0  0  0  0  0
    0.2704   -1.4948    4.6747 C   0  0  0  0  0  0  0  0  0  0  0  0
    0.8464   -0.5614    3.6960 N   0  0  0  0  0  0  0  0  0  0  0  0
    1.7087   -1.0039    2.6829 C   0  0  0  0  0  0  0  0  0  0  0  0
    1.9754   -2.2994    2.4435 N   0  0  0  0  0  0  0  0  0  0  0  0
    2.9030   -2.4762    1.4233 N   0  0  0  0  0  0  0  0  0  0  0  0
    3.3071   -1.3078    0.9217 C   0  0  0  0  0  0  0  0  0  0  0  0
    2.6228    0.1272    1.6769 S   0  0  0  0  0  0  0  0  0  0  0  0
    0.8510    0.8295    4.1607 C   0  0  0  0  0  0  0  0  0  0  0  0
   -0.4607    1.3472    4.8062 C   0  0  2  0  0  0  0  0  0  0  0  0
   -0.4167    4.7468    4.1652 N   0  0  0  0  0  0  0  0  0  0  0  0
    0.2122    5.7018    3.4634 C   0  0  0  0  0  0  0  0  0  0  0  0
    1.5315    5.7005    3.2481 N   0  0  0  0  0  0  0  0  0  0  0  0
    3.3451    4.7256    3.5009 H   0  0  0  0  0  0  0  0  0  0  0  0
    2.3190    2.9158    4.9411 H   0  0  0  0  0  0  0  0  0  0  0  0
   -1.5532    4.0470    6.5190 H   0  0  0  0  0  0  0  0  0  0  0  0
   -2.3936    3.1892    5.2452 H   0  0  0  0  0  0  0  0  0  0  0  0
   -1.4370    1.9877    7.9013 H   0  0  0  0  0  0  0  0  0  0  0  0
   -3.1018    2.2793    7.4239 H   0  0  0  0  0  0  0  0  0  0  0  0
   -0.1926    0.2872    6.6975 H   0  0  0  0  0  0  0  0  0  0  0  0
   -1.4393   -1.7550    5.9728 H   0  0  0  0  0  0  0  0  0  0  0  0
   -1.8257   -0.9754    4.4522 H   0  0  0  0  0  0  0  0  0  0  0  0
    0.9861   -1.6584    5.4846 H   0  0  0  0  0  0  0  0  0  0  0  0
    0.1149   -2.4639    4.1983 H   0  0  0  0  0  0  0  0  0  0  0  0
    4.0157   -1.2958    0.1041 H   0  0  0  0  0  0  0  0  0  0  0  0
    1.7000    0.9241    4.8372 H   0  0  0  0  0  0  0  0  0  0  0  0
    1.0509    1.4745    3.3052 H   0  0  0  0  0  0  0  0  0  0  0  0
   -1.2279    1.3879    4.0272 H   0  0  0  0  0  0  0  0  0  0  0  0
   -0.3387    6.5175    3.0206 H   0  0  0  0  0  0  0  0  0  0  0  0
    1.9519    6.4312    2.6747 H   0  0  0  0  0  0  0  0  0  0  0  0
  1 21  2  0
  1  2  1  0
  1 22  1  0
  2  3  2  0
  2 23  1  0
  3  4  1  0
  3 19  1  0
  4 18  1  0
  4  5  1  0
  5  6  1  0
  5 24  1  0
  5 25  1  0
  6  7  1  0
  6 26  1  0
  6 27  1  0
  7  8  1  0
  8 18  1  0
  8  9  1  0
  8 28  1  1
  9 10  1  0
  9 29  1  0
  9 30  1  0
 10 11  1  0
 10 31  1  0
 10 32  1  0
 11 12  1  0
 11 17  1  0
 12 16  1  0
 12 13  2  0
 13 14  1  0
 14 15  2  0
 15 16  1  0
 15 33  1  0
 17 18  1  0
 17 34  1  0
 17 35  1  0
 18 36  1  6
 19 20  2  0
 20 21  1  0
 20 37  1  0
 21 38  1  0
M  CHG  1  21   1
M  END
>  <i_m_ct_stereo_status>  (303) 
1

>  <s_m_source_file>  (303) 
/var/tmp/pbs.5076255.sched01/tmpyqr7shjn/887d44c5qo.sdf

>  <i_m_source_file_index>  (303) 
41

>  <i_lp_mmshare_version>  (303) 
48012

>  <i_f3d_flags>  (303) 
0

>  <s_epik_input>  (303) 
bjFbY0hdbltjSF1bY0hdYzFOKFtDSDJdW0NIMl1PMilbQ0BIXShbQ0BASF0yMylbQ0gyXU4oW0NIMl1bQ0gyXTMpYzRubltjSF1zNA==

>  <s_epik_cmdline>  (303) 
J2VwaWtfcHl0aG9uJywgJy1waHQnLCAnMi4wJywgJy1waCcsICc3LjAnLCAnLXRuJywgJzgnLCAnLW1hJywgJzIwMCcsICctaW1hZScsICc8aW5maWxlLm1hZT4nLCAnLW9tYWUnLCAnPG91dGZpbGUubWFlPic=

>  <r_lp_tautomer_probability>  (303) 
0.999336

>  <r_epik_Ionization_Penalty>  (303) 
0.413367

>  <r_epik_Ionization_Penalty_Charging>  (303) 
0.413366

>  <r_epik_Ionization_Penalty_Neutral>  (303) 
8.10178e-07

>  <r_epik_State_Penalty>  (303) 
0.413547

>  <r_epik_Charging_Adjusted_Penalty>  (303) 
0.826913

>  <i_epik_Tot_Q>  (303) 
1

>  <i_epik_Tot_abs_Q>  (303) 
1

>  <s_lp_Force_Field>  (303) 
OPLS3e

>  <r_lp_Energy>  (303) 
51.0776

>  <b_lp_Chiralities_Consistent>  (303) 
1

>  <s_lp_Variant>  (303) 
88:0-2

>  <s_i_glide_gridfile>  (303) 
pfpi4k_grid

>  <i_i_glide_lignum>  (303) 
41

>  <i_i_glide_rotatable_bonds>  (303) 
2

>  <r_i_docking_score>  (303) 
-3.17183

>  <r_i_glide_ligand_efficiency>  (303) 
-0.151039

>  <r_i_glide_ligand_efficiency_sa>  (303) 
-0.416706

>  <r_i_glide_ligand_efficiency_ln>  (303) 
-0.784228

>  <r_i_glide_gscore>  (303) 
-3.17183

>  <r_i_glide_lipo>  (303) 
-0.0322496

>  <r_i_glide_hbond>  (303) 
-0.16

>  <r_i_glide_metal>  (303) 
-0

>  <r_i_glide_rewards>  (303) 
-1.32696

>  <r_i_glide_evdw>  (303) 
-22.1674

>  <r_i_glide_ecoul>  (303) 
-4.87313

>  <r_i_glide_erotb>  (303) 
0.395817

>  <r_i_glide_esite>  (303) 
-0.209101

>  <r_i_glide_emodel>  (303) 
-34.8841

>  <r_i_glide_energy>  (303) 
-27.0405

>  <r_i_glide_einternal>  (303) 
0.217501

>  <r_i_glide_intrahb_reward>  (303) 
-0

>  <i_i_glide_confnum>  (303) 
2

>  <i_i_glide_posenum>  (303) 
2

>  <r_i_glide_eff_state_penalty>  (303) 
0

>  <ligand_id>  (303) 
88

>  <original_smiles>  (303) 
c1cc(N2CCOC3CCN(c4nncs4)CC32)ncn1

>  <smiles>  (303) 
[H]c1nnc(N2C([H])([H])C([H])([H])C3([H])OC([H])([H])C([H])([H])N(c4nc([H])[n+]([H])c([H])c4[H])C3([H])C2([H])[H])s1

$$$$
89:0:0
     RDKit          3D

 49 52  0  0  1  0  0  0  0  0999 V2000
    0.2214    3.4032    4.2817 C   0  0  0  0  0  0  0  0  0  0  0  0
   -0.5826    2.1471    4.6841 C   0  0  2  0  0  0  0  0  0  0  0  0
   -1.7816    2.5558    5.5547 C   0  0  0  0  0  0  0  0  0  0  0  0
   -1.3941    2.8420    6.8997 O   0  0  0  0  0  0  0  0  0  0  0  0
   -0.4074    2.0744    7.4785 C   0  0  0  0  0  0  0  0  0  0  0  0
   -0.3258    2.2937    8.8376 N   0  0  0  0  0  0  0  0  0  0  0  0
    0.3725    1.2611    6.8425 N   0  0  0  0  0  0  0  0  0  0  0  0
    0.2566    1.0817    5.4008 C   0  0  1  0  0  0  0  0  0  0  0  0
   -0.3299   -0.3032    4.9998 C   0  0  1  0  0  0  0  0  0  0  0  0
    0.7897   -1.2530    4.5192 C   0  0  0  0  0  0  0  0  0  0  0  0
    1.1247   -1.2925    3.1421 C   0  0  0  0  0  0  0  0  0  0  0  0
    2.1314   -2.1429    2.6371 C   0  0  0  0  0  0  0  0  0  0  0  0
    2.3888   -2.0702    1.2379 N   0  0  0  0  0  0  0  0  0  0  0  0
    3.3558   -2.6665    0.5157 C   0  0  0  0  0  0  0  0  0  0  0  0
    4.1244   -3.5348    0.9191 O   0  0  0  0  0  0  0  0  0  0  0  0
    3.4356   -2.2028   -0.9046 C   0  0  0  0  0  0  0  0  0  0  0  0
    2.7634   -2.9019   -1.9309 C   0  0  0  0  0  0  0  0  0  0  0  0
    2.8608   -2.4181   -3.2487 C   0  0  0  0  0  0  0  0  0  0  0  0
    3.6361   -1.2656   -3.4820 C   0  0  0  0  0  0  0  0  0  0  0  0
    3.7767   -0.5468   -5.0388 Cl  0  0  0  0  0  0  0  0  0  0  0  0
    4.2900   -0.6615   -2.3998 C   0  0  0  0  0  0  0  0  0  0  0  0
    4.2126   -1.1203   -1.1363 N   0  0  0  0  0  0  0  0  0  0  0  0
    2.8125   -2.9901    3.5383 C   0  0  0  0  0  0  0  0  0  0  0  0
    2.5074   -2.9560    4.9118 C   0  0  0  0  0  0  0  0  0  0  0  0
    1.5219   -2.0845    5.4069 C   0  0  0  0  0  0  0  0  0  0  0  0
    1.3055   -2.0786    6.7416 F   0  0  0  0  0  0  0  0  0  0  0  0
   -1.2311   -0.9852    6.0679 C   0  0  0  0  0  0  0  0  0  0  0  0
   -2.2732   -0.2587    6.4676 F   0  0  0  0  0  0  0  0  0  0  0  0
   -1.6943   -2.1418    5.5947 F   0  0  0  0  0  0  0  0  0  0  0  0
   -1.2277    0.0229    3.9349 O   0  0  0  0  0  0  0  0  0  0  0  0
   -1.0269    1.3525    3.4563 C   0  0  0  0  0  0  0  0  0  0  0  0
   -0.3930    4.0973    3.7049 H   0  0  0  0  0  0  0  0  0  0  0  0
    1.0841    3.1537    3.6656 H   0  0  0  0  0  0  0  0  0  0  0  0
    0.5839    3.9392    5.1600 H   0  0  0  0  0  0  0  0  0  0  0  0
   -2.2798    3.4358    5.1421 H   0  0  0  0  0  0  0  0  0  0  0  0
   -2.5533    1.7915    5.5598 H   0  0  0  0  0  0  0  0  0  0  0  0
    0.3882    1.8628    9.4137 H   0  0  0  0  0  0  0  0  0  0  0  0
    1.2558    1.1519    4.9662 H   0  0  0  0  0  0  0  0  0  0  0  0
    0.6080   -0.6567    2.4430 H   0  0  0  0  0  0  0  0  0  0  0  0
    1.8014   -1.4422    0.6938 H   0  0  0  0  0  0  0  0  0  0  0  0
    2.1630   -3.7686   -1.7026 H   0  0  0  0  0  0  0  0  0  0  0  0
    2.3407   -2.9130   -4.0568 H   0  0  0  0  0  0  0  0  0  0  0  0
    4.9041    0.2038   -2.5681 H   0  0  0  0  0  0  0  0  0  0  0  0
    3.5831   -3.6689    3.2177 H   0  0  0  0  0  0  0  0  0  0  0  0
    3.0333   -3.6052    5.6021 H   0  0  0  0  0  0  0  0  0  0  0  0
   -0.6959   -1.2100    6.9852 H   0  0  0  0  0  0  0  0  0  0  0  0
   -1.9257    1.7542    2.9827 H   0  0  0  0  0  0  0  0  0  0  0  0
   -0.2319    1.3533    2.7100 H   0  0  0  0  0  0  0  0  0  0  0  0
   -0.9128    2.9403    9.3516 H   0  0  0  0  0  0  0  0  0  0  0  0
  2  1  1  6
  1 32  1  0
  1 33  1  0
  1 34  1  0
  2  8  1  0
  2 31  1  0
  2  3  1  0
  3  4  1  0
  3 35  1  0
  3 36  1  0
  4  5  1  0
  5  6  1  0
  5  7  2  0
  6 37  1  0
  6 49  1  0
  7  8  1  0
  8  9  1  0
  8 38  1  6
  9 10  1  0
  9 27  1  1
  9 30  1  0
 10 25  1  0
 10 11  2  0
 11 12  1  0
 11 39  1  0
 12 13  1  0
 12 23  2  0
 13 14  1  0
 13 40  1  0
 14 15  2  0
 14 16  1  0
 16 22  1  0
 16 17  2  0
 17 18  1  0
 17 41  1  0
 18 19  2  0
 18 42  1  0
 19 20  1  0
 19 21  1  0
 21 22  2  0
 21 43  1  0
 23 24  1  0
 23 44  1  0
 24 25  2  0
 24 45  1  0
 25 26  1  0
 27 28  1  0
 27 29  1  0
 27 46  1  0
 30 31  1  0
 31 47  1  0
 31 48  1  0
M  END
>  <i_m_ct_stereo_status>  (304) 
1

>  <s_m_source_file>  (304) 
/var/tmp/pbs.5076255.sched01/tmpyqr7shjn/887d44c5qo.sdf

>  <i_m_source_file_index>  (304) 
42

>  <i_lp_mmshare_version>  (304) 
48012

>  <i_f3d_flags>  (304) 
0

>  <s_epik_input>  (304) 
W0NIMl0xTy9DKD1OXFtIXSlbTkhdW0NASF0oW0NAXTEyW0NIM10pW0NAQF0oW0NIXShGKUYpKE9bQ0gyXTIpYzNbY0hdYyhbY0hdW2NIXWMzRilbTkhdQyg9TyljNFtjSF1bY0hdYyhDbClbY0hdbjQ=

>  <s_epik_cmdline>  (304) 
J2VwaWtfcHl0aG9uJywgJy1waHQnLCAnMi4wJywgJy1waCcsICc3LjAnLCAnLXRuJywgJzgnLCAnLW1hJywgJzIwMCcsICctaW1hZScsICc8aW5maWxlLm1hZT4nLCAnLW9tYWUnLCAnPG91dGZpbGUubWFlPic=

>  <r_epik_Ionization_Penalty>  (304) 
0.0262672

>  <r_epik_Ionization_Penalty_Charging>  (304) 
0

>  <r_epik_Ionization_Penalty_Neutral>  (304) 
0.0262672

>  <r_epik_State_Penalty>  (304) 
0.0214122

>  <r_epik_Charging_Adjusted_Penalty>  (304) 
0.0214122

>  <i_epik_Tot_Q>  (304) 
0

>  <i_epik_Tot_abs_Q>  (304) 
0

>  <s_epik_Chemistry_Notes>  (304) 
This compound has an imine and may undergo hydrolysis.

>  <s_lp_Force_Field>  (304) 
OPLS3e

>  <r_lp_Energy>  (304) 
33.899

>  <b_lp_Chiralities_Consistent>  (304) 
1

>  <s_lp_Variant>  (304) 
89:0-1

>  <s_i_glide_gridfile>  (304) 
pfpi4k_grid

>  <i_i_glide_lignum>  (304) 
42

>  <i_i_glide_rotatable_bonds>  (304) 
5

>  <r_i_docking_score>  (304) 
-3.14505

>  <r_i_glide_ligand_efficiency>  (304) 
-0.101453

>  <r_i_glide_ligand_efficiency_sa>  (304) 
-0.318704

>  <r_i_glide_ligand_efficiency_ln>  (304) 
-0.709306

>  <r_i_glide_gscore>  (304) 
-3.14505

>  <r_i_glide_lipo>  (304) 
-0.475908

>  <r_i_glide_hbond>  (304) 
-0.16

>  <r_i_glide_metal>  (304) 
-0

>  <r_i_glide_rewards>  (304) 
-0.307978

>  <r_i_glide_evdw>  (304) 
-29.2621

>  <r_i_glide_ecoul>  (304) 
-5.90942

>  <r_i_glide_erotb>  (304) 
0.388345

>  <r_i_glide_esite>  (304) 
-0.239993

>  <r_i_glide_emodel>  (304) 
-40.2648

>  <r_i_glide_energy>  (304) 
-35.1715

>  <r_i_glide_einternal>  (304) 
4.3021

>  <r_i_glide_intrahb_reward>  (304) 
-0

>  <i_i_glide_confnum>  (304) 
5

>  <i_i_glide_posenum>  (304) 
2

>  <r_i_glide_eff_state_penalty>  (304) 
0

>  <ligand_id>  (304) 
89

>  <original_smiles>  (304) 
CC12COC(=N)NC1C(c1cc(NC(=O)c3ccc(Cl)cn3)ccc1F)(C(F)F)OC2

>  <smiles>  (304) 
[H]c1nc(C(=O)N([H])c2c([H])c([H])c(F)c(C3(C([H])(F)F)OC([H])([H])C4(C([H])([H])[H])C([H])([H])OC(N([H])[H])=NC34[H])c2[H])c([H])c([H])c1Cl

$$$$
89:0:1
     RDKit          3D

 49 52  0  0  1  0  0  0  0  0999 V2000
    3.2283   -4.9002    0.2653 C   0  0  0  0  0  0  0  0  0  0  0  0
    3.8469   -5.3083    1.6206 C   0  0  2  0  0  0  0  0  0  0  0  0
    5.0759   -6.2005    1.3809 C   0  0  0  0  0  0  0  0  0  0  0  0
    4.7115   -7.5459    1.0472 O   0  0  0  0  0  0  0  0  0  0  0  0
    3.6133   -8.0919    1.6790 C   0  0  0  0  0  0  0  0  0  0  0  0
    3.5373   -9.4517    1.4440 N   0  0  0  0  0  0  0  0  0  0  0  0
    2.7370   -7.4309    2.3704 N   0  0  0  0  0  0  0  0  0  0  0  0
    2.8609   -5.9962    2.5677 C   0  0  1  0  0  0  0  0  0  0  0  0
    3.2649   -5.6066    4.0199 C   0  0  1  0  0  0  0  0  0  0  0  0
    2.0175   -5.1077    4.8004 C   0  0  0  0  0  0  0  0  0  0  0  0
    1.5216   -3.7932    4.5546 C   0  0  0  0  0  0  0  0  0  0  0  0
    0.3983   -3.2621    5.2345 C   0  0  0  0  0  0  0  0  0  0  0  0
    0.0247   -1.9250    4.9220 N   0  0  0  0  0  0  0  0  0  0  0  0
   -1.1281   -1.2849    5.1797 C   0  0  0  0  0  0  0  0  0  0  0  0
   -2.1079   -1.7926    5.7211 O   0  0  0  0  0  0  0  0  0  0  0  0
   -1.1290    0.1549    4.7737 C   0  0  0  0  0  0  0  0  0  0  0  0
   -0.5251    0.5622    3.5615 C   0  0  0  0  0  0  0  0  0  0  0  0
   -0.5652    1.9271    3.2012 C   0  0  0  0  0  0  0  0  0  0  0  0
   -1.2125    2.8278    4.0736 C   0  0  0  0  0  0  0  0  0  0  0  0
   -1.2987    4.5089    3.7076 Cl  0  0  0  0  0  0  0  0  0  0  0  0
   -1.7904    2.3204    5.2556 C   0  0  0  0  0  0  0  0  0  0  0  0
   -1.7613    1.0146    5.5986 N   0  0  0  0  0  0  0  0  0  0  0  0
   -0.2436   -4.0559    6.2170 C   0  0  0  0  0  0  0  0  0  0  0  0
    0.2148   -5.3634    6.4664 C   0  0  0  0  0  0  0  0  0  0  0  0
    1.3148   -5.8922    5.7652 C   0  0  0  0  0  0  0  0  0  0  0  0
    1.6413   -7.1617    6.0815 F   0  0  0  0  0  0  0  0  0  0  0  0
    4.0807   -6.6842    4.7991 C   0  0  0  0  0  0  0  0  0  0  0  0
    5.2387   -7.0285    4.2626 F   0  0  0  0  0  0  0  0  0  0  0  0
    4.3315   -6.2169    6.0219 F   0  0  0  0  0  0  0  0  0  0  0  0
    4.1738   -4.5152    3.8173 O   0  0  0  0  0  0  0  0  0  0  0  0
    4.2121   -4.0756    2.4559 C   0  0  0  0  0  0  0  0  0  0  0  0
    3.9415   -4.3459   -0.3492 H   0  0  0  0  0  0  0  0  0  0  0  0
    2.3493   -4.2707    0.3868 H   0  0  0  0  0  0  0  0  0  0  0  0
    2.9305   -5.7779   -0.3099 H   0  0  0  0  0  0  0  0  0  0  0  0
    5.6962   -5.8018    0.5758 H   0  0  0  0  0  0  0  0  0  0  0  0
    5.7397   -6.2048    2.2401 H   0  0  0  0  0  0  0  0  0  0  0  0
    2.7778  -10.0291    1.8043 H   0  0  0  0  0  0  0  0  0  0  0  0
    1.8935   -5.5440    2.3549 H   0  0  0  0  0  0  0  0  0  0  0  0
    2.0010   -3.1579    3.8371 H   0  0  0  0  0  0  0  0  0  0  0  0
    0.7022   -1.3848    4.4067 H   0  0  0  0  0  0  0  0  0  0  0  0
   -0.0457   -0.1392    2.8990 H   0  0  0  0  0  0  0  0  0  0  0  0
   -0.1179    2.2774    2.2853 H   0  0  0  0  0  0  0  0  0  0  0  0
   -2.2964    2.9856    5.9398 H   0  0  0  0  0  0  0  0  0  0  0  0
   -1.0798   -3.6933    6.7866 H   0  0  0  0  0  0  0  0  0  0  0  0
   -0.2634   -5.9796    7.2159 H   0  0  0  0  0  0  0  0  0  0  0  0
    3.5761   -7.6376    4.8873 H   0  0  0  0  0  0  0  0  0  0  0  0
    5.1718   -3.6290    2.1806 H   0  0  0  0  0  0  0  0  0  0  0  0
    3.4532   -3.3095    2.3029 H   0  0  0  0  0  0  0  0  0  0  0  0
    4.1881  -10.0421    0.9199 H   0  0  0  0  0  0  0  0  0  0  0  0
  2  1  1  6
  1 32  1  0
  1 33  1  0
  1 34  1  0
  2  8  1  0
  2 31  1  0
  2  3  1  0
  3  4  1  0
  3 35  1  0
  3 36  1  0
  4  5  1  0
  5  6  1  0
  5  7  2  0
  6 37  1  0
  6 49  1  0
  7  8  1  0
  8  9  1  0
  8 38  1  6
  9 10  1  0
  9 27  1  1
  9 30  1  0
 10 25  1  0
 10 11  2  0
 11 12  1  0
 11 39  1  0
 12 13  1  0
 12 23  2  0
 13 14  1  0
 13 40  1  0
 14 15  2  0
 14 16  1  0
 16 22  1  0
 16 17  2  0
 17 18  1  0
 17 41  1  0
 18 19  2  0
 18 42  1  0
 19 20  1  0
 19 21  1  0
 21 22  2  0
 21 43  1  0
 23 24  1  0
 23 44  1  0
 24 25  2  0
 24 45  1  0
 25 26  1  0
 27 28  1  0
 27 29  1  0
 27 46  1  0
 30 31  1  0
 31 47  1  0
 31 48  1  0
M  END
>  <i_m_ct_stereo_status>  (305) 
1

>  <s_m_source_file>  (305) 
/var/tmp/pbs.5076255.sched01/tmpyqr7shjn/887d44c5qo.sdf

>  <i_m_source_file_index>  (305) 
42

>  <i_lp_mmshare_version>  (305) 
48012

>  <i_f3d_flags>  (305) 
0

>  <s_epik_input>  (305) 
W0NIMl0xTy9DKD1OXFtIXSlbTkhdW0NASF0oW0NAXTEyW0NIM10pW0NAQF0oW0NIXShGKUYpKE9bQ0gyXTIpYzNbY0hdYyhbY0hdW2NIXWMzRilbTkhdQyg9TyljNFtjSF1bY0hdYyhDbClbY0hdbjQ=

>  <s_epik_cmdline>  (305) 
J2VwaWtfcHl0aG9uJywgJy1waHQnLCAnMi4wJywgJy1waCcsICc3LjAnLCAnLXRuJywgJzgnLCAnLW1hJywgJzIwMCcsICctaW1hZScsICc8aW5maWxlLm1hZT4nLCAnLW9tYWUnLCAnPG91dGZpbGUubWFlPic=

>  <r_epik_Ionization_Penalty>  (305) 
0.0262672

>  <r_epik_Ionization_Penalty_Charging>  (305) 
0

>  <r_epik_Ionization_Penalty_Neutral>  (305) 
0.0262672

>  <r_epik_State_Penalty>  (305) 
0.0214122

>  <r_epik_Charging_Adjusted_Penalty>  (305) 
0.0214122

>  <i_epik_Tot_Q>  (305) 
0

>  <i_epik_Tot_abs_Q>  (305) 
0

>  <s_epik_Chemistry_Notes>  (305) 
This compound has an imine and may undergo hydrolysis.

>  <s_lp_Force_Field>  (305) 
OPLS3e

>  <r_lp_Energy>  (305) 
33.899

>  <b_lp_Chiralities_Consistent>  (305) 
1

>  <s_lp_Variant>  (305) 
89:0-1

>  <s_i_glide_gridfile>  (305) 
pfpi4k_grid

>  <i_i_glide_lignum>  (305) 
42

>  <i_i_glide_rotatable_bonds>  (305) 
5

>  <r_i_docking_score>  (305) 
-2.73731

>  <r_i_glide_ligand_efficiency>  (305) 
-0.0883003

>  <r_i_glide_ligand_efficiency_sa>  (305) 
-0.277385

>  <r_i_glide_ligand_efficiency_ln>  (305) 
-0.617347

>  <r_i_glide_gscore>  (305) 
-2.73731

>  <r_i_glide_lipo>  (305) 
-0.103555

>  <r_i_glide_hbond>  (305) 
-0.074801

>  <r_i_glide_metal>  (305) 
-0

>  <r_i_glide_rewards>  (305) 
-0.307978

>  <r_i_glide_evdw>  (305) 
-27.93

>  <r_i_glide_ecoul>  (305) 
-7.47159

>  <r_i_glide_erotb>  (305) 
0.388345

>  <r_i_glide_esite>  (305) 
-0.122085

>  <r_i_glide_emodel>  (305) 
-40.949

>  <r_i_glide_energy>  (305) 
-35.4015

>  <r_i_glide_einternal>  (305) 
1.37907

>  <r_i_glide_intrahb_reward>  (305) 
-0

>  <i_i_glide_confnum>  (305) 
1

>  <i_i_glide_posenum>  (305) 
1

>  <r_i_glide_eff_state_penalty>  (305) 
0

>  <ligand_id>  (305) 
89

>  <original_smiles>  (305) 
CC12COC(=N)NC1C(c1cc(NC(=O)c3ccc(Cl)cn3)ccc1F)(C(F)F)OC2

>  <smiles>  (305) 
[H]c1nc(C(=O)N([H])c2c([H])c([H])c(F)c(C3(C([H])(F)F)OC([H])([H])C4(C([H])([H])[H])C([H])([H])OC(N([H])[H])=NC34[H])c2[H])c([H])c([H])c1Cl

$$$$
89:0:2
     RDKit          3D

 49 52  0  0  1  0  0  0  0  0999 V2000
   -0.9636    1.3746    2.6925 C   0  0  0  0  0  0  0  0  0  0  0  0
    0.2839    1.0061    3.5202 C   0  0  2  0  0  0  0  0  0  0  0  0
    0.4625    2.0052    4.6781 C   0  0  0  0  0  0  0  0  0  0  0  0
    1.0112    3.2495    4.2435 O   0  0  0  0  0  0  0  0  0  0  0  0
    1.9709    3.2288    3.2582 C   0  0  0  0  0  0  0  0  0  0  0  0
    2.6033    4.4466    3.1303 N   0  0  0  0  0  0  0  0  0  0  0  0
    2.2440    2.2065    2.5120 N   0  0  0  0  0  0  0  0  0  0  0  0
    1.5588    0.9359    2.6820 C   0  0  1  0  0  0  0  0  0  0  0  0
    2.4553   -0.1676    3.3208 C   0  0  1  0  0  0  0  0  0  0  0  0
    2.9384   -1.1730    2.2586 C   0  0  0  0  0  0  0  0  0  0  0  0
    2.6816   -2.5511    2.4262 C   0  0  0  0  0  0  0  0  0  0  0  0
    3.1302   -3.5087    1.4935 C   0  0  0  0  0  0  0  0  0  0  0  0
    2.7829   -4.8597    1.7574 N   0  0  0  0  0  0  0  0  0  0  0  0
    3.2351   -5.9916    1.1977 C   0  0  0  0  0  0  0  0  0  0  0  0
    4.1437   -6.0545    0.3683 O   0  0  0  0  0  0  0  0  0  0  0  0
    2.6012   -7.2467    1.7326 C   0  0  0  0  0  0  0  0  0  0  0  0
    3.3073   -8.4675    1.6575 C   0  0  0  0  0  0  0  0  0  0  0  0
    2.7032   -9.6425    2.1346 C   0  0  0  0  0  0  0  0  0  0  0  0
    1.4094   -9.5571    2.6757 C   0  0  0  0  0  0  0  0  0  0  0  0
    0.6186  -10.9603    3.2838 Cl  0  0  0  0  0  0  0  0  0  0  0  0
    0.7736   -8.3003    2.7088 C   0  0  0  0  0  0  0  0  0  0  0  0
    1.3477   -7.1660    2.2480 N   0  0  0  0  0  0  0  0  0  0  0  0
    3.8601   -3.0744    0.3601 C   0  0  0  0  0  0  0  0  0  0  0  0
    4.1273   -1.7043    0.1795 C   0  0  0  0  0  0  0  0  0  0  0  0
    3.6781   -0.7611    1.1221 C   0  0  0  0  0  0  0  0  0  0  0  0
    3.9797    0.5411    0.9247 F   0  0  0  0  0  0  0  0  0  0  0  0
    3.6663    0.3311    4.1553 C   0  0  0  0  0  0  0  0  0  0  0  0
    3.3403    1.1173    5.1781 F   0  0  0  0  0  0  0  0  0  0  0  0
    4.3263   -0.7172    4.6464 F   0  0  0  0  0  0  0  0  0  0  0  0
    1.5809   -0.7853    4.2753 O   0  0  0  0  0  0  0  0  0  0  0  0
    0.2262   -0.4331    4.0328 C   0  0  0  0  0  0  0  0  0  0  0  0
   -1.8636    1.3453    3.3081 H   0  0  0  0  0  0  0  0  0  0  0  0
   -1.1104    0.6953    1.8539 H   0  0  0  0  0  0  0  0  0  0  0  0
   -0.8795    2.3830    2.2826 H   0  0  0  0  0  0  0  0  0  0  0  0
   -0.4939    2.2019    5.1668 H   0  0  0  0  0  0  0  0  0  0  0  0
    1.0942    1.5976    5.4652 H   0  0  0  0  0  0  0  0  0  0  0  0
    3.2674    4.6198    2.3845 H   0  0  0  0  0  0  0  0  0  0  0  0
    1.2499    0.5824    1.6950 H   0  0  0  0  0  0  0  0  0  0  0  0
    2.1331   -2.8867    3.2947 H   0  0  0  0  0  0  0  0  0  0  0  0
    2.1209   -5.0141    2.5028 H   0  0  0  0  0  0  0  0  0  0  0  0
    4.2972   -8.5073    1.2310 H   0  0  0  0  0  0  0  0  0  0  0  0
    3.2145  -10.5933    2.0797 H   0  0  0  0  0  0  0  0  0  0  0  0
   -0.2197   -8.1994    3.1149 H   0  0  0  0  0  0  0  0  0  0  0  0
    4.2107   -3.7633   -0.3895 H   0  0  0  0  0  0  0  0  0  0  0  0
    4.6790   -1.3657   -0.6899 H   0  0  0  0  0  0  0  0  0  0  0  0
    4.3796    0.8952    3.5559 H   0  0  0  0  0  0  0  0  0  0  0  0
   -0.3849   -0.5489    4.9296 H   0  0  0  0  0  0  0  0  0  0  0  0
   -0.1679   -1.0972    3.2654 H   0  0  0  0  0  0  0  0  0  0  0  0
    2.3501    5.2812    3.6396 H   0  0  0  0  0  0  0  0  0  0  0  0
  2  1  1  6
  1 32  1  0
  1 33  1  0
  1 34  1  0
  2  8  1  0
  2 31  1  0
  2  3  1  0
  3  4  1  0
  3 35  1  0
  3 36  1  0
  4  5  1  0
  5  6  1  0
  5  7  2  0
  6 37  1  0
  6 49  1  0
  7  8  1  0
  8  9  1  0
  8 38  1  6
  9 10  1  0
  9 27  1  1
  9 30  1  0
 10 25  1  0
 10 11  2  0
 11 12  1  0
 11 39  1  0
 12 13  1  0
 12 23  2  0
 13 14  1  0
 13 40  1  0
 14 15  2  0
 14 16  1  0
 16 22  1  0
 16 17  2  0
 17 18  1  0
 17 41  1  0
 18 19  2  0
 18 42  1  0
 19 20  1  0
 19 21  1  0
 21 22  2  0
 21 43  1  0
 23 24  1  0
 23 44  1  0
 24 25  2  0
 24 45  1  0
 25 26  1  0
 27 28  1  0
 27 29  1  0
 27 46  1  0
 30 31  1  0
 31 47  1  0
 31 48  1  0
M  END
>  <i_m_ct_stereo_status>  (306) 
1

>  <s_m_source_file>  (306) 
/var/tmp/pbs.5076255.sched01/tmpyqr7shjn/887d44c5qo.sdf

>  <i_m_source_file_index>  (306) 
42

>  <i_lp_mmshare_version>  (306) 
48012

>  <i_f3d_flags>  (306) 
0

>  <s_epik_input>  (306) 
W0NIMl0xTy9DKD1OXFtIXSlbTkhdW0NASF0oW0NAXTEyW0NIM10pW0NAQF0oW0NIXShGKUYpKE9bQ0gyXTIpYzNbY0hdYyhbY0hdW2NIXWMzRilbTkhdQyg9TyljNFtjSF1bY0hdYyhDbClbY0hdbjQ=

>  <s_epik_cmdline>  (306) 
J2VwaWtfcHl0aG9uJywgJy1waHQnLCAnMi4wJywgJy1waCcsICc3LjAnLCAnLXRuJywgJzgnLCAnLW1hJywgJzIwMCcsICctaW1hZScsICc8aW5maWxlLm1hZT4nLCAnLW9tYWUnLCAnPG91dGZpbGUubWFlPic=

>  <r_epik_Ionization_Penalty>  (306) 
0.0262672

>  <r_epik_Ionization_Penalty_Charging>  (306) 
0

>  <r_epik_Ionization_Penalty_Neutral>  (306) 
0.0262672

>  <r_epik_State_Penalty>  (306) 
0.0214122

>  <r_epik_Charging_Adjusted_Penalty>  (306) 
0.0214122

>  <i_epik_Tot_Q>  (306) 
0

>  <i_epik_Tot_abs_Q>  (306) 
0

>  <s_epik_Chemistry_Notes>  (306) 
This compound has an imine and may undergo hydrolysis.

>  <s_lp_Force_Field>  (306) 
OPLS3e

>  <r_lp_Energy>  (306) 
33.899

>  <b_lp_Chiralities_Consistent>  (306) 
1

>  <s_lp_Variant>  (306) 
89:0-1

>  <s_i_glide_gridfile>  (306) 
pfpi4k_grid

>  <i_i_glide_lignum>  (306) 
42

>  <i_i_glide_rotatable_bonds>  (306) 
5

>  <r_i_docking_score>  (306) 
-2.11336

>  <r_i_glide_ligand_efficiency>  (306) 
-0.0681728

>  <r_i_glide_ligand_efficiency_sa>  (306) 
-0.214157

>  <r_i_glide_ligand_efficiency_ln>  (306) 
-0.476626

>  <r_i_glide_gscore>  (306) 
-2.11336

>  <r_i_glide_lipo>  (306) 
-0.147154

>  <r_i_glide_hbond>  (306) 
0

>  <r_i_glide_metal>  (306) 
-0

>  <r_i_glide_rewards>  (306) 
-0.359435

>  <r_i_glide_evdw>  (306) 
-34.7442

>  <r_i_glide_ecoul>  (306) 
-1.22293

>  <r_i_glide_erotb>  (306) 
0.388345

>  <r_i_glide_esite>  (306) 
-0.0744612

>  <r_i_glide_emodel>  (306) 
-39.9067

>  <r_i_glide_energy>  (306) 
-35.9671

>  <r_i_glide_einternal>  (306) 
1.85507

>  <r_i_glide_intrahb_reward>  (306) 
-0

>  <i_i_glide_confnum>  (306) 
5

>  <i_i_glide_posenum>  (306) 
3

>  <r_i_glide_eff_state_penalty>  (306) 
0

>  <ligand_id>  (306) 
89

>  <original_smiles>  (306) 
CC12COC(=N)NC1C(c1cc(NC(=O)c3ccc(Cl)cn3)ccc1F)(C(F)F)OC2

>  <smiles>  (306) 
[H]c1nc(C(=O)N([H])c2c([H])c([H])c(F)c(C3(C([H])(F)F)OC([H])([H])C4(C([H])([H])[H])C([H])([H])OC(N([H])[H])=NC34[H])c2[H])c([H])c([H])c1Cl

$$$$
89:1:0
     RDKit          3D

 50 53  0  0  1  0  0  0  0  0999 V2000
    1.1653   -5.6127    3.3312 C   0  0  0  0  0  0  0  0  0  0  0  0
    0.8941   -7.1265    3.4058 C   0  0  2  0  0  0  0  0  0  0  0  0
   -0.0984   -7.3822    4.5480 C   0  0  0  0  0  0  0  0  0  0  0  0
   -0.3046   -8.7646    4.7337 O   0  0  0  0  0  0  0  0  0  0  0  0
    0.8014   -9.5375    4.8611 C   0  0  0  0  0  0  0  0  0  0  0  0
    0.6102  -10.6332    5.6084 N   0  0  0  0  0  0  0  0  0  0  0  0
    1.9587   -9.1792    4.2634 N   0  0  0  0  0  0  0  0  0  0  0  0
    2.1981   -7.9044    3.5631 C   0  0  1  0  0  0  0  0  0  0  0  0
    2.7093   -8.1158    2.1029 C   0  0  1  0  0  0  0  0  0  0  0  0
    3.8985   -7.1903    1.7780 C   0  0  0  0  0  0  0  0  0  0  0  0
    3.7940   -6.2320    0.7389 C   0  0  0  0  0  0  0  0  0  0  0  0
    4.8556   -5.3600    0.4200 C   0  0  0  0  0  0  0  0  0  0  0  0
    4.6309   -4.4284   -0.6298 N   0  0  0  0  0  0  0  0  0  0  0  0
    5.2242   -3.2432   -0.8609 C   0  0  0  0  0  0  0  0  0  0  0  0
    6.1826   -2.8019   -0.2247 O   0  0  0  0  0  0  0  0  0  0  0  0
    4.5782   -2.4183   -1.9421 C   0  0  0  0  0  0  0  0  0  0  0  0
    3.7894   -3.0234   -2.9479 C   0  0  0  0  0  0  0  0  0  0  0  0
    3.1840   -2.2123   -3.9197 C   0  0  0  0  0  0  0  0  0  0  0  0
    3.4176   -0.8276   -3.8961 C   0  0  0  0  0  0  0  0  0  0  0  0
    2.8043    0.2246   -5.1205 Cl  0  0  0  0  0  0  0  0  0  0  0  0
    4.2119   -0.3145   -2.8634 C   0  0  0  0  0  0  0  0  0  0  0  0
    4.8001   -1.0835   -1.9198 N   0  0  0  0  0  0  0  0  0  0  0  0
    6.0684   -5.4703    1.1343 C   0  0  0  0  0  0  0  0  0  0  0  0
    6.1972   -6.4270    2.1608 C   0  0  0  0  0  0  0  0  0  0  0  0
    5.1209   -7.2778    2.4862 C   0  0  0  0  0  0  0  0  0  0  0  0
    5.2639   -8.1669    3.4965 F   0  0  0  0  0  0  0  0  0  0  0  0
    3.0234   -9.5811    1.7107 C   0  0  0  0  0  0  0  0  0  0  0  0
    3.4280   -9.5778    0.4456 F   0  0  0  0  0  0  0  0  0  0  0  0
    3.9708  -10.1383    2.4636 F   0  0  0  0  0  0  0  0  0  0  0  0
    1.5813   -7.7553    1.2997 O   0  0  0  0  0  0  0  0  0  0  0  0
    0.3974   -7.6520    2.0662 C   0  0  0  0  0  0  0  0  0  0  0  0
    0.2369   -5.0553    3.2141 H   0  0  0  0  0  0  0  0  0  0  0  0
    1.8268   -5.3383    2.5079 H   0  0  0  0  0  0  0  0  0  0  0  0
    1.6265   -5.2617    4.2552 H   0  0  0  0  0  0  0  0  0  0  0  0
    0.2624   -6.9601    5.4851 H   0  0  0  0  0  0  0  0  0  0  0  0
   -1.0585   -6.9069    4.3272 H   0  0  0  0  0  0  0  0  0  0  0  0
    1.3458  -11.2638    5.9449 H   0  0  0  0  0  0  0  0  0  0  0  0
    2.7667   -9.7795    4.3775 H   0  0  0  0  0  0  0  0  0  0  0  0
    2.9188   -7.3489    4.1678 H   0  0  0  0  0  0  0  0  0  0  0  0
    2.8766   -6.1393    0.1758 H   0  0  0  0  0  0  0  0  0  0  0  0
    3.8468   -4.6337   -1.2349 H   0  0  0  0  0  0  0  0  0  0  0  0
    3.6426   -4.0890   -2.9991 H   0  0  0  0  0  0  0  0  0  0  0  0
    2.6010   -2.6668   -4.7076 H   0  0  0  0  0  0  0  0  0  0  0  0
    4.4116    0.7452   -2.8152 H   0  0  0  0  0  0  0  0  0  0  0  0
    6.9089   -4.8353    0.9073 H   0  0  0  0  0  0  0  0  0  0  0  0
    7.1313   -6.5051    2.7019 H   0  0  0  0  0  0  0  0  0  0  0  0
    2.1615  -10.2477    1.7623 H   0  0  0  0  0  0  0  0  0  0  0  0
   -0.0524   -8.6417    2.1563 H   0  0  0  0  0  0  0  0  0  0  0  0
   -0.3248   -6.9925    1.5841 H   0  0  0  0  0  0  0  0  0  0  0  0
   -0.3311  -10.7992    5.9514 H   0  0  0  0  0  0  0  0  0  0  0  0
  2  1  1  6
  1 32  1  0
  1 33  1  0
  1 34  1  0
  2  8  1  0
  2 31  1  0
  2  3  1  0
  3  4  1  0
  3 35  1  0
  3 36  1  0
  4  5  1  0
  5  6  1  0
  5  7  2  0
  6 37  1  0
  6 50  1  0
  7  8  1  0
  7 38  1  0
  8  9  1  0
  8 39  1  1
  9 10  1  0
  9 27  1  1
  9 30  1  0
 10 25  1  0
 10 11  2  0
 11 12  1  0
 11 40  1  0
 12 13  1  0
 12 23  2  0
 13 14  1  0
 13 41  1  0
 14 15  2  0
 14 16  1  0
 16 22  1  0
 16 17  2  0
 17 18  1  0
 17 42  1  0
 18 19  2  0
 18 43  1  0
 19 20  1  0
 19 21  1  0
 21 22  2  0
 21 44  1  0
 23 24  1  0
 23 45  1  0
 24 25  2  0
 24 46  1  0
 25 26  1  0
 27 28  1  0
 27 29  1  0
 27 47  1  0
 30 31  1  0
 31 48  1  0
 31 49  1  0
M  CHG  1   7   1
M  END
>  <i_m_ct_stereo_status>  (307) 
1

>  <s_m_source_file>  (307) 
/var/tmp/pbs.5076255.sched01/tmpyqr7shjn/887d44c5qo.sdf

>  <i_m_source_file_index>  (307) 
43

>  <i_lp_mmshare_version>  (307) 
48012

>  <i_f3d_flags>  (307) 
0

>  <s_epik_input>  (307) 
W0NIMl0xTy9DKD1OXFtIXSlbTkhdW0NASF0oW0NAXTEyW0NIM10pW0NAQF0oW0NIXShGKUYpKE9bQ0gyXTIpYzNbY0hdYyhbY0hdW2NIXWMzRilbTkhdQyg9TyljNFtjSF1bY0hdYyhDbClbY0hdbjQ=

>  <s_epik_cmdline>  (307) 
J2VwaWtfcHl0aG9uJywgJy1waHQnLCAnMi4wJywgJy1waCcsICc3LjAnLCAnLXRuJywgJzgnLCAnLW1hJywgJzIwMCcsICctaW1hZScsICc8aW5maWxlLm1hZT4nLCAnLW9tYWUnLCAnPG91dGZpbGUubWFlPic=

>  <r_epik_Ionization_Penalty>  (307) 
1.86116

>  <r_epik_Ionization_Penalty_Charging>  (307) 
1.86113

>  <r_epik_Ionization_Penalty_Neutral>  (307) 
2.71488e-05

>  <r_epik_State_Penalty>  (307) 
1.97794

>  <r_epik_Charging_Adjusted_Penalty>  (307) 
3.83908

>  <i_epik_Tot_Q>  (307) 
1

>  <i_epik_Tot_abs_Q>  (307) 
1

>  <s_epik_Chemistry_Notes>  (307) 
This compound has an imine and may undergo hydrolysis.

>  <s_lp_Force_Field>  (307) 
OPLS3e

>  <r_lp_Energy>  (307) 
42.7221

>  <b_lp_Chiralities_Consistent>  (307) 
1

>  <s_lp_Variant>  (307) 
89:0-2

>  <s_i_glide_gridfile>  (307) 
pfpi4k_grid

>  <i_i_glide_lignum>  (307) 
43

>  <i_i_glide_rotatable_bonds>  (307) 
5

>  <r_i_docking_score>  (307) 
-4.70028

>  <r_i_glide_ligand_efficiency>  (307) 
-0.151622

>  <r_i_glide_ligand_efficiency_sa>  (307) 
-0.476303

>  <r_i_glide_ligand_efficiency_ln>  (307) 
-1.06006

>  <r_i_glide_gscore>  (307) 
-4.70028

>  <r_i_glide_lipo>  (307) 
-0.896464

>  <r_i_glide_hbond>  (307) 
-0.420676

>  <r_i_glide_metal>  (307) 
-0

>  <r_i_glide_rewards>  (307) 
-0.37366

>  <r_i_glide_evdw>  (307) 
-36.3346

>  <r_i_glide_ecoul>  (307) 
-8.59274

>  <r_i_glide_erotb>  (307) 
0.386783

>  <r_i_glide_esite>  (307) 
-0.290625

>  <r_i_glide_emodel>  (307) 
-59.5625

>  <r_i_glide_energy>  (307) 
-44.9274

>  <r_i_glide_einternal>  (307) 
1.40982

>  <r_i_glide_intrahb_reward>  (307) 
-0

>  <i_i_glide_confnum>  (307) 
5

>  <i_i_glide_posenum>  (307) 
10

>  <r_i_glide_eff_state_penalty>  (307) 
0

>  <ligand_id>  (307) 
89

>  <original_smiles>  (307) 
CC12COC(=N)NC1C(c1cc(NC(=O)c3ccc(Cl)cn3)ccc1F)(C(F)F)OC2

>  <smiles>  (307) 
[H]c1nc(C(=O)N([H])c2c([H])c([H])c(F)c(C3(C([H])(F)F)OC([H])([H])C4(C([H])([H])[H])C([H])([H])OC(N([H])[H])=[N+]([H])C34[H])c2[H])c([H])c([H])c1Cl

$$$$
89:1:1
     RDKit          3D

 50 53  0  0  1  0  0  0  0  0999 V2000
    1.3121   -5.4303    3.4099 C   0  0  0  0  0  0  0  0  0  0  0  0
    0.9706   -6.9245    3.5571 C   0  0  2  0  0  0  0  0  0  0  0  0
    0.0075   -7.0783    4.7450 C   0  0  0  0  0  0  0  0  0  0  0  0
   -0.2526   -8.4385    4.9938 O   0  0  0  0  0  0  0  0  0  0  0  0
    0.8272   -9.2364    5.1409 C   0  0  0  0  0  0  0  0  0  0  0  0
    0.6263  -10.2578    5.9800 N   0  0  0  0  0  0  0  0  0  0  0  0
    1.9730   -8.9737    4.4850 N   0  0  0  0  0  0  0  0  0  0  0  0
    2.2453   -7.7566    3.6975 C   0  0  1  0  0  0  0  0  0  0  0  0
    2.6774   -8.0629    2.2297 C   0  0  1  0  0  0  0  0  0  0  0  0
    3.8917   -7.2098    1.8226 C   0  0  0  0  0  0  0  0  0  0  0  0
    3.7727   -6.2256    0.8087 C   0  0  0  0  0  0  0  0  0  0  0  0
    4.8651   -5.4298    0.4100 C   0  0  0  0  0  0  0  0  0  0  0  0
    4.6254   -4.4680   -0.6139 N   0  0  0  0  0  0  0  0  0  0  0  0
    5.3380   -3.3774   -0.9487 C   0  0  0  0  0  0  0  0  0  0  0  0
    6.4103   -3.0431   -0.4447 O   0  0  0  0  0  0  0  0  0  0  0  0
    4.6818   -2.4882   -1.9613 C   0  0  0  0  0  0  0  0  0  0  0  0
    4.8146   -1.0880   -1.8313 C   0  0  0  0  0  0  0  0  0  0  0  0
    4.2133   -0.2627   -2.7945 C   0  0  0  0  0  0  0  0  0  0  0  0
    3.5189   -0.8497   -3.8614 C   0  0  0  0  0  0  0  0  0  0  0  0
    2.8382    0.1488   -5.0922 Cl  0  0  0  0  0  0  0  0  0  0  0  0
    3.4235   -2.2574   -3.9033 C   0  0  0  0  0  0  0  0  0  0  0  0
    4.0052   -3.0583   -2.9861 N   0  0  0  0  0  0  0  0  0  0  0  0
    6.1164   -5.6417    1.0329 C   0  0  0  0  0  0  0  0  0  0  0  0
    6.2572   -6.6258    2.0333 C   0  0  0  0  0  0  0  0  0  0  0  0
    5.1526   -7.4078    2.4298 C   0  0  0  0  0  0  0  0  0  0  0  0
    5.2991   -8.3467    3.3961 F   0  0  0  0  0  0  0  0  0  0  0  0
    2.9551   -9.5490    1.8906 C   0  0  0  0  0  0  0  0  0  0  0  0
    1.8973  -10.3178    2.1297 F   0  0  0  0  0  0  0  0  0  0  0  0
    3.2493   -9.6298    0.5977 F   0  0  0  0  0  0  0  0  0  0  0  0
    1.5356   -7.6839    1.4496 O   0  0  0  0  0  0  0  0  0  0  0  0
    0.3919   -7.4790    2.2582 C   0  0  0  0  0  0  0  0  0  0  0  0
    0.4111   -4.8275    3.2968 H   0  0  0  0  0  0  0  0  0  0  0  0
    1.9542   -5.2247    2.5537 H   0  0  0  0  0  0  0  0  0  0  0  0
    1.8255   -5.0689    4.3015 H   0  0  0  0  0  0  0  0  0  0  0  0
    0.4292   -6.6431    5.6515 H   0  0  0  0  0  0  0  0  0  0  0  0
   -0.9353   -6.5627    4.5422 H   0  0  0  0  0  0  0  0  0  0  0  0
    1.3155  -10.9639    6.2505 H   0  0  0  0  0  0  0  0  0  0  0  0
    2.7385   -9.6269    4.5914 H   0  0  0  0  0  0  0  0  0  0  0  0
    3.0192   -7.2142    4.2421 H   0  0  0  0  0  0  0  0  0  0  0  0
    2.8200   -6.0629    0.3234 H   0  0  0  0  0  0  0  0  0  0  0  0
    3.7560   -4.5577   -1.1274 H   0  0  0  0  0  0  0  0  0  0  0  0
    5.3506   -0.6589   -0.9977 H   0  0  0  0  0  0  0  0  0  0  0  0
    4.2815    0.8118   -2.7304 H   0  0  0  0  0  0  0  0  0  0  0  0
    2.9120   -2.7594   -4.7114 H   0  0  0  0  0  0  0  0  0  0  0  0
    6.9838   -5.0691    0.7556 H   0  0  0  0  0  0  0  0  0  0  0  0
    7.2261   -6.7775    2.4924 H   0  0  0  0  0  0  0  0  0  0  0  0
    3.8022   -9.9908    2.4198 H   0  0  0  0  0  0  0  0  0  0  0  0
   -0.1038   -8.4396    2.4115 H   0  0  0  0  0  0  0  0  0  0  0  0
   -0.3187   -6.8026    1.7805 H   0  0  0  0  0  0  0  0  0  0  0  0
   -0.3145  -10.4135    6.3183 H   0  0  0  0  0  0  0  0  0  0  0  0
  2  1  1  6
  1 32  1  0
  1 33  1  0
  1 34  1  0
  2  8  1  0
  2 31  1  0
  2  3  1  0
  3  4  1  0
  3 35  1  0
  3 36  1  0
  4  5  1  0
  5  6  1  0
  5  7  2  0
  6 37  1  0
  6 50  1  0
  7  8  1  0
  7 38  1  0
  8  9  1  0
  8 39  1  1
  9 10  1  0
  9 27  1  1
  9 30  1  0
 10 25  1  0
 10 11  2  0
 11 12  1  0
 11 40  1  0
 12 13  1  0
 12 23  2  0
 13 14  1  0
 13 41  1  0
 14 15  2  0
 14 16  1  0
 16 22  1  0
 16 17  2  0
 17 18  1  0
 17 42  1  0
 18 19  2  0
 18 43  1  0
 19 20  1  0
 19 21  1  0
 21 22  2  0
 21 44  1  0
 23 24  1  0
 23 45  1  0
 24 25  2  0
 24 46  1  0
 25 26  1  0
 27 28  1  0
 27 29  1  0
 27 47  1  0
 30 31  1  0
 31 48  1  0
 31 49  1  0
M  CHG  1   7   1
M  END
>  <i_m_ct_stereo_status>  (308) 
1

>  <s_m_source_file>  (308) 
/var/tmp/pbs.5076255.sched01/tmpyqr7shjn/887d44c5qo.sdf

>  <i_m_source_file_index>  (308) 
43

>  <i_lp_mmshare_version>  (308) 
48012

>  <i_f3d_flags>  (308) 
0

>  <s_epik_input>  (308) 
W0NIMl0xTy9DKD1OXFtIXSlbTkhdW0NASF0oW0NAXTEyW0NIM10pW0NAQF0oW0NIXShGKUYpKE9bQ0gyXTIpYzNbY0hdYyhbY0hdW2NIXWMzRilbTkhdQyg9TyljNFtjSF1bY0hdYyhDbClbY0hdbjQ=

>  <s_epik_cmdline>  (308) 
J2VwaWtfcHl0aG9uJywgJy1waHQnLCAnMi4wJywgJy1waCcsICc3LjAnLCAnLXRuJywgJzgnLCAnLW1hJywgJzIwMCcsICctaW1hZScsICc8aW5maWxlLm1hZT4nLCAnLW9tYWUnLCAnPG91dGZpbGUubWFlPic=

>  <r_epik_Ionization_Penalty>  (308) 
1.86116

>  <r_epik_Ionization_Penalty_Charging>  (308) 
1.86113

>  <r_epik_Ionization_Penalty_Neutral>  (308) 
2.71488e-05

>  <r_epik_State_Penalty>  (308) 
1.97794

>  <r_epik_Charging_Adjusted_Penalty>  (308) 
3.83908

>  <i_epik_Tot_Q>  (308) 
1

>  <i_epik_Tot_abs_Q>  (308) 
1

>  <s_epik_Chemistry_Notes>  (308) 
This compound has an imine and may undergo hydrolysis.

>  <s_lp_Force_Field>  (308) 
OPLS3e

>  <r_lp_Energy>  (308) 
42.7221

>  <b_lp_Chiralities_Consistent>  (308) 
1

>  <s_lp_Variant>  (308) 
89:0-2

>  <s_i_glide_gridfile>  (308) 
pfpi4k_grid

>  <i_i_glide_lignum>  (308) 
43

>  <i_i_glide_rotatable_bonds>  (308) 
5

>  <r_i_docking_score>  (308) 
-4.19351

>  <r_i_glide_ligand_efficiency>  (308) 
-0.135274

>  <r_i_glide_ligand_efficiency_sa>  (308) 
-0.424949

>  <r_i_glide_ligand_efficiency_ln>  (308) 
-0.945765

>  <r_i_glide_gscore>  (308) 
-4.19351

>  <r_i_glide_lipo>  (308) 
-0.877485

>  <r_i_glide_hbond>  (308) 
-0.245833

>  <r_i_glide_metal>  (308) 
-0

>  <r_i_glide_rewards>  (308) 
-0.517962

>  <r_i_glide_evdw>  (308) 
-37.0635

>  <r_i_glide_ecoul>  (308) 
-5.79302

>  <r_i_glide_erotb>  (308) 
0.386783

>  <r_i_glide_esite>  (308) 
-0.216885

>  <r_i_glide_emodel>  (308) 
-55.3481

>  <r_i_glide_energy>  (308) 
-42.8565

>  <r_i_glide_einternal>  (308) 
2.03936

>  <r_i_glide_intrahb_reward>  (308) 
-0

>  <i_i_glide_confnum>  (308) 
6

>  <i_i_glide_posenum>  (308) 
21

>  <r_i_glide_eff_state_penalty>  (308) 
0

>  <ligand_id>  (308) 
89

>  <original_smiles>  (308) 
CC12COC(=N)NC1C(c1cc(NC(=O)c3ccc(Cl)cn3)ccc1F)(C(F)F)OC2

>  <smiles>  (308) 
[H]c1nc(C(=O)N([H])c2c([H])c([H])c(F)c(C3(C([H])(F)F)OC([H])([H])C4(C([H])([H])[H])C([H])([H])OC(N([H])[H])=[N+]([H])C34[H])c2[H])c([H])c([H])c1Cl

$$$$
89:1:2
     RDKit          3D

 50 53  0  0  1  0  0  0  0  0999 V2000
    1.2481   -5.6389    3.6189 C   0  0  0  0  0  0  0  0  0  0  0  0
    0.8290   -7.1054    3.8293 C   0  0  2  0  0  0  0  0  0  0  0  0
   -0.1662   -7.1353    4.9963 C   0  0  0  0  0  0  0  0  0  0  0  0
   -0.5148   -8.4655    5.3046 O   0  0  0  0  0  0  0  0  0  0  0  0
    0.5140   -9.3083    5.5484 C   0  0  0  0  0  0  0  0  0  0  0  0
    0.2378  -10.2571    6.4517 N   0  0  0  0  0  0  0  0  0  0  0  0
    1.6878   -9.1582    4.9056 N   0  0  0  0  0  0  0  0  0  0  0  0
    2.0474   -8.0075    4.0518 C   0  0  1  0  0  0  0  0  0  0  0  0
    2.4905   -8.4412    2.6238 C   0  0  1  0  0  0  0  0  0  0  0  0
    3.7665   -7.6929    2.1949 C   0  0  0  0  0  0  0  0  0  0  0  0
    3.6657   -6.6312    1.2688 C   0  0  0  0  0  0  0  0  0  0  0  0
    4.7881   -5.8726    0.8667 C   0  0  0  0  0  0  0  0  0  0  0  0
    4.6491   -4.7771   -0.0356 N   0  0  0  0  0  0  0  0  0  0  0  0
    3.5925   -3.9470   -0.1317 C   0  0  0  0  0  0  0  0  0  0  0  0
    2.6315   -3.9390    0.6397 O   0  0  0  0  0  0  0  0  0  0  0  0
    3.6420   -2.9690   -1.2566 C   0  0  0  0  0  0  0  0  0  0  0  0
    4.6341   -1.9715   -1.2701 C   0  0  0  0  0  0  0  0  0  0  0  0
    4.6268   -1.0420   -2.3253 C   0  0  0  0  0  0  0  0  0  0  0  0
    3.6641   -1.1683   -3.3463 C   0  0  0  0  0  0  0  0  0  0  0  0
    3.6436   -0.0871   -4.6901 Cl  0  0  0  0  0  0  0  0  0  0  0  0
    2.7110   -2.1990   -3.2395 C   0  0  0  0  0  0  0  0  0  0  0  0
    2.6933   -3.0669   -2.2111 N   0  0  0  0  0  0  0  0  0  0  0  0
    6.0576   -6.2529    1.3398 C   0  0  0  0  0  0  0  0  0  0  0  0
    6.1847   -7.3358    2.2398 C   0  0  0  0  0  0  0  0  0  0  0  0
    5.0455   -8.0434    2.6826 C   0  0  0  0  0  0  0  0  0  0  0  0
    5.1998   -9.0466    3.5819 F   0  0  0  0  0  0  0  0  0  0  0  0
    2.6566   -9.9604    2.3778 C   0  0  0  0  0  0  0  0  0  0  0  0
    1.5463  -10.6557    2.6228 F   0  0  0  0  0  0  0  0  0  0  0  0
    2.9673  -10.0921    1.0957 F   0  0  0  0  0  0  0  0  0  0  0  0
    1.3937   -8.0398    1.7926 O   0  0  0  0  0  0  0  0  0  0  0  0
    0.2467   -7.7017    2.5514 C   0  0  0  0  0  0  0  0  0  0  0  0
    0.3864   -4.9943    3.4435 H   0  0  0  0  0  0  0  0  0  0  0  0
    1.9146   -5.5036    2.7731 H   0  0  0  0  0  0  0  0  0  0  0  0
    1.7712   -5.2579    4.4970 H   0  0  0  0  0  0  0  0  0  0  0  0
    0.2626   -6.6752    5.8870 H   0  0  0  0  0  0  0  0  0  0  0  0
   -1.0702   -6.5748    4.7436 H   0  0  0  0  0  0  0  0  0  0  0  0
    0.8780  -11.0094    6.7685 H   0  0  0  0  0  0  0  0  0  0  0  0
    2.4063   -9.8519    5.0675 H   0  0  0  0  0  0  0  0  0  0  0  0
    2.8487   -7.4787    4.5725 H   0  0  0  0  0  0  0  0  0  0  0  0
    2.6970   -6.3911    0.8668 H   0  0  0  0  0  0  0  0  0  0  0  0
    5.3922   -4.6307   -0.7067 H   0  0  0  0  0  0  0  0  0  0  0  0
    5.3469   -1.9033   -0.4642 H   0  0  0  0  0  0  0  0  0  0  0  0
    5.3602   -0.2512   -2.3498 H   0  0  0  0  0  0  0  0  0  0  0  0
    1.9499   -2.3361   -3.9949 H   0  0  0  0  0  0  0  0  0  0  0  0
    6.9382   -5.7098    1.0272 H   0  0  0  0  0  0  0  0  0  0  0  0
    7.1621   -7.6219    2.6061 H   0  0  0  0  0  0  0  0  0  0  0  0
    3.4588  -10.4416    2.9391 H   0  0  0  0  0  0  0  0  0  0  0  0
   -0.3123   -8.6185    2.7467 H   0  0  0  0  0  0  0  0  0  0  0  0
   -0.4084   -7.0136    2.0137 H   0  0  0  0  0  0  0  0  0  0  0  0
   -0.7259  -10.3223    6.7411 H   0  0  0  0  0  0  0  0  0  0  0  0
  2  1  1  6
  1 32  1  0
  1 33  1  0
  1 34  1  0
  2  8  1  0
  2 31  1  0
  2  3  1  0
  3  4  1  0
  3 35  1  0
  3 36  1  0
  4  5  1  0
  5  6  1  0
  5  7  2  0
  6 37  1  0
  6 50  1  0
  7  8  1  0
  7 38  1  0
  8  9  1  0
  8 39  1  1
  9 10  1  0
  9 27  1  1
  9 30  1  0
 10 25  1  0
 10 11  2  0
 11 12  1  0
 11 40  1  0
 12 13  1  0
 12 23  2  0
 13 14  1  0
 13 41  1  0
 14 15  2  0
 14 16  1  0
 16 22  1  0
 16 17  2  0
 17 18  1  0
 17 42  1  0
 18 19  2  0
 18 43  1  0
 19 20  1  0
 19 21  1  0
 21 22  2  0
 21 44  1  0
 23 24  1  0
 23 45  1  0
 24 25  2  0
 24 46  1  0
 25 26  1  0
 27 28  1  0
 27 29  1  0
 27 47  1  0
 30 31  1  0
 31 48  1  0
 31 49  1  0
M  CHG  1   7   1
M  END
>  <i_m_ct_stereo_status>  (309) 
1

>  <s_m_source_file>  (309) 
/var/tmp/pbs.5076255.sched01/tmpyqr7shjn/887d44c5qo.sdf

>  <i_m_source_file_index>  (309) 
43

>  <i_lp_mmshare_version>  (309) 
48012

>  <i_f3d_flags>  (309) 
0

>  <s_epik_input>  (309) 
W0NIMl0xTy9DKD1OXFtIXSlbTkhdW0NASF0oW0NAXTEyW0NIM10pW0NAQF0oW0NIXShGKUYpKE9bQ0gyXTIpYzNbY0hdYyhbY0hdW2NIXWMzRilbTkhdQyg9TyljNFtjSF1bY0hdYyhDbClbY0hdbjQ=

>  <s_epik_cmdline>  (309) 
J2VwaWtfcHl0aG9uJywgJy1waHQnLCAnMi4wJywgJy1waCcsICc3LjAnLCAnLXRuJywgJzgnLCAnLW1hJywgJzIwMCcsICctaW1hZScsICc8aW5maWxlLm1hZT4nLCAnLW9tYWUnLCAnPG91dGZpbGUubWFlPic=

>  <r_epik_Ionization_Penalty>  (309) 
1.86116

>  <r_epik_Ionization_Penalty_Charging>  (309) 
1.86113

>  <r_epik_Ionization_Penalty_Neutral>  (309) 
2.71488e-05

>  <r_epik_State_Penalty>  (309) 
1.97794

>  <r_epik_Charging_Adjusted_Penalty>  (309) 
3.83908

>  <i_epik_Tot_Q>  (309) 
1

>  <i_epik_Tot_abs_Q>  (309) 
1

>  <s_epik_Chemistry_Notes>  (309) 
This compound has an imine and may undergo hydrolysis.

>  <s_lp_Force_Field>  (309) 
OPLS3e

>  <r_lp_Energy>  (309) 
42.7221

>  <b_lp_Chiralities_Consistent>  (309) 
1

>  <s_lp_Variant>  (309) 
89:0-2

>  <s_i_glide_gridfile>  (309) 
pfpi4k_grid

>  <i_i_glide_lignum>  (309) 
43

>  <i_i_glide_rotatable_bonds>  (309) 
5

>  <r_i_docking_score>  (309) 
-3.68765

>  <r_i_glide_ligand_efficiency>  (309) 
-0.118956

>  <r_i_glide_ligand_efficiency_sa>  (309) 
-0.373688

>  <r_i_glide_ligand_efficiency_ln>  (309) 
-0.831678

>  <r_i_glide_gscore>  (309) 
-3.68765

>  <r_i_glide_lipo>  (309) 
-0.768431

>  <r_i_glide_hbond>  (309) 
-0.22701

>  <r_i_glide_metal>  (309) 
-0

>  <r_i_glide_rewards>  (309) 
-0.456502

>  <r_i_glide_evdw>  (309) 
-35.3448

>  <r_i_glide_ecoul>  (309) 
-4.0213

>  <r_i_glide_erotb>  (309) 
0.386783

>  <r_i_glide_esite>  (309) 
-0.252056

>  <r_i_glide_emodel>  (309) 
-47.707

>  <r_i_glide_energy>  (309) 
-39.3661

>  <r_i_glide_einternal>  (309) 
5.24189

>  <r_i_glide_intrahb_reward>  (309) 
-0

>  <i_i_glide_confnum>  (309) 
4

>  <i_i_glide_posenum>  (309) 
26

>  <r_i_glide_eff_state_penalty>  (309) 
0

>  <ligand_id>  (309) 
89

>  <original_smiles>  (309) 
CC12COC(=N)NC1C(c1cc(NC(=O)c3ccc(Cl)cn3)ccc1F)(C(F)F)OC2

>  <smiles>  (309) 
[H]c1nc(C(=O)N([H])c2c([H])c([H])c(F)c(C3(C([H])(F)F)OC([H])([H])C4(C([H])([H])[H])C([H])([H])OC(N([H])[H])=[N+]([H])C34[H])c2[H])c([H])c([H])c1Cl

$$$$
90:0:0
     RDKit          3D

 30 33  0  0  1  0  0  0  0  0999 V2000
    0.5623   -9.5213    2.7864 C   0  0  0  0  0  0  0  0  0  0  0  0
    0.8364   -8.2166    2.1142 C   0  0  0  0  0  0  0  0  0  0  0  0
   -0.1334   -7.4129    1.6922 N   0  0  0  0  0  0  0  0  0  0  0  0
    0.5665   -6.3371    1.1202 O   0  0  0  0  0  0  0  0  0  0  0  0
    1.8886   -6.6133    1.2841 C   0  0  0  0  0  0  0  0  0  0  0  0
    2.8543   -5.6081    0.8077 C   0  0  0  0  0  0  0  0  0  0  0  0
    2.4779   -4.5535    0.0812 N   0  0  0  0  0  0  0  0  0  0  0  0
    3.6172   -3.8508   -0.1849 N   0  0  0  0  0  0  0  0  0  0  0  0
    4.6247   -4.5073    0.4029 C   0  0  0  0  0  0  0  0  0  0  0  0
    4.1858   -5.6076    1.0635 N   0  0  0  0  0  0  0  0  0  0  0  0
    4.8975   -6.6005    1.8561 C   0  0  0  0  0  0  0  0  0  0  0  0
    6.3522   -6.2717    2.1707 C   0  0  0  0  0  0  0  0  0  0  0  0
    7.0980   -6.0945    0.9847 O   0  0  0  0  0  0  0  0  0  0  0  0
    7.1514   -4.7982    0.5503 C   0  0  0  0  0  0  0  0  0  0  0  0
    8.4247   -4.2430    0.3436 C   0  0  0  0  0  0  0  0  0  0  0  0
    8.5233   -2.9118   -0.0904 C   0  0  0  0  0  0  0  0  0  0  0  0
    7.4522   -2.1321   -0.3305 N   0  0  0  0  0  0  0  0  0  0  0  0
    6.2307   -2.6755   -0.1411 C   0  0  0  0  0  0  0  0  0  0  0  0
    6.0045   -4.0057    0.2908 C   0  0  0  0  0  0  0  0  0  0  0  0
    2.1034   -7.7706    1.9055 N   0  0  0  0  0  0  0  0  0  0  0  0
   -0.4840   -9.6378    3.0684 H   0  0  0  0  0  0  0  0  0  0  0  0
    1.1768   -9.6032    3.6836 H   0  0  0  0  0  0  0  0  0  0  0  0
    0.8147  -10.3442    2.1193 H   0  0  0  0  0  0  0  0  0  0  0  0
    4.3706   -6.7253    2.8018 H   0  0  0  0  0  0  0  0  0  0  0  0
    4.8426   -7.5514    1.3297 H   0  0  0  0  0  0  0  0  0  0  0  0
    6.4245   -5.3946    2.8198 H   0  0  0  0  0  0  0  0  0  0  0  0
    6.7987   -7.1041    2.7166 H   0  0  0  0  0  0  0  0  0  0  0  0
    9.3068   -4.8345    0.5351 H   0  0  0  0  0  0  0  0  0  0  0  0
    9.4864   -2.4551   -0.2388 H   0  0  0  0  0  0  0  0  0  0  0  0
    5.4121   -2.0038   -0.3580 H   0  0  0  0  0  0  0  0  0  0  0  0
  1  2  1  0
  1 21  1  0
  1 22  1  0
  1 23  1  0
  2 20  1  0
  2  3  2  0
  3  4  1  0
  4  5  1  0
  5  6  1  0
  5 20  2  0
  6 10  1  0
  6  7  2  0
  7  8  1  0
  8  9  2  0
  9 19  1  0
  9 10  1  0
 10 11  1  0
 11 12  1  0
 11 24  1  0
 11 25  1  0
 12 13  1  0
 12 26  1  0
 12 27  1  0
 13 14  1  0
 14 19  2  0
 14 15  1  0
 15 16  2  0
 15 28  1  0
 16 17  1  0
 16 29  1  0
 17 18  2  0
 18 19  1  0
 18 30  1  0
M  END
>  <i_m_ct_stereo_status>  (310) 
1

>  <s_m_source_file>  (310) 
/var/tmp/pbs.5076255.sched01/tmpyqr7shjn/887d44c5qo.sdf

>  <i_m_source_file_index>  (310) 
44

>  <i_lp_mmshare_version>  (310) 
48012

>  <i_f3d_flags>  (310) 
0

>  <s_epik_input>  (310) 
W0NIM11jMW5vYyhuMSktYyhubjIpbihjMjMpW0NIMl1bQ0gyXU9jNGMzW2NIXW5bY0hdW2NIXTQ=

>  <s_epik_cmdline>  (310) 
J2VwaWtfcHl0aG9uJywgJy1waHQnLCAnMi4wJywgJy1waCcsICc3LjAnLCAnLXRuJywgJzgnLCAnLW1hJywgJzIwMCcsICctaW1hZScsICc8aW5maWxlLm1hZT4nLCAnLW9tYWUnLCAnPG91dGZpbGUubWFlPic=

>  <r_lp_tautomer_probability>  (310) 
1

>  <r_epik_Ionization_Penalty>  (310) 
0.0478561

>  <r_epik_Ionization_Penalty_Charging>  (310) 
0

>  <r_epik_Ionization_Penalty_Neutral>  (310) 
0.0478561

>  <r_epik_State_Penalty>  (310) 
0.0407794

>  <r_epik_Charging_Adjusted_Penalty>  (310) 
0.0407794

>  <i_epik_Tot_Q>  (310) 
0

>  <i_epik_Tot_abs_Q>  (310) 
0

>  <s_lp_Force_Field>  (310) 
OPLS3e

>  <r_lp_Energy>  (310) 
16.4049

>  <b_lp_Chiralities_Consistent>  (310) 
1

>  <s_lp_Variant>  (310) 
90:0-1

>  <s_i_glide_gridfile>  (310) 
pfpi4k_grid

>  <i_i_glide_lignum>  (310) 
44

>  <i_i_glide_rotatable_bonds>  (310) 
1

>  <r_i_docking_score>  (310) 
-3.95444

>  <r_i_glide_ligand_efficiency>  (310) 
-0.197722

>  <r_i_glide_ligand_efficiency_sa>  (310) 
-0.5367

>  <r_i_glide_ligand_efficiency_ln>  (310) 
-0.989665

>  <r_i_glide_gscore>  (310) 
-3.95444

>  <r_i_glide_lipo>  (310) 
-0.395712

>  <r_i_glide_hbond>  (310) 
-0.152005

>  <r_i_glide_metal>  (310) 
-0

>  <r_i_glide_rewards>  (310) 
-1.6945

>  <r_i_glide_evdw>  (310) 
-24.3076

>  <r_i_glide_ecoul>  (310) 
-2.89221

>  <r_i_glide_erotb>  (310) 
0.244858

>  <r_i_glide_esite>  (310) 
-0.307874

>  <r_i_glide_emodel>  (310) 
-34.5667

>  <r_i_glide_energy>  (310) 
-27.1998

>  <r_i_glide_einternal>  (310) 
0.172842

>  <r_i_glide_intrahb_reward>  (310) 
-0

>  <i_i_glide_confnum>  (310) 
3

>  <i_i_glide_posenum>  (310) 
26

>  <r_i_glide_eff_state_penalty>  (310) 
0

>  <ligand_id>  (310) 
90

>  <original_smiles>  (310) 
Cc1noc(-c2nnc3n2CCOc2ccncc2-3)n1

>  <smiles>  (310) 
[H]c1nc([H])c2c(c1[H])OC([H])([H])C([H])([H])n1c(-c3nc(C([H])([H])[H])no3)nnc1-2

$$$$
90:0:1
     RDKit          3D

 30 33  0  0  1  0  0  0  0  0999 V2000
    0.7817  -11.1557    3.9513 C   0  0  0  0  0  0  0  0  0  0  0  0
    0.6026   -9.8992    3.1674 C   0  0  0  0  0  0  0  0  0  0  0  0
   -0.5897   -9.3993    2.8680 N   0  0  0  0  0  0  0  0  0  0  0  0
   -0.2809   -8.2338    2.1526 O   0  0  0  0  0  0  0  0  0  0  0  0
    1.0741   -8.1913    2.0705 C   0  0  0  0  0  0  0  0  0  0  0  0
    1.6767   -7.0449    1.3741 C   0  0  0  0  0  0  0  0  0  0  0  0
    0.9563   -6.2564    0.5680 N   0  0  0  0  0  0  0  0  0  0  0  0
    1.8268   -5.3259    0.0878 N   0  0  0  0  0  0  0  0  0  0  0  0
    3.0169   -5.5646    0.6371 C   0  0  0  0  0  0  0  0  0  0  0  0
    2.9659   -6.6309    1.4775 N   0  0  0  0  0  0  0  0  0  0  0  0
    3.9933   -7.2587    2.2966 C   0  0  0  0  0  0  0  0  0  0  0  0
    5.3059   -6.4956    2.3902 C   0  0  0  0  0  0  0  0  0  0  0  0
    5.8813   -6.3035    1.1129 O   0  0  0  0  0  0  0  0  0  0  0  0
    5.5239   -5.1231    0.5181 C   0  0  0  0  0  0  0  0  0  0  0  0
    6.5687   -4.2726    0.0981 C   0  0  0  0  0  0  0  0  0  0  0  0
    6.2474   -3.0497   -0.5092 C   0  0  0  0  0  0  0  0  0  0  0  0
    4.9831   -2.6461   -0.7171 N   0  0  0  0  0  0  0  0  0  0  0  0
    3.9834   -3.4705   -0.3280 C   0  0  0  0  0  0  0  0  0  0  0  0
    4.1797   -4.7300    0.2973 C   0  0  0  0  0  0  0  0  0  0  0  0
    1.6724   -9.1817    2.7311 N   0  0  0  0  0  0  0  0  0  0  0  0
   -0.1450  -11.4771    4.4221 H   0  0  0  0  0  0  0  0  0  0  0  0
    1.5371  -10.9913    4.7245 H   0  0  0  0  0  0  0  0  0  0  0  0
    1.1038  -11.9596    3.2927 H   0  0  0  0  0  0  0  0  0  0  0  0
    3.5884   -7.3831    3.3022 H   0  0  0  0  0  0  0  0  0  0  0  0
    4.1725   -8.2547    1.8938 H   0  0  0  0  0  0  0  0  0  0  0  0
    5.1694   -5.5406    2.9070 H   0  0  0  0  0  0  0  0  0  0  0  0
    6.0143   -7.0798    2.9783 H   0  0  0  0  0  0  0  0  0  0  0  0
    7.6022   -4.5531    0.2414 H   0  0  0  0  0  0  0  0  0  0  0  0
    7.0262   -2.3763   -0.8321 H   0  0  0  0  0  0  0  0  0  0  0  0
    2.9967   -3.0826   -0.5328 H   0  0  0  0  0  0  0  0  0  0  0  0
  1  2  1  0
  1 21  1  0
  1 22  1  0
  1 23  1  0
  2 20  1  0
  2  3  2  0
  3  4  1  0
  4  5  1  0
  5  6  1  0
  5 20  2  0
  6 10  1  0
  6  7  2  0
  7  8  1  0
  8  9  2  0
  9 19  1  0
  9 10  1  0
 10 11  1  0
 11 12  1  0
 11 24  1  0
 11 25  1  0
 12 13  1  0
 12 26  1  0
 12 27  1  0
 13 14  1  0
 14 19  2  0
 14 15  1  0
 15 16  2  0
 15 28  1  0
 16 17  1  0
 16 29  1  0
 17 18  2  0
 18 19  1  0
 18 30  1  0
M  END
>  <i_m_ct_stereo_status>  (311) 
1

>  <s_m_source_file>  (311) 
/var/tmp/pbs.5076255.sched01/tmpyqr7shjn/887d44c5qo.sdf

>  <i_m_source_file_index>  (311) 
44

>  <i_lp_mmshare_version>  (311) 
48012

>  <i_f3d_flags>  (311) 
0

>  <s_epik_input>  (311) 
W0NIM11jMW5vYyhuMSktYyhubjIpbihjMjMpW0NIMl1bQ0gyXU9jNGMzW2NIXW5bY0hdW2NIXTQ=

>  <s_epik_cmdline>  (311) 
J2VwaWtfcHl0aG9uJywgJy1waHQnLCAnMi4wJywgJy1waCcsICc3LjAnLCAnLXRuJywgJzgnLCAnLW1hJywgJzIwMCcsICctaW1hZScsICc8aW5maWxlLm1hZT4nLCAnLW9tYWUnLCAnPG91dGZpbGUubWFlPic=

>  <r_lp_tautomer_probability>  (311) 
1

>  <r_epik_Ionization_Penalty>  (311) 
0.0478561

>  <r_epik_Ionization_Penalty_Charging>  (311) 
0

>  <r_epik_Ionization_Penalty_Neutral>  (311) 
0.0478561

>  <r_epik_State_Penalty>  (311) 
0.0407794

>  <r_epik_Charging_Adjusted_Penalty>  (311) 
0.0407794

>  <i_epik_Tot_Q>  (311) 
0

>  <i_epik_Tot_abs_Q>  (311) 
0

>  <s_lp_Force_Field>  (311) 
OPLS3e

>  <r_lp_Energy>  (311) 
16.4049

>  <b_lp_Chiralities_Consistent>  (311) 
1

>  <s_lp_Variant>  (311) 
90:0-1

>  <s_i_glide_gridfile>  (311) 
pfpi4k_grid

>  <i_i_glide_lignum>  (311) 
44

>  <i_i_glide_rotatable_bonds>  (311) 
1

>  <r_i_docking_score>  (311) 
-3.77206

>  <r_i_glide_ligand_efficiency>  (311) 
-0.188603

>  <r_i_glide_ligand_efficiency_sa>  (311) 
-0.511948

>  <r_i_glide_ligand_efficiency_ln>  (311) 
-0.944023

>  <r_i_glide_gscore>  (311) 
-3.77206

>  <r_i_glide_lipo>  (311) 
-0.346116

>  <r_i_glide_hbond>  (311) 
0

>  <r_i_glide_metal>  (311) 
-0

>  <r_i_glide_rewards>  (311) 
-1.61378

>  <r_i_glide_evdw>  (311) 
-23.1037

>  <r_i_glide_ecoul>  (311) 
-3.81498

>  <r_i_glide_erotb>  (311) 
0.244858

>  <r_i_glide_esite>  (311) 
-0.329592

>  <r_i_glide_emodel>  (311) 
-33.776

>  <r_i_glide_energy>  (311) 
-26.9187

>  <r_i_glide_einternal>  (311) 
0.47203

>  <r_i_glide_intrahb_reward>  (311) 
-0

>  <i_i_glide_confnum>  (311) 
1

>  <i_i_glide_posenum>  (311) 
30

>  <r_i_glide_eff_state_penalty>  (311) 
0

>  <ligand_id>  (311) 
90

>  <original_smiles>  (311) 
Cc1noc(-c2nnc3n2CCOc2ccncc2-3)n1

>  <smiles>  (311) 
[H]c1nc([H])c2c(c1[H])OC([H])([H])C([H])([H])n1c(-c3nc(C([H])([H])[H])no3)nnc1-2

$$$$
90:0:2
     RDKit          3D

 30 33  0  0  1  0  0  0  0  0999 V2000
    8.7908   -5.8882    1.9897 C   0  0  0  0  0  0  0  0  0  0  0  0
    7.4065   -5.6182    1.5042 C   0  0  0  0  0  0  0  0  0  0  0  0
    7.1590   -4.7762    0.5120 N   0  0  0  0  0  0  0  0  0  0  0  0
    5.7623   -4.8451    0.3707 O   0  0  0  0  0  0  0  0  0  0  0  0
    5.3260   -5.7187    1.3180 C   0  0  0  0  0  0  0  0  0  0  0  0
    3.8782   -5.9948    1.4033 C   0  0  0  0  0  0  0  0  0  0  0  0
    2.9823   -5.3780    0.6285 N   0  0  0  0  0  0  0  0  0  0  0  0
    1.7576   -5.8665    0.9917 N   0  0  0  0  0  0  0  0  0  0  0  0
    1.9684   -6.7574    1.9681 C   0  0  0  0  0  0  0  0  0  0  0  0
    3.2900   -6.8808    2.2533 N   0  0  0  0  0  0  0  0  0  0  0  0
    3.9790   -7.7152    3.2357 C   0  0  0  0  0  0  0  0  0  0  0  0
    3.1210   -8.7686    3.9281 C   0  0  0  0  0  0  0  0  0  0  0  0
    2.0424   -8.1685    4.6157 O   0  0  0  0  0  0  0  0  0  0  0  0
    0.8981   -8.0805    3.8730 C   0  0  0  0  0  0  0  0  0  0  0  0
   -0.2729   -8.6454    4.4130 C   0  0  0  0  0  0  0  0  0  0  0  0
   -1.4609   -8.5849    3.6748 C   0  0  0  0  0  0  0  0  0  0  0  0
   -1.5500   -7.9824    2.4782 N   0  0  0  0  0  0  0  0  0  0  0  0
   -0.4257   -7.4559    1.9559 C   0  0  0  0  0  0  0  0  0  0  0  0
    0.8315   -7.4493    2.6059 C   0  0  0  0  0  0  0  0  0  0  0  0
    6.3205   -6.2241    2.0472 N   0  0  0  0  0  0  0  0  0  0  0  0
    9.5447   -5.5107    1.3012 H   0  0  0  0  0  0  0  0  0  0  0  0
    8.9365   -6.9633    2.1032 H   0  0  0  0  0  0  0  0  0  0  0  0
    8.9516   -5.4162    2.9570 H   0  0  0  0  0  0  0  0  0  0  0  0
    4.7947   -8.2332    2.7320 H   0  0  0  0  0  0  0  0  0  0  0  0
    4.4250   -7.0611    3.9840 H   0  0  0  0  0  0  0  0  0  0  0  0
    2.7757   -9.5241    3.2165 H   0  0  0  0  0  0  0  0  0  0  0  0
    3.7241   -9.2941    4.6691 H   0  0  0  0  0  0  0  0  0  0  0  0
   -0.2631   -9.1497    5.3683 H   0  0  0  0  0  0  0  0  0  0  0  0
   -2.3673   -9.0292    4.0521 H   0  0  0  0  0  0  0  0  0  0  0  0
   -0.5645   -6.9897    0.9894 H   0  0  0  0  0  0  0  0  0  0  0  0
  1  2  1  0
  1 21  1  0
  1 22  1  0
  1 23  1  0
  2 20  1  0
  2  3  2  0
  3  4  1  0
  4  5  1  0
  5  6  1  0
  5 20  2  0
  6 10  1  0
  6  7  2  0
  7  8  1  0
  8  9  2  0
  9 19  1  0
  9 10  1  0
 10 11  1  0
 11 12  1  0
 11 24  1  0
 11 25  1  0
 12 13  1  0
 12 26  1  0
 12 27  1  0
 13 14  1  0
 14 19  2  0
 14 15  1  0
 15 16  2  0
 15 28  1  0
 16 17  1  0
 16 29  1  0
 17 18  2  0
 18 19  1  0
 18 30  1  0
M  END
>  <i_m_ct_stereo_status>  (312) 
1

>  <s_m_source_file>  (312) 
/var/tmp/pbs.5076255.sched01/tmpyqr7shjn/887d44c5qo.sdf

>  <i_m_source_file_index>  (312) 
44

>  <i_lp_mmshare_version>  (312) 
48012

>  <i_f3d_flags>  (312) 
0

>  <s_epik_input>  (312) 
W0NIM11jMW5vYyhuMSktYyhubjIpbihjMjMpW0NIMl1bQ0gyXU9jNGMzW2NIXW5bY0hdW2NIXTQ=

>  <s_epik_cmdline>  (312) 
J2VwaWtfcHl0aG9uJywgJy1waHQnLCAnMi4wJywgJy1waCcsICc3LjAnLCAnLXRuJywgJzgnLCAnLW1hJywgJzIwMCcsICctaW1hZScsICc8aW5maWxlLm1hZT4nLCAnLW9tYWUnLCAnPG91dGZpbGUubWFlPic=

>  <r_lp_tautomer_probability>  (312) 
1

>  <r_epik_Ionization_Penalty>  (312) 
0.0478561

>  <r_epik_Ionization_Penalty_Charging>  (312) 
0

>  <r_epik_Ionization_Penalty_Neutral>  (312) 
0.0478561

>  <r_epik_State_Penalty>  (312) 
0.0407794

>  <r_epik_Charging_Adjusted_Penalty>  (312) 
0.0407794

>  <i_epik_Tot_Q>  (312) 
0

>  <i_epik_Tot_abs_Q>  (312) 
0

>  <s_lp_Force_Field>  (312) 
OPLS3e

>  <r_lp_Energy>  (312) 
16.4049

>  <b_lp_Chiralities_Consistent>  (312) 
1

>  <s_lp_Variant>  (312) 
90:0-1

>  <s_i_glide_gridfile>  (312) 
pfpi4k_grid

>  <i_i_glide_lignum>  (312) 
44

>  <i_i_glide_rotatable_bonds>  (312) 
1

>  <r_i_docking_score>  (312) 
-3.08993

>  <r_i_glide_ligand_efficiency>  (312) 
-0.154496

>  <r_i_glide_ligand_efficiency_sa>  (312) 
-0.419368

>  <r_i_glide_ligand_efficiency_ln>  (312) 
-0.773307

>  <r_i_glide_gscore>  (312) 
-3.08993

>  <r_i_glide_lipo>  (312) 
-0.0685971

>  <r_i_glide_hbond>  (312) 
0

>  <r_i_glide_metal>  (312) 
-0

>  <r_i_glide_rewards>  (312) 
-1.74759

>  <r_i_glide_evdw>  (312) 
-22.4238

>  <r_i_glide_ecoul>  (312) 
-1.87134

>  <r_i_glide_erotb>  (312) 
0.244858

>  <r_i_glide_esite>  (312) 
-0.116703

>  <r_i_glide_emodel>  (312) 
-30.0795

>  <r_i_glide_energy>  (312) 
-24.2952

>  <r_i_glide_einternal>  (312) 
0.00845668

>  <r_i_glide_intrahb_reward>  (312) 
-0

>  <i_i_glide_confnum>  (312) 
3

>  <i_i_glide_posenum>  (312) 
5

>  <r_i_glide_eff_state_penalty>  (312) 
0

>  <ligand_id>  (312) 
90

>  <original_smiles>  (312) 
Cc1noc(-c2nnc3n2CCOc2ccncc2-3)n1

>  <smiles>  (312) 
[H]c1nc([H])c2c(c1[H])OC([H])([H])C([H])([H])n1c(-c3nc(C([H])([H])[H])no3)nnc1-2

$$$$
90:1:0
     RDKit          3D

 31 34  0  0  1  0  0  0  0  0999 V2000
    0.7933  -11.2689    4.3076 C   0  0  0  0  0  0  0  0  0  0  0  0
    0.6331  -10.0118    3.5214 C   0  0  0  0  0  0  0  0  0  0  0  0
   -0.5512   -9.4863    3.2286 N   0  0  0  0  0  0  0  0  0  0  0  0
   -0.2281   -8.3455    2.4777 O   0  0  0  0  0  0  0  0  0  0  0  0
    1.1258   -8.3202    2.4014 C   0  0  0  0  0  0  0  0  0  0  0  0
    1.7484   -7.2118    1.6601 C   0  0  0  0  0  0  0  0  0  0  0  0
    1.0171   -6.3161    0.9936 N   0  0  0  0  0  0  0  0  0  0  0  0
    1.9090   -5.4584    0.4236 N   0  0  0  0  0  0  0  0  0  0  0  0
    3.1350   -5.8472    0.7980 C   0  0  0  0  0  0  0  0  0  0  0  0
    3.0833   -6.9671    1.5632 N   0  0  0  0  0  0  0  0  0  0  0  0
    4.1378   -7.7561    2.1836 C   0  0  0  0  0  0  0  0  0  0  0  0
    5.5567   -7.4054    1.7527 C   0  0  0  0  0  0  0  0  0  0  0  0
    5.8597   -6.0528    2.0348 O   0  0  0  0  0  0  0  0  0  0  0  0
    5.5962   -5.1891    1.0091 C   0  0  0  0  0  0  0  0  0  0  0  0
    6.6588   -4.3628    0.5819 C   0  0  0  0  0  0  0  0  0  0  0  0
    6.4636   -3.4633   -0.4816 C   0  0  0  0  0  0  0  0  0  0  0  0
    5.2540   -3.3909   -1.0722 N   0  0  0  0  0  0  0  0  0  0  0  0
    4.2013   -4.1427   -0.6774 C   0  0  0  0  0  0  0  0  0  0  0  0
    4.3249   -5.0776    0.3812 C   0  0  0  0  0  0  0  0  0  0  0  0
    1.7096   -9.3173    3.0649 N   0  0  0  0  0  0  0  0  0  0  0  0
   -0.1413  -11.8138    4.4183 H   0  0  0  0  0  0  0  0  0  0  0  0
    1.1541  -11.0403    5.3080 H   0  0  0  0  0  0  0  0  0  0  0  0
    1.5194  -11.9203    3.8199 H   0  0  0  0  0  0  0  0  0  0  0  0
    4.0466   -7.6590    3.2654 H   0  0  0  0  0  0  0  0  0  0  0  0
    3.9735   -8.8053    1.9360 H   0  0  0  0  0  0  0  0  0  0  0  0
    6.2629   -8.0235    2.3083 H   0  0  0  0  0  0  0  0  0  0  0  0
    5.7053   -7.6347    0.6958 H   0  0  0  0  0  0  0  0  0  0  0  0
    7.6244   -4.4352    1.0580 H   0  0  0  0  0  0  0  0  0  0  0  0
    7.2369   -2.8244   -0.8793 H   0  0  0  0  0  0  0  0  0  0  0  0
    3.2847   -3.9636   -1.2225 H   0  0  0  0  0  0  0  0  0  0  0  0
    5.1196   -2.7441   -1.8487 H   0  0  0  0  0  0  0  0  0  0  0  0
  1  2  1  0
  1 21  1  0
  1 22  1  0
  1 23  1  0
  2 20  1  0
  2  3  2  0
  3  4  1  0
  4  5  1  0
  5  6  1  0
  5 20  2  0
  6 10  1  0
  6  7  2  0
  7  8  1  0
  8  9  2  0
  9 19  1  0
  9 10  1  0
 10 11  1  0
 11 12  1  0
 11 24  1  0
 11 25  1  0
 12 13  1  0
 12 26  1  0
 12 27  1  0
 13 14  1  0
 14 19  2  0
 14 15  1  0
 15 16  2  0
 15 28  1  0
 16 17  1  0
 16 29  1  0
 17 18  2  0
 17 31  1  0
 18 19  1  0
 18 30  1  0
M  CHG  1  17   1
M  END
>  <i_m_ct_stereo_status>  (313) 
1

>  <s_m_source_file>  (313) 
/var/tmp/pbs.5076255.sched01/tmp0i_w_vt9/132llf9lao3.sdf

>  <i_m_source_file_index>  (313) 
1

>  <i_lp_mmshare_version>  (313) 
48012

>  <i_f3d_flags>  (313) 
0

>  <s_epik_input>  (313) 
W0NIM11jMW5vYyhuMSktYyhubjIpbihjMjMpW0NIMl1bQ0gyXU9jNGMzW2NIXW5bY0hdW2NIXTQ=

>  <s_epik_cmdline>  (313) 
J2VwaWtfcHl0aG9uJywgJy1waHQnLCAnMi4wJywgJy1waCcsICc3LjAnLCAnLXRuJywgJzgnLCAnLW1hJywgJzIwMCcsICctaW1hZScsICc8aW5maWxlLm1hZT4nLCAnLW9tYWUnLCAnPG91dGZpbGUubWFlPic=

>  <r_lp_tautomer_probability>  (313) 
1

>  <r_epik_Ionization_Penalty>  (313) 
1.51454

>  <r_epik_Ionization_Penalty_Charging>  (313) 
1.51454

>  <r_epik_Ionization_Penalty_Neutral>  (313) 
1.91561e-08

>  <r_epik_State_Penalty>  (313) 
1.60585

>  <r_epik_Charging_Adjusted_Penalty>  (313) 
3.1204

>  <i_epik_Tot_Q>  (313) 
1

>  <i_epik_Tot_abs_Q>  (313) 
1

>  <s_lp_Force_Field>  (313) 
OPLS3e

>  <r_lp_Energy>  (313) 
21.2127

>  <b_lp_Chiralities_Consistent>  (313) 
1

>  <s_lp_Variant>  (313) 
90:0-2

>  <s_i_glide_gridfile>  (313) 
pfpi4k_grid

>  <i_i_glide_lignum>  (313) 
1

>  <i_i_glide_rotatable_bonds>  (313) 
1

>  <r_i_docking_score>  (313) 
-4.03388

>  <r_i_glide_ligand_efficiency>  (313) 
-0.201694

>  <r_i_glide_ligand_efficiency_sa>  (313) 
-0.547481

>  <r_i_glide_ligand_efficiency_ln>  (313) 
-1.00955

>  <r_i_glide_gscore>  (313) 
-4.03388

>  <r_i_glide_lipo>  (313) 
-0.4382

>  <r_i_glide_hbond>  (313) 
0

>  <r_i_glide_metal>  (313) 
-0

>  <r_i_glide_rewards>  (313) 
-1.62788

>  <r_i_glide_evdw>  (313) 
-22.6492

>  <r_i_glide_ecoul>  (313) 
-4.99321

>  <r_i_glide_erotb>  (313) 
0.243286

>  <r_i_glide_esite>  (313) 
-0.329644

>  <r_i_glide_emodel>  (313) 
-37.832

>  <r_i_glide_energy>  (313) 
-27.6424

>  <r_i_glide_einternal>  (313) 
0.0511734

>  <r_i_glide_intrahb_reward>  (313) 
-0

>  <i_i_glide_confnum>  (313) 
3

>  <i_i_glide_posenum>  (313) 
27

>  <r_i_glide_eff_state_penalty>  (313) 
0

>  <ligand_id>  (313) 
90

>  <original_smiles>  (313) 
Cc1noc(-c2nnc3n2CCOc2ccncc2-3)n1

>  <smiles>  (313) 
[H]c1c2c(c([H])[n+]([H])c1[H])-c1nnc(-c3nc(C([H])([H])[H])no3)n1C([H])([H])C([H])([H])O2

$$$$
90:1:1
     RDKit          3D

 31 34  0  0  1  0  0  0  0  0999 V2000
    3.1403  -11.7311    4.1024 C   0  0  0  0  0  0  0  0  0  0  0  0
    2.3549  -10.6676    3.4125 C   0  0  0  0  0  0  0  0  0  0  0  0
    1.0400  -10.7359    3.2740 N   0  0  0  0  0  0  0  0  0  0  0  0
    0.7268   -9.5523    2.5815 O   0  0  0  0  0  0  0  0  0  0  0  0
    1.9034   -8.8987    2.3978 C   0  0  0  0  0  0  0  0  0  0  0  0
    1.8809   -7.6101    1.6744 C   0  0  0  0  0  0  0  0  0  0  0  0
    0.7447   -7.0339    1.2726 N   0  0  0  0  0  0  0  0  0  0  0  0
    1.1105   -5.9019    0.6045 N   0  0  0  0  0  0  0  0  0  0  0  0
    2.4433   -5.8100    0.6731 C   0  0  0  0  0  0  0  0  0  0  0  0
    2.9754   -6.8845    1.3091 N   0  0  0  0  0  0  0  0  0  0  0  0
    4.3654   -7.2343    1.5820 C   0  0  0  0  0  0  0  0  0  0  0  0
    5.4066   -6.3559    0.8974 C   0  0  0  0  0  0  0  0  0  0  0  0
    5.2633   -4.9986    1.2689 O   0  0  0  0  0  0  0  0  0  0  0  0
    4.4698   -4.2706    0.4280 C   0  0  0  0  0  0  0  0  0  0  0  0
    5.0232   -3.0953   -0.1216 C   0  0  0  0  0  0  0  0  0  0  0  0
    4.2639   -2.3064   -1.0083 C   0  0  0  0  0  0  0  0  0  0  0  0
    3.0115   -2.6859   -1.3108 N   0  0  0  0  0  0  0  0  0  0  0  0
    2.4396   -3.8014   -0.8044 C   0  0  0  0  0  0  0  0  0  0  0  0
    3.1369   -4.6406    0.0977 C   0  0  0  0  0  0  0  0  0  0  0  0
    2.9475   -9.5542    2.9026 N   0  0  0  0  0  0  0  0  0  0  0  0
    2.5521  -12.6300    4.2786 H   0  0  0  0  0  0  0  0  0  0  0  0
    3.4741  -11.3707    5.0738 H   0  0  0  0  0  0  0  0  0  0  0  0
    4.0113  -11.9857    3.4949 H   0  0  0  0  0  0  0  0  0  0  0  0
    4.5138   -7.2039    2.6606 H   0  0  0  0  0  0  0  0  0  0  0  0
    4.5303   -8.2627    1.2586 H   0  0  0  0  0  0  0  0  0  0  0  0
    6.4026   -6.6749    1.2079 H   0  0  0  0  0  0  0  0  0  0  0  0
    5.3625   -6.4676   -0.1893 H   0  0  0  0  0  0  0  0  0  0  0  0
    6.0286   -2.8039    0.1334 H   0  0  0  0  0  0  0  0  0  0  0  0
    4.6057   -1.3914   -1.4651 H   0  0  0  0  0  0  0  0  0  0  0  0
    1.4250   -3.9732   -1.1385 H   0  0  0  0  0  0  0  0  0  0  0  0
    2.4388   -2.0862   -1.9100 H   0  0  0  0  0  0  0  0  0  0  0  0
  1  2  1  0
  1 21  1  0
  1 22  1  0
  1 23  1  0
  2 20  1  0
  2  3  2  0
  3  4  1  0
  4  5  1  0
  5  6  1  0
  5 20  2  0
  6 10  1  0
  6  7  2  0
  7  8  1  0
  8  9  2  0
  9 19  1  0
  9 10  1  0
 10 11  1  0
 11 12  1  0
 11 24  1  0
 11 25  1  0
 12 13  1  0
 12 26  1  0
 12 27  1  0
 13 14  1  0
 14 19  2  0
 14 15  1  0
 15 16  2  0
 15 28  1  0
 16 17  1  0
 16 29  1  0
 17 18  2  0
 17 31  1  0
 18 19  1  0
 18 30  1  0
M  CHG  1  17   1
M  END
>  <i_m_ct_stereo_status>  (314) 
1

>  <s_m_source_file>  (314) 
/var/tmp/pbs.5076255.sched01/tmp0i_w_vt9/132llf9lao3.sdf

>  <i_m_source_file_index>  (314) 
1

>  <i_lp_mmshare_version>  (314) 
48012

>  <i_f3d_flags>  (314) 
0

>  <s_epik_input>  (314) 
W0NIM11jMW5vYyhuMSktYyhubjIpbihjMjMpW0NIMl1bQ0gyXU9jNGMzW2NIXW5bY0hdW2NIXTQ=

>  <s_epik_cmdline>  (314) 
J2VwaWtfcHl0aG9uJywgJy1waHQnLCAnMi4wJywgJy1waCcsICc3LjAnLCAnLXRuJywgJzgnLCAnLW1hJywgJzIwMCcsICctaW1hZScsICc8aW5maWxlLm1hZT4nLCAnLW9tYWUnLCAnPG91dGZpbGUubWFlPic=

>  <r_lp_tautomer_probability>  (314) 
1

>  <r_epik_Ionization_Penalty>  (314) 
1.51454

>  <r_epik_Ionization_Penalty_Charging>  (314) 
1.51454

>  <r_epik_Ionization_Penalty_Neutral>  (314) 
1.91561e-08

>  <r_epik_State_Penalty>  (314) 
1.60585

>  <r_epik_Charging_Adjusted_Penalty>  (314) 
3.1204

>  <i_epik_Tot_Q>  (314) 
1

>  <i_epik_Tot_abs_Q>  (314) 
1

>  <s_lp_Force_Field>  (314) 
OPLS3e

>  <r_lp_Energy>  (314) 
21.2127

>  <b_lp_Chiralities_Consistent>  (314) 
1

>  <s_lp_Variant>  (314) 
90:0-2

>  <s_i_glide_gridfile>  (314) 
pfpi4k_grid

>  <i_i_glide_lignum>  (314) 
1

>  <i_i_glide_rotatable_bonds>  (314) 
1

>  <r_i_docking_score>  (314) 
-4.00405

>  <r_i_glide_ligand_efficiency>  (314) 
-0.200202

>  <r_i_glide_ligand_efficiency_sa>  (314) 
-0.543433

>  <r_i_glide_ligand_efficiency_ln>  (314) 
-1.00208

>  <r_i_glide_gscore>  (314) 
-4.00405

>  <r_i_glide_lipo>  (314) 
-0.248821

>  <r_i_glide_hbond>  (314) 
-0.0216869

>  <r_i_glide_metal>  (314) 
-0

>  <r_i_glide_rewards>  (314) 
-1.65778

>  <r_i_glide_evdw>  (314) 
-20.7411

>  <r_i_glide_ecoul>  (314) 
-6.66934

>  <r_i_glide_erotb>  (314) 
0.243286

>  <r_i_glide_esite>  (314) 
-0.281589

>  <r_i_glide_emodel>  (314) 
-37.5609

>  <r_i_glide_energy>  (314) 
-27.4105

>  <r_i_glide_einternal>  (314) 
0.0140122

>  <r_i_glide_intrahb_reward>  (314) 
-0

>  <i_i_glide_confnum>  (314) 
1

>  <i_i_glide_posenum>  (314) 
23

>  <r_i_glide_eff_state_penalty>  (314) 
0

>  <ligand_id>  (314) 
90

>  <original_smiles>  (314) 
Cc1noc(-c2nnc3n2CCOc2ccncc2-3)n1

>  <smiles>  (314) 
[H]c1c2c(c([H])[n+]([H])c1[H])-c1nnc(-c3nc(C([H])([H])[H])no3)n1C([H])([H])C([H])([H])O2

$$$$
90:1:2
     RDKit          3D

 31 34  0  0  1  0  0  0  0  0999 V2000
    3.2516   -2.2683   -1.0981 C   0  0  0  0  0  0  0  0  0  0  0  0
    3.9068   -3.5188   -0.6236 C   0  0  0  0  0  0  0  0  0  0  0  0
    5.1810   -3.7841   -0.8777 N   0  0  0  0  0  0  0  0  0  0  0  0
    5.3671   -5.0482   -0.2915 O   0  0  0  0  0  0  0  0  0  0  0  0
    4.1724   -5.3931    0.2624 C   0  0  0  0  0  0  0  0  0  0  0  0
    4.0719   -6.7027    0.9392 C   0  0  0  0  0  0  0  0  0  0  0  0
    5.1111   -7.5308    1.0470 N   0  0  0  0  0  0  0  0  0  0  0  0
    4.6627   -8.6195    1.7378 N   0  0  0  0  0  0  0  0  0  0  0  0
    3.3721   -8.4042    2.0145 C   0  0  0  0  0  0  0  0  0  0  0  0
    2.9475   -7.2119    1.5166 N   0  0  0  0  0  0  0  0  0  0  0  0
    1.6460   -6.5603    1.5687 C   0  0  0  0  0  0  0  0  0  0  0  0
    0.5005   -7.4234    2.0833 C   0  0  0  0  0  0  0  0  0  0  0  0
    0.7604   -7.8814    3.3942 O   0  0  0  0  0  0  0  0  0  0  0  0
    1.3764   -9.1011    3.4478 C   0  0  0  0  0  0  0  0  0  0  0  0
    0.7480  -10.0947    4.2295 C   0  0  0  0  0  0  0  0  0  0  0  0
    1.3134  -11.3804    4.3093 C   0  0  0  0  0  0  0  0  0  0  0  0
    2.4637  -11.6402    3.6565 N   0  0  0  0  0  0  0  0  0  0  0  0
    3.1154  -10.7078    2.9251 C   0  0  0  0  0  0  0  0  0  0  0  0
    2.6001   -9.3961    2.7865 C   0  0  0  0  0  0  0  0  0  0  0  0
    3.2363   -4.4554    0.0994 N   0  0  0  0  0  0  0  0  0  0  0  0
    3.8646   -1.7275   -1.8181 H   0  0  0  0  0  0  0  0  0  0  0  0
    3.0672   -1.6083   -0.2531 H   0  0  0  0  0  0  0  0  0  0  0  0
    2.2984   -2.5210   -1.5648 H   0  0  0  0  0  0  0  0  0  0  0  0
    1.7400   -5.6673    2.1863 H   0  0  0  0  0  0  0  0  0  0  0  0
    1.3895   -6.2361    0.5615 H   0  0  0  0  0  0  0  0  0  0  0  0
   -0.4092   -6.8222    2.1273 H   0  0  0  0  0  0  0  0  0  0  0  0
    0.2918   -8.2538    1.4038 H   0  0  0  0  0  0  0  0  0  0  0  0
   -0.1738   -9.8719    4.7444 H   0  0  0  0  0  0  0  0  0  0  0  0
    0.8852  -12.1988    4.8691 H   0  0  0  0  0  0  0  0  0  0  0  0
    4.0439  -11.0464    2.4811 H   0  0  0  0  0  0  0  0  0  0  0  0
    2.8479  -12.5855    3.7116 H   0  0  0  0  0  0  0  0  0  0  0  0
  1  2  1  0
  1 21  1  0
  1 22  1  0
  1 23  1  0
  2 20  1  0
  2  3  2  0
  3  4  1  0
  4  5  1  0
  5  6  1  0
  5 20  2  0
  6 10  1  0
  6  7  2  0
  7  8  1  0
  8  9  2  0
  9 19  1  0
  9 10  1  0
 10 11  1  0
 11 12  1  0
 11 24  1  0
 11 25  1  0
 12 13  1  0
 12 26  1  0
 12 27  1  0
 13 14  1  0
 14 19  2  0
 14 15  1  0
 15 16  2  0
 15 28  1  0
 16 17  1  0
 16 29  1  0
 17 18  2  0
 17 31  1  0
 18 19  1  0
 18 30  1  0
M  CHG  1  17   1
M  END
>  <i_m_ct_stereo_status>  (315) 
1

>  <s_m_source_file>  (315) 
/var/tmp/pbs.5076255.sched01/tmp0i_w_vt9/132llf9lao3.sdf

>  <i_m_source_file_index>  (315) 
1

>  <i_lp_mmshare_version>  (315) 
48012

>  <i_f3d_flags>  (315) 
0

>  <s_epik_input>  (315) 
W0NIM11jMW5vYyhuMSktYyhubjIpbihjMjMpW0NIMl1bQ0gyXU9jNGMzW2NIXW5bY0hdW2NIXTQ=

>  <s_epik_cmdline>  (315) 
J2VwaWtfcHl0aG9uJywgJy1waHQnLCAnMi4wJywgJy1waCcsICc3LjAnLCAnLXRuJywgJzgnLCAnLW1hJywgJzIwMCcsICctaW1hZScsICc8aW5maWxlLm1hZT4nLCAnLW9tYWUnLCAnPG91dGZpbGUubWFlPic=

>  <r_lp_tautomer_probability>  (315) 
1

>  <r_epik_Ionization_Penalty>  (315) 
1.51454

>  <r_epik_Ionization_Penalty_Charging>  (315) 
1.51454

>  <r_epik_Ionization_Penalty_Neutral>  (315) 
1.91561e-08

>  <r_epik_State_Penalty>  (315) 
1.60585

>  <r_epik_Charging_Adjusted_Penalty>  (315) 
3.1204

>  <i_epik_Tot_Q>  (315) 
1

>  <i_epik_Tot_abs_Q>  (315) 
1

>  <s_lp_Force_Field>  (315) 
OPLS3e

>  <r_lp_Energy>  (315) 
21.2127

>  <b_lp_Chiralities_Consistent>  (315) 
1

>  <s_lp_Variant>  (315) 
90:0-2

>  <s_i_glide_gridfile>  (315) 
pfpi4k_grid

>  <i_i_glide_lignum>  (315) 
1

>  <i_i_glide_rotatable_bonds>  (315) 
1

>  <r_i_docking_score>  (315) 
-3.71117

>  <r_i_glide_ligand_efficiency>  (315) 
-0.185558

>  <r_i_glide_ligand_efficiency_sa>  (315) 
-0.503683

>  <r_i_glide_ligand_efficiency_ln>  (315) 
-0.928783

>  <r_i_glide_gscore>  (315) 
-3.71117

>  <r_i_glide_lipo>  (315) 
-0.134721

>  <r_i_glide_hbond>  (315) 
0

>  <r_i_glide_metal>  (315) 
-0

>  <r_i_glide_rewards>  (315) 
-1.8039

>  <r_i_glide_evdw>  (315) 
-22.7888

>  <r_i_glide_ecoul>  (315) 
-5.57856

>  <r_i_glide_erotb>  (315) 
0.243286

>  <r_i_glide_esite>  (315) 
-0.0396096

>  <r_i_glide_emodel>  (315) 
-37.7712

>  <r_i_glide_energy>  (315) 
-28.3674

>  <r_i_glide_einternal>  (315) 
0.00225593

>  <r_i_glide_intrahb_reward>  (315) 
-0

>  <i_i_glide_confnum>  (315) 
1

>  <i_i_glide_posenum>  (315) 
2

>  <r_i_glide_eff_state_penalty>  (315) 
0

>  <ligand_id>  (315) 
90

>  <original_smiles>  (315) 
Cc1noc(-c2nnc3n2CCOc2ccncc2-3)n1

>  <smiles>  (315) 
[H]c1c2c(c([H])[n+]([H])c1[H])-c1nnc(-c3nc(C([H])([H])[H])no3)n1C([H])([H])C([H])([H])O2

$$$$
91:0:0
     RDKit          3D

 60 65  0  0  1  0  0  0  0  0999 V2000
   -0.1732   -9.0440    5.6578 C   0  0  0  0  0  0  0  0  0  0  0  0
    0.4482   -7.9418    4.8167 C   0  0  0  0  0  0  0  0  0  0  0  0
   -0.0132   -7.9517    3.3702 C   0  0  0  0  0  0  0  0  0  0  0  0
    1.3409   -7.0869    5.3636 C   0  0  0  0  0  0  0  0  0  0  0  0
    2.1243   -5.9125    4.7395 C   0  0  1  0  0  0  0  0  0  0  0  0
    2.8399   -6.3351    3.4797 C   0  0  0  0  0  0  0  0  0  0  0  0
    3.7983   -7.3516    3.2884 C   0  0  0  0  0  0  0  0  0  0  0  0
    4.2874   -7.5790    1.9809 C   0  0  0  0  0  0  0  0  0  0  0  0
    3.8146   -6.8090    0.8915 C   0  0  0  0  0  0  0  0  0  0  0  0
    2.8374   -5.8116    1.0995 C   0  0  0  0  0  0  0  0  0  0  0  0
    2.3413   -5.0794    0.0615 O   0  0  0  0  0  0  0  0  0  0  0  0
    2.3663   -5.5928    2.4053 C   0  0  0  0  0  0  0  0  0  0  0  0
    1.4130   -4.6811    2.7606 O   0  0  0  0  0  0  0  0  0  0  0  0
    1.1470   -4.8117    4.1648 C   0  0  2  0  0  0  0  0  0  0  0  0
    1.2760   -3.4412    4.9147 C   0  0  1  0  0  0  0  0  0  0  0  0
    0.1975   -2.4297    4.4664 C   0  0  0  0  0  0  0  0  0  0  0  0
    1.1106   -3.8056    6.4132 C   0  0  0  0  0  0  0  0  0  0  0  0
    0.2336   -3.3265    7.1268 O   0  0  0  0  0  0  0  0  0  0  0  0
    2.0423   -4.6817    6.8395 N   0  0  0  0  0  0  0  0  0  0  0  0
    3.0156   -5.1913    5.8513 C   0  0  1  0  0  0  0  0  0  0  0  0
    4.0190   -6.1304    6.5674 C   0  0  0  0  0  0  0  0  0  0  0  0
    3.7443   -3.8798    5.3683 C   0  0  2  0  0  0  0  0  0  0  0  0
    2.7291   -2.8569    4.8227 C   0  0  1  0  0  0  0  0  0  0  0  0
    3.3073   -2.5124    3.4465 C   0  0  0  0  0  0  0  0  0  0  0  0
    2.7396   -1.7422    2.6704 O   0  0  0  0  0  0  0  0  0  0  0  0
    4.4801   -3.1415    3.2346 N   0  0  0  0  0  0  0  0  0  0  0  0
    5.3093   -2.9383    2.0865 C   0  0  0  0  0  0  0  0  0  0  0  0
    5.5615   -1.6329    1.5958 C   0  0  0  0  0  0  0  0  0  0  0  0
    6.3804   -1.4361    0.4669 C   0  0  0  0  0  0  0  0  0  0  0  0
    6.9668   -2.5412   -0.1828 C   0  0  0  0  0  0  0  0  0  0  0  0
    6.7295   -3.8412    0.3017 C   0  0  0  0  0  0  0  0  0  0  0  0
    5.9080   -4.0361    1.4270 C   0  0  0  0  0  0  0  0  0  0  0  0
    4.7904   -3.9645    4.2570 C   0  0  0  0  0  0  0  0  0  0  0  0
    5.7905   -4.6753    4.3570 O   0  0  0  0  0  0  0  0  0  0  0  0
    0.0647  -10.0208    5.2355 H   0  0  0  0  0  0  0  0  0  0  0  0
   -1.2593   -8.9538    5.6703 H   0  0  0  0  0  0  0  0  0  0  0  0
    0.1764   -9.0323    6.6906 H   0  0  0  0  0  0  0  0  0  0  0  0
   -1.0798   -8.1722    3.3196 H   0  0  0  0  0  0  0  0  0  0  0  0
    0.5123   -8.7299    2.8158 H   0  0  0  0  0  0  0  0  0  0  0  0
    0.1444   -7.0065    2.8601 H   0  0  0  0  0  0  0  0  0  0  0  0
    1.5287   -7.2420    6.4130 H   0  0  0  0  0  0  0  0  0  0  0  0
    4.1465   -7.9523    4.1163 H   0  0  0  0  0  0  0  0  0  0  0  0
    5.0210   -8.3524    1.8053 H   0  0  0  0  0  0  0  0  0  0  0  0
    4.1989   -6.9935   -0.1009 H   0  0  0  0  0  0  0  0  0  0  0  0
    2.7105   -5.2990   -0.7889 H   0  0  0  0  0  0  0  0  0  0  0  0
    0.1105   -5.1445    4.2497 H   0  0  0  0  0  0  0  0  0  0  0  0
    0.2444   -2.2306    3.3948 H   0  0  0  0  0  0  0  0  0  0  0  0
    0.2992   -1.4763    4.9850 H   0  0  0  0  0  0  0  0  0  0  0  0
   -0.8055   -2.8006    4.6742 H   0  0  0  0  0  0  0  0  0  0  0  0
    2.0831   -4.9850    7.8026 H   0  0  0  0  0  0  0  0  0  0  0  0
    4.7320   -6.5707    5.8705 H   0  0  0  0  0  0  0  0  0  0  0  0
    3.5329   -6.9509    7.0934 H   0  0  0  0  0  0  0  0  0  0  0  0
    4.6002   -5.5833    7.3111 H   0  0  0  0  0  0  0  0  0  0  0  0
    2.7770   -1.9373    5.4095 H   0  0  0  0  0  0  0  0  0  0  0  0
    5.1312   -0.7702    2.0816 H   0  0  0  0  0  0  0  0  0  0  0  0
    6.5487   -0.4306    0.1080 H   0  0  0  0  0  0  0  0  0  0  0  0
    7.5977   -2.4049   -1.0488 H   0  0  0  0  0  0  0  0  0  0  0  0
    7.1766   -4.6930   -0.1854 H   0  0  0  0  0  0  0  0  0  0  0  0
    5.7443   -5.0385    1.7866 H   0  0  0  0  0  0  0  0  0  0  0  0
    4.2550   -3.4324    6.2226 H   0  0  0  0  0  0  0  0  0  0  0  0
  1  2  1  0
  1 35  1  0
  1 36  1  0
  1 37  1  0
  2  3  1  0
  2  4  2  3
  3 38  1  0
  3 39  1  0
  3 40  1  0
  5  4  1  1
  4 41  1  0
  5 14  1  0
  5 20  1  0
  5  6  1  0
  6 12  2  0
  6  7  1  0
  7  8  2  0
  7 42  1  0
  8  9  1  0
  8 43  1  0
  9 10  2  0
  9 44  1  0
 10 11  1  0
 10 12  1  0
 11 45  1  0
 12 13  1  0
 13 14  1  0
 14 15  1  0
 14 46  1  6
 15 16  1  6
 15 17  1  0
 15 23  1  0
 16 47  1  0
 16 48  1  0
 16 49  1  0
 17 18  2  0
 17 19  1  0
 19 20  1  0
 19 50  1  0
 20 21  1  1
 20 22  1  0
 21 51  1  0
 21 52  1  0
 21 53  1  0
 22 23  1  0
 22 60  1  1
 22 33  1  0
 23 24  1  0
 23 54  1  1
 24 25  2  0
 24 26  1  0
 26 33  1  0
 26 27  1  0
 27 32  1  0
 27 28  2  0
 28 29  1  0
 28 55  1  0
 29 30  2  0
 29 56  1  0
 30 31  1  0
 30 57  1  0
 31 32  2  0
 31 58  1  0
 32 59  1  0
 33 34  2  0
M  END
>  <i_m_ct_stereo_status>  (316) 
1

>  <s_m_source_file>  (316) 
/var/tmp/pbs.5076255.sched01/tmp0i_w_vt9/132llf9lao3.sdf

>  <i_m_source_file_index>  (316) 
2

>  <i_lp_mmshare_version>  (316) 
48012

>  <i_f3d_flags>  (316) 
0

>  <s_epik_input>  (316) 
W0NIM11DKFtDSDNdKT1bQ0hdW0NAQF0xMmMzYyhjKFtPSF0pW2NIXVtjSF1bY0hdMylPW0NAQEhdMVtDQF00KFtDSDNdKWM1YyhbQ0BAXTIoW0NIM10pW05IXUM0PU8pYyhbT0hdKW4oYzVbT0hdKS1jNltjSF1bY0hdW2NIXVtjSF1bY0hdNg==

>  <s_epik_cmdline>  (316) 
J2VwaWtfcHl0aG9uJywgJy1waHQnLCAnMi4wJywgJy1waCcsICc3LjAnLCAnLXRuJywgJzgnLCAnLW1hJywgJzIwMCcsICctaW1hZScsICc8aW5maWxlLm1hZT4nLCAnLW9tYWUnLCAnPG91dGZpbGUubWFlPic=

>  <r_lp_tautomer_probability>  (316) 
1

>  <r_epik_Ionization_Penalty>  (316) 
0.00497336

>  <r_epik_Ionization_Penalty_Charging>  (316) 
0

>  <r_epik_Ionization_Penalty_Neutral>  (316) 
0.00497336

>  <r_epik_State_Penalty>  (316) 
0.00361407

>  <r_epik_Charging_Adjusted_Penalty>  (316) 
0.00361407

>  <i_epik_Tot_Q>  (316) 
0

>  <i_epik_Tot_abs_Q>  (316) 
0

>  <s_lp_Force_Field>  (316) 
OPLS3e

>  <r_lp_Energy>  (316) 
54.7147

>  <b_lp_Chiralities_Consistent>  (316) 
1

>  <s_lp_Variant>  (316) 
91:0-1

>  <s_i_glide_gridfile>  (316) 
pfpi4k_grid

>  <i_i_glide_lignum>  (316) 
2

>  <i_i_glide_rotatable_bonds>  (316) 
3

>  <r_i_docking_score>  (316) 
-2.49039

>  <r_i_glide_ligand_efficiency>  (316) 
-0.0732468

>  <r_i_glide_ligand_efficiency_sa>  (316) 
-0.237291

>  <r_i_glide_ligand_efficiency_ln>  (316) 
-0.550197

>  <r_i_glide_gscore>  (316) 
-2.49039

>  <r_i_glide_lipo>  (316) 
-0.594597

>  <r_i_glide_hbond>  (316) 
0

>  <r_i_glide_metal>  (316) 
-0

>  <r_i_glide_rewards>  (316) 
-0.324846

>  <r_i_glide_evdw>  (316) 
-25.8558

>  <r_i_glide_ecoul>  (316) 
-3.12971

>  <r_i_glide_erotb>  (316) 
0.191348

>  <r_i_glide_esite>  (316) 
-4.89682e-05

>  <r_i_glide_emodel>  (316) 
-33.3449

>  <r_i_glide_energy>  (316) 
-28.9855

>  <r_i_glide_einternal>  (316) 
0.884595

>  <r_i_glide_intrahb_reward>  (316) 
-0

>  <i_i_glide_confnum>  (316) 
2

>  <i_i_glide_posenum>  (316) 
37

>  <r_i_glide_eff_state_penalty>  (316) 
0

>  <ligand_id>  (316) 
91

>  <original_smiles>  (316) 
CC(C)=CC12c3cccc(O)c3OC1C1(C)C(=O)NC2(C)c2c1c(O)n(-c1ccccc1)c2O

>  <smiles>  (316) 
[H]Oc1c([H])c([H])c([H])c2c1OC1([H])C2(C([H])=C(C([H])([H])[H])C([H])([H])[H])C2(C([H])([H])[H])N([H])C(=O)C1(C([H])([H])[H])C1([H])C(=O)N(c3c([H])c([H])c([H])c([H])c3[H])C(=O)C12[H]

$$$$
91:0:1
     RDKit          3D

 60 65  0  0  1  0  0  0  0  0999 V2000
    2.5548   -8.2864    6.8641 C   0  0  0  0  0  0  0  0  0  0  0  0
    2.3880   -7.3359    5.6872 C   0  0  0  0  0  0  0  0  0  0  0  0
    1.3022   -7.7824    4.7187 C   0  0  0  0  0  0  0  0  0  0  0  0
    3.1957   -6.2574    5.5781 C   0  0  0  0  0  0  0  0  0  0  0  0
    3.2509   -5.1323    4.5204 C   0  0  1  0  0  0  0  0  0  0  0  0
    3.6161   -5.7104    3.1774 C   0  0  0  0  0  0  0  0  0  0  0  0
    4.7656   -6.4355    2.7983 C   0  0  0  0  0  0  0  0  0  0  0  0
    4.8603   -6.9022    1.4736 C   0  0  0  0  0  0  0  0  0  0  0  0
    3.8202   -6.6506    0.5604 C   0  0  0  0  0  0  0  0  0  0  0  0
    2.6614   -5.9435    0.9524 C   0  0  0  0  0  0  0  0  0  0  0  0
    1.6624   -5.6676    0.0657 O   0  0  0  0  0  0  0  0  0  0  0  0
    2.5770   -5.4943    2.2815 C   0  0  0  0  0  0  0  0  0  0  0  0
    1.5236   -4.7891    2.8335 O   0  0  0  0  0  0  0  0  0  0  0  0
    1.8364   -4.5251    4.2166 C   0  0  2  0  0  0  0  0  0  0  0  0
    1.7089   -3.0194    4.6027 C   0  0  1  0  0  0  0  0  0  0  0  0
    0.2503   -2.5407    4.4679 C   0  0  0  0  0  0  0  0  0  0  0  0
    2.1887   -2.9748    6.0770 C   0  0  0  0  0  0  0  0  0  0  0  0
    1.4759   -2.5772    6.9745 O   0  0  0  0  0  0  0  0  0  0  0  0
    3.4492   -3.4190    6.2360 N   0  0  0  0  0  0  0  0  0  0  0  0
    4.1545   -3.9150    5.0336 C   0  0  1  0  0  0  0  0  0  0  0  0
    5.5966   -4.2875    5.4261 C   0  0  0  0  0  0  0  0  0  0  0  0
    4.1531   -2.6448    4.0751 C   0  0  2  0  0  0  0  0  0  0  0  0
    2.7393   -2.1272    3.8351 C   0  0  1  0  0  0  0  0  0  0  0  0
    2.6556   -2.0599    2.3043 C   0  0  0  0  0  0  0  0  0  0  0  0
    1.6364   -1.7369    1.7137 O   0  0  0  0  0  0  0  0  0  0  0  0
    3.8237   -2.4016    1.7264 N   0  0  0  0  0  0  0  0  0  0  0  0
    4.1169   -2.3283    0.3307 C   0  0  0  0  0  0  0  0  0  0  0  0
    3.9149   -1.1299   -0.3813 C   0  0  0  0  0  0  0  0  0  0  0  0
    4.2102   -1.0569   -1.7601 C   0  0  0  0  0  0  0  0  0  0  0  0
    4.7021   -2.1899   -2.4395 C   0  0  0  0  0  0  0  0  0  0  0  0
    4.9261   -3.3847   -1.7311 C   0  0  0  0  0  0  0  0  0  0  0  0
    4.6559   -3.4381   -0.3526 C   0  0  0  0  0  0  0  0  0  0  0  0
    4.7062   -2.7904    2.6527 C   0  0  0  0  0  0  0  0  0  0  0  0
    5.8327   -3.2018    2.4181 O   0  0  0  0  0  0  0  0  0  0  0  0
    2.7729   -9.2929    6.5035 H   0  0  0  0  0  0  0  0  0  0  0  0
    1.6388   -8.3417    7.4509 H   0  0  0  0  0  0  0  0  0  0  0  0
    3.3637   -7.9957    7.5379 H   0  0  0  0  0  0  0  0  0  0  0  0
    0.4415   -8.1297    5.2885 H   0  0  0  0  0  0  0  0  0  0  0  0
    1.6708   -8.6161    4.1207 H   0  0  0  0  0  0  0  0  0  0  0  0
    0.9407   -7.0403    4.0093 H   0  0  0  0  0  0  0  0  0  0  0  0
    3.9125   -6.1555    6.3731 H   0  0  0  0  0  0  0  0  0  0  0  0
    5.5720   -6.6373    3.5033 H   0  0  0  0  0  0  0  0  0  0  0  0
    5.7359   -7.4538    1.1348 H   0  0  0  0  0  0  0  0  0  0  0  0
    3.9323   -6.9860   -0.4661 H   0  0  0  0  0  0  0  0  0  0  0  0
    1.9776   -5.7390   -0.8338 H   0  0  0  0  0  0  0  0  0  0  0  0
    1.0573   -4.9785    4.8321 H   0  0  0  0  0  0  0  0  0  0  0  0
   -0.1211   -2.6536    3.4454 H   0  0  0  0  0  0  0  0  0  0  0  0
    0.1500   -1.4907    4.7312 H   0  0  0  0  0  0  0  0  0  0  0  0
   -0.4220   -3.1092    5.1092 H   0  0  0  0  0  0  0  0  0  0  0  0
    3.9004   -3.4181    7.1341 H   0  0  0  0  0  0  0  0  0  0  0  0
    6.1535   -4.7058    4.5837 H   0  0  0  0  0  0  0  0  0  0  0  0
    5.6627   -5.0085    6.2433 H   0  0  0  0  0  0  0  0  0  0  0  0
    6.1520   -3.4086    5.7636 H   0  0  0  0  0  0  0  0  0  0  0  0
    2.6349   -1.0996    4.1937 H   0  0  0  0  0  0  0  0  0  0  0  0
    3.5202   -0.2611    0.1367 H   0  0  0  0  0  0  0  0  0  0  0  0
    4.0288   -0.1370   -2.3133 H   0  0  0  0  0  0  0  0  0  0  0  0
    4.9050   -2.1416   -3.5101 H   0  0  0  0  0  0  0  0  0  0  0  0
    5.3004   -4.2665   -2.2434 H   0  0  0  0  0  0  0  0  0  0  0  0
    4.8677   -4.3412    0.1946 H   0  0  0  0  0  0  0  0  0  0  0  0
    4.7440   -1.8615    4.5667 H   0  0  0  0  0  0  0  0  0  0  0  0
  1  2  1  0
  1 35  1  0
  1 36  1  0
  1 37  1  0
  2  3  1  0
  2  4  2  3
  3 38  1  0
  3 39  1  0
  3 40  1  0
  5  4  1  1
  4 41  1  0
  5 14  1  0
  5 20  1  0
  5  6  1  0
  6 12  2  0
  6  7  1  0
  7  8  2  0
  7 42  1  0
  8  9  1  0
  8 43  1  0
  9 10  2  0
  9 44  1  0
 10 11  1  0
 10 12  1  0
 11 45  1  0
 12 13  1  0
 13 14  1  0
 14 15  1  0
 14 46  1  1
 15 16  1  1
 15 17  1  0
 15 23  1  0
 16 47  1  0
 16 48  1  0
 16 49  1  0
 17 18  2  0
 17 19  1  0
 19 20  1  0
 19 50  1  0
 20 21  1  1
 20 22  1  0
 21 51  1  0
 21 52  1  0
 21 53  1  0
 22 23  1  0
 22 60  1  1
 22 33  1  0
 23 24  1  0
 23 54  1  1
 24 25  2  0
 24 26  1  0
 26 33  1  0
 26 27  1  0
 27 32  1  0
 27 28  2  0
 28 29  1  0
 28 55  1  0
 29 30  2  0
 29 56  1  0
 30 31  1  0
 30 57  1  0
 31 32  2  0
 31 58  1  0
 32 59  1  0
 33 34  2  0
M  END
>  <i_m_ct_stereo_status>  (317) 
1

>  <s_m_source_file>  (317) 
/var/tmp/pbs.5076255.sched01/tmp0i_w_vt9/132llf9lao3.sdf

>  <i_m_source_file_index>  (317) 
2

>  <i_lp_mmshare_version>  (317) 
48012

>  <i_f3d_flags>  (317) 
0

>  <s_epik_input>  (317) 
W0NIM11DKFtDSDNdKT1bQ0hdW0NAQF0xMmMzYyhjKFtPSF0pW2NIXVtjSF1bY0hdMylPW0NAQEhdMVtDQF00KFtDSDNdKWM1YyhbQ0BAXTIoW0NIM10pW05IXUM0PU8pYyhbT0hdKW4oYzVbT0hdKS1jNltjSF1bY0hdW2NIXVtjSF1bY0hdNg==

>  <s_epik_cmdline>  (317) 
J2VwaWtfcHl0aG9uJywgJy1waHQnLCAnMi4wJywgJy1waCcsICc3LjAnLCAnLXRuJywgJzgnLCAnLW1hJywgJzIwMCcsICctaW1hZScsICc8aW5maWxlLm1hZT4nLCAnLW9tYWUnLCAnPG91dGZpbGUubWFlPic=

>  <r_lp_tautomer_probability>  (317) 
1

>  <r_epik_Ionization_Penalty>  (317) 
0.00497336

>  <r_epik_Ionization_Penalty_Charging>  (317) 
0

>  <r_epik_Ionization_Penalty_Neutral>  (317) 
0.00497336

>  <r_epik_State_Penalty>  (317) 
0.00361407

>  <r_epik_Charging_Adjusted_Penalty>  (317) 
0.00361407

>  <i_epik_Tot_Q>  (317) 
0

>  <i_epik_Tot_abs_Q>  (317) 
0

>  <s_lp_Force_Field>  (317) 
OPLS3e

>  <r_lp_Energy>  (317) 
54.7147

>  <b_lp_Chiralities_Consistent>  (317) 
1

>  <s_lp_Variant>  (317) 
91:0-1

>  <s_i_glide_gridfile>  (317) 
pfpi4k_grid

>  <i_i_glide_lignum>  (317) 
2

>  <i_i_glide_rotatable_bonds>  (317) 
3

>  <r_i_docking_score>  (317) 
-2.17202

>  <r_i_glide_ligand_efficiency>  (317) 
-0.063883

>  <r_i_glide_ligand_efficiency_sa>  (317) 
-0.206956

>  <r_i_glide_ligand_efficiency_ln>  (317) 
-0.47986

>  <r_i_glide_gscore>  (317) 
-2.17202

>  <r_i_glide_lipo>  (317) 
-0.425696

>  <r_i_glide_hbond>  (317) 
0

>  <r_i_glide_metal>  (317) 
-0

>  <r_i_glide_rewards>  (317) 
-0.330025

>  <r_i_glide_evdw>  (317) 
-24.696

>  <r_i_glide_ecoul>  (317) 
-2.40076

>  <r_i_glide_erotb>  (317) 
0.191348

>  <r_i_glide_esite>  (317) 
-0.0127323

>  <r_i_glide_emodel>  (317) 
-30.0759

>  <r_i_glide_energy>  (317) 
-27.0968

>  <r_i_glide_einternal>  (317) 
1.11288

>  <r_i_glide_intrahb_reward>  (317) 
-0

>  <i_i_glide_confnum>  (317) 
2

>  <i_i_glide_posenum>  (317) 
19

>  <r_i_glide_eff_state_penalty>  (317) 
0

>  <ligand_id>  (317) 
91

>  <original_smiles>  (317) 
CC(C)=CC12c3cccc(O)c3OC1C1(C)C(=O)NC2(C)c2c1c(O)n(-c1ccccc1)c2O

>  <smiles>  (317) 
[H]Oc1c([H])c([H])c([H])c2c1OC1([H])C2(C([H])=C(C([H])([H])[H])C([H])([H])[H])C2(C([H])([H])[H])N([H])C(=O)C1(C([H])([H])[H])C1([H])C(=O)N(c3c([H])c([H])c([H])c([H])c3[H])C(=O)C12[H]

$$$$
91:0:2
     RDKit          3D

 60 65  0  0  1  0  0  0  0  0999 V2000
    0.9088   -1.3648   11.1550 C   0  0  0  0  0  0  0  0  0  0  0  0
    1.0779   -1.5337    9.6511 C   0  0  0  0  0  0  0  0  0  0  0  0
    0.9589   -2.9820    9.1980 C   0  0  0  0  0  0  0  0  0  0  0  0
    1.3365   -0.4532    8.8774 C   0  0  0  0  0  0  0  0  0  0  0  0
    1.5520   -0.3105    7.3541 C   0  0  1  0  0  0  0  0  0  0  0  0
    2.8152   -1.0214    6.9376 C   0  0  0  0  0  0  0  0  0  0  0  0
    4.1469   -0.8065    7.3564 C   0  0  0  0  0  0  0  0  0  0  0  0
    5.1640   -1.6392    6.8333 C   0  0  0  0  0  0  0  0  0  0  0  0
    4.8449   -2.6675    5.9180 C   0  0  0  0  0  0  0  0  0  0  0  0
    3.5069   -2.8714    5.5185 C   0  0  0  0  0  0  0  0  0  0  0  0
    3.1834   -3.8462    4.6262 O   0  0  0  0  0  0  0  0  0  0  0  0
    2.5065   -2.0409    6.0519 C   0  0  0  0  0  0  0  0  0  0  0  0
    1.1702   -2.1309    5.7716 O   0  0  0  0  0  0  0  0  0  0  0  0
    0.4763   -1.1241    6.5291 C   0  0  2  0  0  0  0  0  0  0  0  0
   -0.4359   -0.2142    5.6492 C   0  0  1  0  0  0  0  0  0  0  0  0
   -1.5928   -1.0338    5.0310 C   0  0  0  0  0  0  0  0  0  0  0  0
   -0.9746    0.8456    6.6435 C   0  0  0  0  0  0  0  0  0  0  0  0
   -2.1724    0.9736    6.8924 O   0  0  0  0  0  0  0  0  0  0  0  0
    0.0075    1.5699    7.2233 N   0  0  0  0  0  0  0  0  0  0  0  0
    1.4050    1.2156    6.8928 C   0  0  1  0  0  0  0  0  0  0  0  0
    2.3643    2.2037    7.6116 C   0  0  0  0  0  0  0  0  0  0  0  0
    1.4646    1.4497    5.3317 C   0  0  2  0  0  0  0  0  0  0  0  0
    0.3823    0.6161    4.6044 C   0  0  1  0  0  0  0  0  0  0  0  0
    1.1966   -0.1402    3.5518 C   0  0  0  0  0  0  0  0  0  0  0  0
    0.6936   -0.9987    2.8286 O   0  0  0  0  0  0  0  0  0  0  0  0
    2.4921    0.2345    3.5705 N   0  0  0  0  0  0  0  0  0  0  0  0
    3.4665   -0.2174    2.6281 C   0  0  0  0  0  0  0  0  0  0  0  0
    3.1746   -0.2485    1.2455 C   0  0  0  0  0  0  0  0  0  0  0  0
    4.1375   -0.6789    0.3138 C   0  0  0  0  0  0  0  0  0  0  0  0
    5.4098   -1.0861    0.7556 C   0  0  0  0  0  0  0  0  0  0  0  0
    5.7095   -1.0578    2.1289 C   0  0  0  0  0  0  0  0  0  0  0  0
    4.7490   -0.6269    3.0576 C   0  0  0  0  0  0  0  0  0  0  0  0
    2.7426    1.1082    4.5624 C   0  0  0  0  0  0  0  0  0  0  0  0
    3.8293    1.6266    4.8387 O   0  0  0  0  0  0  0  0  0  0  0  0
    1.6462   -1.9685   11.6834 H   0  0  0  0  0  0  0  0  0  0  0  0
   -0.0817   -1.6927   11.4764 H   0  0  0  0  0  0  0  0  0  0  0  0
    1.0329   -0.3317   11.4875 H   0  0  0  0  0  0  0  0  0  0  0  0
    0.1368   -3.4560    9.7361 H   0  0  0  0  0  0  0  0  0  0  0  0
    1.8724   -3.5131    9.4599 H   0  0  0  0  0  0  0  0  0  0  0  0
    0.7911   -3.1398    8.1384 H   0  0  0  0  0  0  0  0  0  0  0  0
    1.3935    0.4752    9.4197 H   0  0  0  0  0  0  0  0  0  0  0  0
    4.3937   -0.0334    8.0652 H   0  0  0  0  0  0  0  0  0  0  0  0
    6.1924   -1.4939    7.1312 H   0  0  0  0  0  0  0  0  0  0  0  0
    5.6259   -3.2925    5.5134 H   0  0  0  0  0  0  0  0  0  0  0  0
    2.2602   -3.8401    4.4299 H   0  0  0  0  0  0  0  0  0  0  0  0
   -0.2330   -1.6179    7.1919 H   0  0  0  0  0  0  0  0  0  0  0  0
   -1.2248   -1.8483    4.4086 H   0  0  0  0  0  0  0  0  0  0  0  0
   -2.2388   -0.4031    4.4189 H   0  0  0  0  0  0  0  0  0  0  0  0
   -2.2236   -1.4897    5.7966 H   0  0  0  0  0  0  0  0  0  0  0  0
   -0.1892    2.3103    7.8806 H   0  0  0  0  0  0  0  0  0  0  0  0
    3.4109    1.9520    7.4318 H   0  0  0  0  0  0  0  0  0  0  0  0
    2.2181    2.2451    8.6905 H   0  0  0  0  0  0  0  0  0  0  0  0
    2.2112    3.2204    7.2443 H   0  0  0  0  0  0  0  0  0  0  0  0
   -0.3009    1.2733    4.0606 H   0  0  0  0  0  0  0  0  0  0  0  0
    2.2074    0.0667    0.8830 H   0  0  0  0  0  0  0  0  0  0  0  0
    3.8944   -0.6967   -0.7382 H   0  0  0  0  0  0  0  0  0  0  0  0
    6.1510   -1.4204    0.0486 H   0  0  0  0  0  0  0  0  0  0  0  0
    6.6768   -1.3693    2.4779 H   0  0  0  0  0  0  0  0  0  0  0  0
    5.0018   -0.6027    4.1033 H   0  0  0  0  0  0  0  0  0  0  0  0
    1.2652    2.5038    5.1305 H   0  0  0  0  0  0  0  0  0  0  0  0
  1  2  1  0
  1 35  1  0
  1 36  1  0
  1 37  1  0
  2  3  1  0
  2  4  2  3
  3 38  1  0
  3 39  1  0
  3 40  1  0
  5  4  1  1
  4 41  1  0
  5 14  1  0
  5 20  1  0
  5  6  1  0
  6 12  2  0
  6  7  1  0
  7  8  2  0
  7 42  1  0
  8  9  1  0
  8 43  1  0
  9 10  2  0
  9 44  1  0
 10 11  1  0
 10 12  1  0
 11 45  1  0
 12 13  1  0
 13 14  1  0
 14 15  1  0
 14 46  1  1
 15 16  1  6
 15 17  1  0
 15 23  1  0
 16 47  1  0
 16 48  1  0
 16 49  1  0
 17 18  2  0
 17 19  1  0
 19 20  1  0
 19 50  1  0
 20 21  1  1
 20 22  1  0
 21 51  1  0
 21 52  1  0
 21 53  1  0
 22 23  1  0
 22 60  1  1
 22 33  1  0
 23 24  1  0
 23 54  1  6
 24 25  2  0
 24 26  1  0
 26 33  1  0
 26 27  1  0
 27 32  1  0
 27 28  2  0
 28 29  1  0
 28 55  1  0
 29 30  2  0
 29 56  1  0
 30 31  1  0
 30 57  1  0
 31 32  2  0
 31 58  1  0
 32 59  1  0
 33 34  2  0
M  END
>  <i_m_ct_stereo_status>  (318) 
1

>  <s_m_source_file>  (318) 
/var/tmp/pbs.5076255.sched01/tmp0i_w_vt9/132llf9lao3.sdf

>  <i_m_source_file_index>  (318) 
2

>  <i_lp_mmshare_version>  (318) 
48012

>  <i_f3d_flags>  (318) 
0

>  <s_epik_input>  (318) 
W0NIM11DKFtDSDNdKT1bQ0hdW0NAQF0xMmMzYyhjKFtPSF0pW2NIXVtjSF1bY0hdMylPW0NAQEhdMVtDQF00KFtDSDNdKWM1YyhbQ0BAXTIoW0NIM10pW05IXUM0PU8pYyhbT0hdKW4oYzVbT0hdKS1jNltjSF1bY0hdW2NIXVtjSF1bY0hdNg==

>  <s_epik_cmdline>  (318) 
J2VwaWtfcHl0aG9uJywgJy1waHQnLCAnMi4wJywgJy1waCcsICc3LjAnLCAnLXRuJywgJzgnLCAnLW1hJywgJzIwMCcsICctaW1hZScsICc8aW5maWxlLm1hZT4nLCAnLW9tYWUnLCAnPG91dGZpbGUubWFlPic=

>  <r_lp_tautomer_probability>  (318) 
1

>  <r_epik_Ionization_Penalty>  (318) 
0.00497336

>  <r_epik_Ionization_Penalty_Charging>  (318) 
0

>  <r_epik_Ionization_Penalty_Neutral>  (318) 
0.00497336

>  <r_epik_State_Penalty>  (318) 
0.00361407

>  <r_epik_Charging_Adjusted_Penalty>  (318) 
0.00361407

>  <i_epik_Tot_Q>  (318) 
0

>  <i_epik_Tot_abs_Q>  (318) 
0

>  <s_lp_Force_Field>  (318) 
OPLS3e

>  <r_lp_Energy>  (318) 
54.7147

>  <b_lp_Chiralities_Consistent>  (318) 
1

>  <s_lp_Variant>  (318) 
91:0-1

>  <s_i_glide_gridfile>  (318) 
pfpi4k_grid

>  <i_i_glide_lignum>  (318) 
2

>  <i_i_glide_rotatable_bonds>  (318) 
3

>  <r_i_docking_score>  (318) 
-2.01155

>  <r_i_glide_ligand_efficiency>  (318) 
-0.0591633

>  <r_i_glide_ligand_efficiency_sa>  (318) 
-0.191666

>  <r_i_glide_ligand_efficiency_ln>  (318) 
-0.444408

>  <r_i_glide_gscore>  (318) 
-2.01155

>  <r_i_glide_lipo>  (318) 
-0.400003

>  <r_i_glide_hbond>  (318) 
-0.16

>  <r_i_glide_metal>  (318) 
-0

>  <r_i_glide_rewards>  (318) 
-0.282915

>  <r_i_glide_evdw>  (318) 
-24.1031

>  <r_i_glide_ecoul>  (318) 
-0.606998

>  <r_i_glide_erotb>  (318) 
0.191348

>  <r_i_glide_esite>  (318) 
-0.0637742

>  <r_i_glide_emodel>  (318) 
-27.692

>  <r_i_glide_energy>  (318) 
-24.7101

>  <r_i_glide_einternal>  (318) 
0.660938

>  <r_i_glide_intrahb_reward>  (318) 
-0

>  <i_i_glide_confnum>  (318) 
2

>  <i_i_glide_posenum>  (318) 
2

>  <r_i_glide_eff_state_penalty>  (318) 
0

>  <ligand_id>  (318) 
91

>  <original_smiles>  (318) 
CC(C)=CC12c3cccc(O)c3OC1C1(C)C(=O)NC2(C)c2c1c(O)n(-c1ccccc1)c2O

>  <smiles>  (318) 
[H]Oc1c([H])c([H])c([H])c2c1OC1([H])C2(C([H])=C(C([H])([H])[H])C([H])([H])[H])C2(C([H])([H])[H])N([H])C(=O)C1(C([H])([H])[H])C1([H])C(=O)N(c3c([H])c([H])c([H])c([H])c3[H])C(=O)C12[H]

$$$$
91:1:0
     RDKit          3D

 60 65  0  0  1  0  0  0  0  0999 V2000
   -2.5400    2.9556    4.7018 C   0  0  0  0  0  0  0  0  0  0  0  0
   -1.0348    2.9477    4.8857 C   0  0  0  0  0  0  0  0  0  0  0  0
   -0.5301    4.0850    5.7549 C   0  0  0  0  0  0  0  0  0  0  0  0
   -0.2744    2.0027    4.2876 C   0  0  0  0  0  0  0  0  0  0  0  0
    1.2526    1.7897    4.2869 C   0  0  1  0  0  0  0  0  0  0  0  0
    2.0504    3.0708    4.3322 C   0  0  0  0  0  0  0  0  0  0  0  0
    2.0431    4.1602    3.4373 C   0  0  0  0  0  0  0  0  0  0  0  0
    2.8611    5.2742    3.7260 C   0  0  0  0  0  0  0  0  0  0  0  0
    3.6699    5.2872    4.8852 C   0  0  0  0  0  0  0  0  0  0  0  0
    3.6609    4.1892    5.7709 C   0  0  0  0  0  0  0  0  0  0  0  0
    4.4182    4.1880    6.9029 O   0  0  0  0  0  0  0  0  0  0  0  0
    2.8342    3.0935    5.4759 C   0  0  0  0  0  0  0  0  0  0  0  0
    2.6740    1.9890    6.2667 O   0  0  0  0  0  0  0  0  0  0  0  0
    1.7142    1.1143    5.6409 C   0  0  2  0  0  0  0  0  0  0  0  0
    2.3616   -0.2879    5.4015 C   0  0  1  0  0  0  0  0  0  0  0  0
    2.6524   -1.0091    6.7418 C   0  0  0  0  0  0  0  0  0  0  0  0
    1.3403   -1.0818    4.5420 C   0  0  0  0  0  0  0  0  0  0  0  0
    0.8385   -2.1426    4.8992 O   0  0  0  0  0  0  0  0  0  0  0  0
    1.0683   -0.4828    3.3712 N   0  0  0  0  0  0  0  0  0  0  0  0
    1.6917    0.8266    3.1012 C   0  0  1  0  0  0  0  0  0  0  0  0
    1.2281    1.3234    1.7101 C   0  0  0  0  0  0  0  0  0  0  0  0
    3.2534    0.6267    3.1795 C   0  0  1  0  0  0  0  0  0  0  0  0
    3.6422   -0.0240    4.5312 C   0  0  2  0  0  0  0  0  0  0  0  0
    4.4403   -1.2570    4.1038 C   0  0  0  0  0  0  0  0  0  0  0  0
    4.9763   -2.0139    4.9146 O   0  0  0  0  0  0  0  0  0  0  0  0
    4.5133   -1.3476    2.7678 N   0  0  0  0  0  0  0  0  0  0  0  0
    5.2033   -2.3832    2.0777 C   0  0  0  0  0  0  0  0  0  0  0  0
    6.2135   -2.0688    1.1396 C   0  0  0  0  0  0  0  0  0  0  0  0
    6.8938   -3.0962    0.4581 C   0  0  0  0  0  0  0  0  0  0  0  0
    6.5700   -4.4440    0.7135 C   0  0  0  0  0  0  0  0  0  0  0  0
    5.5671   -4.7637    1.6500 C   0  0  0  0  0  0  0  0  0  0  0  0
    4.8867   -3.7370    2.3297 C   0  0  0  0  0  0  0  0  0  0  0  0
    3.8730   -0.3368    2.1578 C   0  0  0  0  0  0  0  0  0  0  0  0
    3.8054   -0.1556    0.9422 O   0  0  0  0  0  0  0  0  0  0  0  0
   -3.0412    2.8832    5.6671 H   0  0  0  0  0  0  0  0  0  0  0  0
   -2.8862    2.1377    4.0707 H   0  0  0  0  0  0  0  0  0  0  0  0
   -2.8472    3.8835    4.2259 H   0  0  0  0  0  0  0  0  0  0  0  0
   -1.2245    4.2796    6.5712 H   0  0  0  0  0  0  0  0  0  0  0  0
   -0.4364    4.9965    5.1623 H   0  0  0  0  0  0  0  0  0  0  0  0
    0.4280    3.8677    6.2173 H   0  0  0  0  0  0  0  0  0  0  0  0
   -0.8171    1.2641    3.7151 H   0  0  0  0  0  0  0  0  0  0  0  0
    1.4154    4.1614    2.5580 H   0  0  0  0  0  0  0  0  0  0  0  0
    2.8615    6.1255    3.0613 H   0  0  0  0  0  0  0  0  0  0  0  0
    4.2934    6.1408    5.0993 H   0  0  0  0  0  0  0  0  0  0  0  0
    4.2894    3.3944    7.4016 H   0  0  0  0  0  0  0  0  0  0  0  0
    0.8723    1.0147    6.3288 H   0  0  0  0  0  0  0  0  0  0  0  0
    3.4159   -0.4909    7.3254 H   0  0  0  0  0  0  0  0  0  0  0  0
    2.9966   -2.0338    6.5939 H   0  0  0  0  0  0  0  0  0  0  0  0
    1.7555   -1.0715    7.3594 H   0  0  0  0  0  0  0  0  0  0  0  0
    0.4271   -0.8906    2.7062 H   0  0  0  0  0  0  0  0  0  0  0  0
    1.8063    2.1912    1.3956 H   0  0  0  0  0  0  0  0  0  0  0  0
    0.1769    1.6063    1.6858 H   0  0  0  0  0  0  0  0  0  0  0  0
    1.3556    0.5565    0.9439 H   0  0  0  0  0  0  0  0  0  0  0  0
    4.3418    0.6175    5.0695 H   0  0  0  0  0  0  0  0  0  0  0  0
    6.4698   -1.0377    0.9452 H   0  0  0  0  0  0  0  0  0  0  0  0
    7.6629   -2.8488   -0.2590 H   0  0  0  0  0  0  0  0  0  0  0  0
    7.0892   -5.2348    0.1929 H   0  0  0  0  0  0  0  0  0  0  0  0
    5.3147   -5.7948    1.8513 H   0  0  0  0  0  0  0  0  0  0  0  0
    4.1191   -3.9887    3.0464 H   0  0  0  0  0  0  0  0  0  0  0  0
    3.7692    1.5795    3.0579 H   0  0  0  0  0  0  0  0  0  0  0  0
  1  2  1  0
  1 35  1  0
  1 36  1  0
  1 37  1  0
  2  3  1  0
  2  4  2  3
  3 38  1  0
  3 39  1  0
  3 40  1  0
  5  4  1  1
  4 41  1  0
  5 14  1  0
  5 20  1  0
  5  6  1  0
  6 12  2  0
  6  7  1  0
  7  8  2  0
  7 42  1  0
  8  9  1  0
  8 43  1  0
  9 10  2  0
  9 44  1  0
 10 11  1  0
 10 12  1  0
 11 45  1  0
 12 13  1  0
 13 14  1  0
 14 15  1  0
 14 46  1  1
 15 16  1  1
 15 17  1  0
 15 23  1  0
 16 47  1  0
 16 48  1  0
 16 49  1  0
 17 18  2  0
 17 19  1  0
 19 20  1  0
 19 50  1  0
 20 21  1  6
 20 22  1  0
 21 51  1  0
 21 52  1  0
 21 53  1  0
 22 23  1  0
 22 60  1  1
 22 33  1  0
 23 24  1  0
 23 54  1  1
 24 25  2  0
 24 26  1  0
 26 33  1  0
 26 27  1  0
 27 32  1  0
 27 28  2  0
 28 29  1  0
 28 55  1  0
 29 30  2  0
 29 56  1  0
 30 31  1  0
 30 57  1  0
 31 32  2  0
 31 58  1  0
 32 59  1  0
 33 34  2  0
M  END
>  <i_m_ct_stereo_status>  (319) 
1

>  <s_m_source_file>  (319) 
/var/tmp/pbs.5076255.sched01/tmp0i_w_vt9/132llf9lao3.sdf

>  <i_m_source_file_index>  (319) 
3

>  <i_lp_mmshare_version>  (319) 
48012

>  <i_f3d_flags>  (319) 
0

>  <s_epik_input>  (319) 
W0NIM11DKFtDSDNdKT1bQ0hdW0NAQF0xMmMzYyhjKFtPSF0pW2NIXVtjSF1bY0hdMylPW0NAQEhdMVtDQF00KFtDSDNdKWM1YyhbQ0BAXTIoW0NIM10pW05IXUM0PU8pYyhbT0hdKW4oYzVbT0hdKS1jNltjSF1bY0hdW2NIXVtjSF1bY0hdNg==

>  <s_epik_cmdline>  (319) 
J2VwaWtfcHl0aG9uJywgJy1waHQnLCAnMi4wJywgJy1waCcsICc3LjAnLCAnLXRuJywgJzgnLCAnLW1hJywgJzIwMCcsICctaW1hZScsICc8aW5maWxlLm1hZT4nLCAnLW9tYWUnLCAnPG91dGZpbGUubWFlPic=

>  <r_lp_tautomer_probability>  (319) 
1

>  <r_epik_Ionization_Penalty>  (319) 
0.00497336

>  <r_epik_Ionization_Penalty_Charging>  (319) 
0

>  <r_epik_Ionization_Penalty_Neutral>  (319) 
0.00497336

>  <r_epik_State_Penalty>  (319) 
0.00361407

>  <r_epik_Charging_Adjusted_Penalty>  (319) 
0.00361407

>  <i_epik_Tot_Q>  (319) 
0

>  <i_epik_Tot_abs_Q>  (319) 
0

>  <s_lp_Force_Field>  (319) 
OPLS3e

>  <r_lp_Energy>  (319) 
55.3268

>  <b_lp_Chiralities_Consistent>  (319) 
1

>  <s_lp_Variant>  (319) 
91:0-2

>  <s_i_glide_gridfile>  (319) 
pfpi4k_grid

>  <i_i_glide_lignum>  (319) 
3

>  <i_i_glide_rotatable_bonds>  (319) 
3

>  <r_i_docking_score>  (319) 
-2.54484

>  <r_i_glide_ligand_efficiency>  (319) 
-0.0748484

>  <r_i_glide_ligand_efficiency_sa>  (319) 
-0.24248

>  <r_i_glide_ligand_efficiency_ln>  (319) 
-0.562228

>  <r_i_glide_gscore>  (319) 
-2.54484

>  <r_i_glide_lipo>  (319) 
-0.521009

>  <r_i_glide_hbond>  (319) 
0

>  <r_i_glide_metal>  (319) 
-0

>  <r_i_glide_rewards>  (319) 
-0.426529

>  <r_i_glide_evdw>  (319) 
-29.5478

>  <r_i_glide_ecoul>  (319) 
-1.99502

>  <r_i_glide_erotb>  (319) 
0.191348

>  <r_i_glide_esite>  (319) 
-0.012011

>  <r_i_glide_emodel>  (319) 
-36.0472

>  <r_i_glide_energy>  (319) 
-31.5428

>  <r_i_glide_einternal>  (319) 
1.38471

>  <r_i_glide_intrahb_reward>  (319) 
-0

>  <i_i_glide_confnum>  (319) 
2

>  <i_i_glide_posenum>  (319) 
19

>  <r_i_glide_eff_state_penalty>  (319) 
0

>  <ligand_id>  (319) 
91

>  <original_smiles>  (319) 
CC(C)=CC12c3cccc(O)c3OC1C1(C)C(=O)NC2(C)c2c1c(O)n(-c1ccccc1)c2O

>  <smiles>  (319) 
[H]Oc1c([H])c([H])c([H])c2c1OC1([H])C2(C([H])=C(C([H])([H])[H])C([H])([H])[H])C2(C([H])([H])[H])N([H])C(=O)C1(C([H])([H])[H])C1([H])C(=O)N(c3c([H])c([H])c([H])c([H])c3[H])C(=O)C12[H]

$$$$
91:1:1
     RDKit          3D

 60 65  0  0  1  0  0  0  0  0999 V2000
    0.2360   -9.4656    7.6750 C   0  0  0  0  0  0  0  0  0  0  0  0
    0.8722   -8.9883    6.3881 C   0  0  0  0  0  0  0  0  0  0  0  0
   -0.1501   -8.6994    5.2897 C   0  0  0  0  0  0  0  0  0  0  0  0
    2.2255   -8.8477    6.2856 C   0  0  0  0  0  0  0  0  0  0  0  0
    3.1406   -8.3584    5.1266 C   0  0  1  0  0  0  0  0  0  0  0  0
    4.4433   -9.1334    5.0834 C   0  0  0  0  0  0  0  0  0  0  0  0
    5.4660   -9.2390    6.0554 C   0  0  0  0  0  0  0  0  0  0  0  0
    6.6180  -10.0132    5.7568 C   0  0  0  0  0  0  0  0  0  0  0  0
    6.7395  -10.6685    4.5136 C   0  0  0  0  0  0  0  0  0  0  0  0
    5.6997  -10.5695    3.5604 C   0  0  0  0  0  0  0  0  0  0  0  0
    5.8129  -11.2101    2.3608 O   0  0  0  0  0  0  0  0  0  0  0  0
    4.5649   -9.7914    3.8721 C   0  0  0  0  0  0  0  0  0  0  0  0
    3.5156   -9.5894    3.0361 O   0  0  0  0  0  0  0  0  0  0  0  0
    2.5682   -8.7535    3.7108 C   0  0  2  0  0  0  0  0  0  0  0  0
    2.2712   -7.5013    2.8229 C   0  0  1  0  0  0  0  0  0  0  0  0
    1.4775   -7.9064    1.5513 C   0  0  0  0  0  0  0  0  0  0  0  0
    1.4800   -6.4445    3.6355 C   0  0  0  0  0  0  0  0  0  0  0  0
    0.3767   -5.9659    3.2885 O   0  0  0  0  0  0  0  0  0  0  0  0
    2.0464   -6.1807    4.8406 N   0  0  0  0  0  0  0  0  0  0  0  0
    3.3593   -6.7735    5.1163 C   0  0  1  0  0  0  0  0  0  0  0  0
    3.8795   -6.2428    6.4834 C   0  0  0  0  0  0  0  0  0  0  0  0
    4.3258   -6.3936    3.9033 C   0  0  1  0  0  0  0  0  0  0  0  0
    3.6713   -6.8334    2.5508 C   0  0  2  0  0  0  0  0  0  0  0  0
    3.6154   -5.5272    1.7483 C   0  0  0  0  0  0  0  0  0  0  0  0
    3.1476   -5.4557    0.6099 O   0  0  0  0  0  0  0  0  0  0  0  0
    4.1063   -4.5074    2.4706 N   0  0  0  0  0  0  0  0  0  0  0  0
    4.1818   -3.1737    1.9947 C   0  0  0  0  0  0  0  0  0  0  0  0
    3.0105   -2.4773    1.6356 C   0  0  0  0  0  0  0  0  0  0  0  0
    3.1062   -1.1596    1.1588 C   0  0  0  0  0  0  0  0  0  0  0  0
    4.3643   -0.5398    1.0319 C   0  0  0  0  0  0  0  0  0  0  0  0
    5.5337   -1.2379    1.3896 C   0  0  0  0  0  0  0  0  0  0  0  0
    5.4417   -2.5549    1.8688 C   0  0  0  0  0  0  0  0  0  0  0  0
    4.5357   -4.8880    3.6836 C   0  0  0  0  0  0  0  0  0  0  0  0
    5.0288   -4.1597    4.5473 O   0  0  0  0  0  0  0  0  0  0  0  0
   -0.4480   -8.6910    8.0639 H   0  0  0  0  0  0  0  0  0  0  0  0
    0.9715   -9.7648    8.4510 H   0  0  0  0  0  0  0  0  0  0  0  0
   -0.3674  -10.3435    7.4005 H   0  0  0  0  0  0  0  0  0  0  0  0
   -0.9764   -8.1441    5.7389 H   0  0  0  0  0  0  0  0  0  0  0  0
   -0.5314   -9.6216    4.8308 H   0  0  0  0  0  0  0  0  0  0  0  0
    0.1850   -8.0578    4.5684 H   0  0  0  0  0  0  0  0  0  0  0  0
    2.8255   -9.1174    7.1615 H   0  0  0  0  0  0  0  0  0  0  0  0
    5.3918   -8.7533    7.0088 H   0  0  0  0  0  0  0  0  0  0  0  0
    7.4130  -10.1138    6.4822 H   0  0  0  0  0  0  0  0  0  0  0  0
    7.6216  -11.2538    4.2915 H   0  0  0  0  0  0  0  0  0  0  0  0
    5.0059  -11.2811    1.8531 H   0  0  0  0  0  0  0  0  0  0  0  0
    1.6919   -9.3911    3.7822 H   0  0  0  0  0  0  0  0  0  0  0  0
    2.0766   -8.5378    0.9027 H   0  0  0  0  0  0  0  0  0  0  0  0
    1.1204   -7.0588    0.9658 H   0  0  0  0  0  0  0  0  0  0  0  0
    0.6000   -8.4898    1.8250 H   0  0  0  0  0  0  0  0  0  0  0  0
    1.5582   -5.6197    5.5405 H   0  0  0  0  0  0  0  0  0  0  0  0
    4.9252   -6.4909    6.6240 H   0  0  0  0  0  0  0  0  0  0  0  0
    3.3238   -6.6510    7.3259 H   0  0  0  0  0  0  0  0  0  0  0  0
    3.7894   -5.1606    6.5493 H   0  0  0  0  0  0  0  0  0  0  0  0
    4.3266   -7.5203    2.0059 H   0  0  0  0  0  0  0  0  0  0  0  0
    2.0432   -2.9517    1.7217 H   0  0  0  0  0  0  0  0  0  0  0  0
    2.2088   -0.6280    0.8789 H   0  0  0  0  0  0  0  0  0  0  0  0
    4.4282    0.4695    0.6584 H   0  0  0  0  0  0  0  0  0  0  0  0
    6.5018   -0.7688    1.3027 H   0  0  0  0  0  0  0  0  0  0  0  0
    6.3333   -3.0960    2.1407 H   0  0  0  0  0  0  0  0  0  0  0  0
    5.3063   -6.8560    4.0275 H   0  0  0  0  0  0  0  0  0  0  0  0
  1  2  1  0
  1 35  1  0
  1 36  1  0
  1 37  1  0
  2  3  1  0
  2  4  2  3
  3 38  1  0
  3 39  1  0
  3 40  1  0
  5  4  1  1
  4 41  1  0
  5 14  1  0
  5 20  1  0
  5  6  1  0
  6 12  2  0
  6  7  1  0
  7  8  2  0
  7 42  1  0
  8  9  1  0
  8 43  1  0
  9 10  2  0
  9 44  1  0
 10 11  1  0
 10 12  1  0
 11 45  1  0
 12 13  1  0
 13 14  1  0
 14 15  1  0
 14 46  1  1
 15 16  1  6
 15 17  1  0
 15 23  1  0
 16 47  1  0
 16 48  1  0
 16 49  1  0
 17 18  2  0
 17 19  1  0
 19 20  1  0
 19 50  1  0
 20 21  1  1
 20 22  1  0
 21 51  1  0
 21 52  1  0
 21 53  1  0
 22 23  1  0
 22 60  1  1
 22 33  1  0
 23 24  1  0
 23 54  1  6
 24 25  2  0
 24 26  1  0
 26 33  1  0
 26 27  1  0
 27 32  1  0
 27 28  2  0
 28 29  1  0
 28 55  1  0
 29 30  2  0
 29 56  1  0
 30 31  1  0
 30 57  1  0
 31 32  2  0
 31 58  1  0
 32 59  1  0
 33 34  2  0
M  END
>  <i_m_ct_stereo_status>  (320) 
1

>  <s_m_source_file>  (320) 
/var/tmp/pbs.5076255.sched01/tmp0i_w_vt9/132llf9lao3.sdf

>  <i_m_source_file_index>  (320) 
3

>  <i_lp_mmshare_version>  (320) 
48012

>  <i_f3d_flags>  (320) 
0

>  <s_epik_input>  (320) 
W0NIM11DKFtDSDNdKT1bQ0hdW0NAQF0xMmMzYyhjKFtPSF0pW2NIXVtjSF1bY0hdMylPW0NAQEhdMVtDQF00KFtDSDNdKWM1YyhbQ0BAXTIoW0NIM10pW05IXUM0PU8pYyhbT0hdKW4oYzVbT0hdKS1jNltjSF1bY0hdW2NIXVtjSF1bY0hdNg==

>  <s_epik_cmdline>  (320) 
J2VwaWtfcHl0aG9uJywgJy1waHQnLCAnMi4wJywgJy1waCcsICc3LjAnLCAnLXRuJywgJzgnLCAnLW1hJywgJzIwMCcsICctaW1hZScsICc8aW5maWxlLm1hZT4nLCAnLW9tYWUnLCAnPG91dGZpbGUubWFlPic=

>  <r_lp_tautomer_probability>  (320) 
1

>  <r_epik_Ionization_Penalty>  (320) 
0.00497336

>  <r_epik_Ionization_Penalty_Charging>  (320) 
0

>  <r_epik_Ionization_Penalty_Neutral>  (320) 
0.00497336

>  <r_epik_State_Penalty>  (320) 
0.00361407

>  <r_epik_Charging_Adjusted_Penalty>  (320) 
0.00361407

>  <i_epik_Tot_Q>  (320) 
0

>  <i_epik_Tot_abs_Q>  (320) 
0

>  <s_lp_Force_Field>  (320) 
OPLS3e

>  <r_lp_Energy>  (320) 
55.3268

>  <b_lp_Chiralities_Consistent>  (320) 
1

>  <s_lp_Variant>  (320) 
91:0-2

>  <s_i_glide_gridfile>  (320) 
pfpi4k_grid

>  <i_i_glide_lignum>  (320) 
3

>  <i_i_glide_rotatable_bonds>  (320) 
3

>  <r_i_docking_score>  (320) 
-2.30043

>  <r_i_glide_ligand_efficiency>  (320) 
-0.0676598

>  <r_i_glide_ligand_efficiency_sa>  (320) 
-0.219191

>  <r_i_glide_ligand_efficiency_ln>  (320) 
-0.50823

>  <r_i_glide_gscore>  (320) 
-2.30043

>  <r_i_glide_lipo>  (320) 
-0.308283

>  <r_i_glide_hbond>  (320) 
-0.0581052

>  <r_i_glide_metal>  (320) 
-0

>  <r_i_glide_rewards>  (320) 
-0.304218

>  <r_i_glide_evdw>  (320) 
-23.9867

>  <r_i_glide_ecoul>  (320) 
-4.06486

>  <r_i_glide_erotb>  (320) 
0.191348

>  <r_i_glide_esite>  (320) 
-0.0121083

>  <r_i_glide_emodel>  (320) 
-30.5019

>  <r_i_glide_energy>  (320) 
-28.0516

>  <r_i_glide_einternal>  (320) 
0.489994

>  <r_i_glide_intrahb_reward>  (320) 
-0

>  <i_i_glide_confnum>  (320) 
1

>  <i_i_glide_posenum>  (320) 
11

>  <r_i_glide_eff_state_penalty>  (320) 
0

>  <ligand_id>  (320) 
91

>  <original_smiles>  (320) 
CC(C)=CC12c3cccc(O)c3OC1C1(C)C(=O)NC2(C)c2c1c(O)n(-c1ccccc1)c2O

>  <smiles>  (320) 
[H]Oc1c([H])c([H])c([H])c2c1OC1([H])C2(C([H])=C(C([H])([H])[H])C([H])([H])[H])C2(C([H])([H])[H])N([H])C(=O)C1(C([H])([H])[H])C1([H])C(=O)N(c3c([H])c([H])c([H])c([H])c3[H])C(=O)C12[H]

$$$$
91:1:2
     RDKit          3D

 60 65  0  0  1  0  0  0  0  0999 V2000
   -2.9715    3.3398    3.0463 C   0  0  0  0  0  0  0  0  0  0  0  0
   -1.7370    3.0958    3.9038 C   0  0  0  0  0  0  0  0  0  0  0  0
   -1.7836    3.8033    5.2513 C   0  0  0  0  0  0  0  0  0  0  0  0
   -0.7297    2.3341    3.4187 C   0  0  0  0  0  0  0  0  0  0  0  0
    0.6206    1.9228    4.0391 C   0  0  1  0  0  0  0  0  0  0  0  0
    1.5730    3.0931    4.1417 C   0  0  0  0  0  0  0  0  0  0  0  0
    2.1138    3.9020    3.1175 C   0  0  0  0  0  0  0  0  0  0  0  0
    3.0079    4.9403    3.4661 C   0  0  0  0  0  0  0  0  0  0  0  0
    3.3482    5.1587    4.8220 C   0  0  0  0  0  0  0  0  0  0  0  0
    2.7904    4.3452    5.8348 C   0  0  0  0  0  0  0  0  0  0  0  0
    3.1193    4.5495    7.1427 O   0  0  0  0  0  0  0  0  0  0  0  0
    1.8976    3.3174    5.4702 C   0  0  0  0  0  0  0  0  0  0  0  0
    1.2679    2.4604    6.3326 O   0  0  0  0  0  0  0  0  0  0  0  0
    0.4541    1.5404    5.5697 C   0  0  2  0  0  0  0  0  0  0  0  0
    0.8583    0.0720    5.8758 C   0  0  1  0  0  0  0  0  0  0  0  0
    0.4934   -0.2869    7.3397 C   0  0  0  0  0  0  0  0  0  0  0  0
    0.0478   -0.7755    4.8620 C   0  0  0  0  0  0  0  0  0  0  0  0
   -0.7781   -1.6240    5.2054 O   0  0  0  0  0  0  0  0  0  0  0  0
    0.3190   -0.4679    3.5861 N   0  0  0  0  0  0  0  0  0  0  0  0
    1.2497    0.6476    3.3208 C   0  0  1  0  0  0  0  0  0  0  0  0
    1.4365    0.8134    1.7835 C   0  0  0  0  0  0  0  0  0  0  0  0
    2.6187    0.2990    4.0317 C   0  0  1  0  0  0  0  0  0  0  0  0
    2.3820   -0.0248    5.5345 C   0  0  2  0  0  0  0  0  0  0  0  0
    2.9971   -1.4081    5.7043 C   0  0  0  0  0  0  0  0  0  0  0  0
    3.0095   -1.9986    6.7898 O   0  0  0  0  0  0  0  0  0  0  0  0
    3.5006   -1.8526    4.5464 N   0  0  0  0  0  0  0  0  0  0  0  0
    4.1470   -3.1098    4.3972 C   0  0  0  0  0  0  0  0  0  0  0  0
    3.7493   -3.9930    3.3696 C   0  0  0  0  0  0  0  0  0  0  0  0
    4.3919   -5.2345    3.2168 C   0  0  0  0  0  0  0  0  0  0  0  0
    5.4299   -5.6022    4.0956 C   0  0  0  0  0  0  0  0  0  0  0  0
    5.8241   -4.7285    5.1279 C   0  0  0  0  0  0  0  0  0  0  0  0
    5.1896   -3.4825    5.2757 C   0  0  0  0  0  0  0  0  0  0  0  0
    3.3399   -0.9657    3.5522 C   0  0  0  0  0  0  0  0  0  0  0  0
    3.7433   -1.0926    2.3912 O   0  0  0  0  0  0  0  0  0  0  0  0
   -3.8628    2.9625    3.5458 H   0  0  0  0  0  0  0  0  0  0  0  0
   -2.9178    2.8414    2.0791 H   0  0  0  0  0  0  0  0  0  0  0  0
   -3.1013    4.4044    2.8619 H   0  0  0  0  0  0  0  0  0  0  0  0
   -2.8091    3.7466    5.6309 H   0  0  0  0  0  0  0  0  0  0  0  0
   -1.5499    4.8589    5.0871 H   0  0  0  0  0  0  0  0  0  0  0  0
   -1.1235    3.4435    6.0242 H   0  0  0  0  0  0  0  0  0  0  0  0
   -0.9126    1.9397    2.4359 H   0  0  0  0  0  0  0  0  0  0  0  0
    1.8443    3.7498    2.0831 H   0  0  0  0  0  0  0  0  0  0  0  0
    3.4297    5.5756    2.6977 H   0  0  0  0  0  0  0  0  0  0  0  0
    4.0361    5.9527    5.0732 H   0  0  0  0  0  0  0  0  0  0  0  0
    3.7016    5.2806    7.2770 H   0  0  0  0  0  0  0  0  0  0  0  0
   -0.5781    1.5884    5.8892 H   0  0  0  0  0  0  0  0  0  0  0  0
    1.0833    0.2821    8.0597 H   0  0  0  0  0  0  0  0  0  0  0  0
    0.6335   -1.3468    7.5549 H   0  0  0  0  0  0  0  0  0  0  0  0
   -0.5548   -0.0661    7.5462 H   0  0  0  0  0  0  0  0  0  0  0  0
   -0.1432   -0.9388    2.8198 H   0  0  0  0  0  0  0  0  0  0  0  0
    2.2581    1.4963    1.5579 H   0  0  0  0  0  0  0  0  0  0  0  0
    0.5599    1.1878    1.2582 H   0  0  0  0  0  0  0  0  0  0  0  0
    1.6622   -0.1384    1.2958 H   0  0  0  0  0  0  0  0  0  0  0  0
    2.9610    0.6513    6.1653 H   0  0  0  0  0  0  0  0  0  0  0  0
    2.9524   -3.7167    2.6964 H   0  0  0  0  0  0  0  0  0  0  0  0
    4.0846   -5.8980    2.4239 H   0  0  0  0  0  0  0  0  0  0  0  0
    5.9254   -6.5525    3.9760 H   0  0  0  0  0  0  0  0  0  0  0  0
    6.6222   -5.0025    5.8008 H   0  0  0  0  0  0  0  0  0  0  0  0
    5.5090   -2.8147    6.0622 H   0  0  0  0  0  0  0  0  0  0  0  0
    3.3334    1.1200    3.9324 H   0  0  0  0  0  0  0  0  0  0  0  0
  1  2  1  0
  1 35  1  0
  1 36  1  0
  1 37  1  0
  2  3  1  0
  2  4  2  3
  3 38  1  0
  3 39  1  0
  3 40  1  0
  5  4  1  6
  4 41  1  0
  5 14  1  0
  5 20  1  0
  5  6  1  0
  6 12  2  0
  6  7  1  0
  7  8  2  0
  7 42  1  0
  8  9  1  0
  8 43  1  0
  9 10  2  0
  9 44  1  0
 10 11  1  0
 10 12  1  0
 11 45  1  0
 12 13  1  0
 13 14  1  0
 14 15  1  0
 14 46  1  1
 15 16  1  1
 15 17  1  0
 15 23  1  0
 16 47  1  0
 16 48  1  0
 16 49  1  0
 17 18  2  0
 17 19  1  0
 19 20  1  0
 19 50  1  0
 20 21  1  6
 20 22  1  0
 21 51  1  0
 21 52  1  0
 21 53  1  0
 22 23  1  0
 22 60  1  1
 22 33  1  0
 23 24  1  0
 23 54  1  1
 24 25  2  0
 24 26  1  0
 26 33  1  0
 26 27  1  0
 27 32  1  0
 27 28  2  0
 28 29  1  0
 28 55  1  0
 29 30  2  0
 29 56  1  0
 30 31  1  0
 30 57  1  0
 31 32  2  0
 31 58  1  0
 32 59  1  0
 33 34  2  0
M  END
>  <i_m_ct_stereo_status>  (321) 
1

>  <s_m_source_file>  (321) 
/var/tmp/pbs.5076255.sched01/tmp0i_w_vt9/132llf9lao3.sdf

>  <i_m_source_file_index>  (321) 
3

>  <i_lp_mmshare_version>  (321) 
48012

>  <i_f3d_flags>  (321) 
0

>  <s_epik_input>  (321) 
W0NIM11DKFtDSDNdKT1bQ0hdW0NAQF0xMmMzYyhjKFtPSF0pW2NIXVtjSF1bY0hdMylPW0NAQEhdMVtDQF00KFtDSDNdKWM1YyhbQ0BAXTIoW0NIM10pW05IXUM0PU8pYyhbT0hdKW4oYzVbT0hdKS1jNltjSF1bY0hdW2NIXVtjSF1bY0hdNg==

>  <s_epik_cmdline>  (321) 
J2VwaWtfcHl0aG9uJywgJy1waHQnLCAnMi4wJywgJy1waCcsICc3LjAnLCAnLXRuJywgJzgnLCAnLW1hJywgJzIwMCcsICctaW1hZScsICc8aW5maWxlLm1hZT4nLCAnLW9tYWUnLCAnPG91dGZpbGUubWFlPic=

>  <r_lp_tautomer_probability>  (321) 
1

>  <r_epik_Ionization_Penalty>  (321) 
0.00497336

>  <r_epik_Ionization_Penalty_Charging>  (321) 
0

>  <r_epik_Ionization_Penalty_Neutral>  (321) 
0.00497336

>  <r_epik_State_Penalty>  (321) 
0.00361407

>  <r_epik_Charging_Adjusted_Penalty>  (321) 
0.00361407

>  <i_epik_Tot_Q>  (321) 
0

>  <i_epik_Tot_abs_Q>  (321) 
0

>  <s_lp_Force_Field>  (321) 
OPLS3e

>  <r_lp_Energy>  (321) 
55.3268

>  <b_lp_Chiralities_Consistent>  (321) 
1

>  <s_lp_Variant>  (321) 
91:0-2

>  <s_i_glide_gridfile>  (321) 
pfpi4k_grid

>  <i_i_glide_lignum>  (321) 
3

>  <i_i_glide_rotatable_bonds>  (321) 
3

>  <r_i_docking_score>  (321) 
-2.06375

>  <r_i_glide_ligand_efficiency>  (321) 
-0.0606985

>  <r_i_glide_ligand_efficiency_sa>  (321) 
-0.19664

>  <r_i_glide_ligand_efficiency_ln>  (321) 
-0.45594

>  <r_i_glide_gscore>  (321) 
-2.06375

>  <r_i_glide_lipo>  (321) 
-0.105768

>  <r_i_glide_hbond>  (321) 
0

>  <r_i_glide_metal>  (321) 
-0

>  <r_i_glide_rewards>  (321) 
-0.285941

>  <r_i_glide_evdw>  (321) 
-27.1982

>  <r_i_glide_ecoul>  (321) 
-3.1643

>  <r_i_glide_erotb>  (321) 
0.191348

>  <r_i_glide_esite>  (321) 
-0.0288363

>  <r_i_glide_emodel>  (321) 
-32.9033

>  <r_i_glide_energy>  (321) 
-30.3625

>  <r_i_glide_einternal>  (321) 
1.24836

>  <r_i_glide_intrahb_reward>  (321) 
-0

>  <i_i_glide_confnum>  (321) 
3

>  <i_i_glide_posenum>  (321) 
40

>  <r_i_glide_eff_state_penalty>  (321) 
0

>  <ligand_id>  (321) 
91

>  <original_smiles>  (321) 
CC(C)=CC12c3cccc(O)c3OC1C1(C)C(=O)NC2(C)c2c1c(O)n(-c1ccccc1)c2O

>  <smiles>  (321) 
[H]Oc1c([H])c([H])c([H])c2c1OC1([H])C2(C([H])=C(C([H])([H])[H])C([H])([H])[H])C2(C([H])([H])[H])N([H])C(=O)C1(C([H])([H])[H])C1([H])C(=O)N(c3c([H])c([H])c([H])c([H])c3[H])C(=O)C12[H]

$$$$
92:0:0
     RDKit          3D

 59 64  0  0  1  0  0  0  0  0999 V2000
   -1.7201    3.9684    3.2843 C   0  0  0  0  0  0  0  0  0  0  0  0
   -1.4640    2.4467    3.2817 C   0  0  2  0  0  0  0  0  0  0  0  0
   -1.5239    1.8559    4.6647 C   0  0  0  0  0  0  0  0  0  0  0  0
   -1.2195    2.3490    5.9046 C   0  0  0  0  0  0  0  0  0  0  0  0
   -1.3924    1.2295    6.7637 C   0  0  0  0  0  0  0  0  0  0  0  0
   -1.7709    0.1531    6.0967 N   0  0  0  0  0  0  0  0  0  0  0  0
   -1.8815    0.5560    4.7650 O   0  0  0  0  0  0  0  0  0  0  0  0
   -0.1582    2.1463    2.6448 N   0  0  1  0  0  0  0  0  0  0  0  0
    1.0329    2.5677    3.4155 C   0  0  0  0  0  0  0  0  0  0  0  0
    2.2074    1.8467    2.7727 C   0  0  0  0  0  0  0  0  0  0  0  0
    1.5920    0.6121    2.0769 C   0  0  1  0  0  0  0  0  0  0  0  0
    2.0674   -0.6790    2.5771 N   0  0  0  0  0  0  0  0  0  0  0  0
    2.0114   -0.9478    4.0113 C   0  0  0  0  0  0  0  0  0  0  0  0
    3.2211   -1.8725    3.7715 C   0  0  0  0  0  0  0  0  0  0  0  0
    4.2815   -1.8621    4.8849 C   0  0  0  0  0  0  0  0  0  0  0  0
    4.7285   -0.5072    5.2588 C   0  0  0  0  0  0  0  0  0  0  0  0
    5.0744    0.5595    5.5482 N   0  0  0  0  0  0  0  0  0  0  0  0
    2.9129   -3.2427    3.4129 N   0  0  0  0  0  0  0  0  0  0  0  0
    1.7127   -3.9239    3.5546 C   0  0  0  0  0  0  0  0  0  0  0  0
    1.9173   -5.1822    3.0569 C   0  0  0  0  0  0  0  0  0  0  0  0
    0.9319   -6.2684    2.9661 C   0  0  0  0  0  0  0  0  0  0  0  0
    0.3268   -6.4547    1.7673 N   0  0  0  0  0  0  0  0  0  0  0  0
   -0.5361   -7.4694    1.6364 C   0  0  0  0  0  0  0  0  0  0  0  0
   -0.9652   -8.3297    2.5542 N   0  0  0  0  0  0  0  0  0  0  0  0
   -0.3825   -8.1167    3.7571 C   0  0  0  0  0  0  0  0  0  0  0  0
   -0.5857   -8.8268    4.9116 N   0  0  0  0  0  0  0  0  0  0  0  0
    0.2195   -8.3196    5.9240 C   0  0  0  0  0  0  0  0  0  0  0  0
    0.9386   -7.2535    5.4374 C   0  0  0  0  0  0  0  0  0  0  0  0
    0.5770   -7.1060    4.0553 C   0  0  0  0  0  0  0  0  0  0  0  0
    3.2607   -5.1876    2.6075 C   0  0  0  0  0  0  0  0  0  0  0  0
    3.8628   -4.0236    2.8475 N   0  0  0  0  0  0  0  0  0  0  0  0
    3.4973   -0.9184    2.5800 C   0  0  0  0  0  0  0  0  0  0  0  0
    0.0712    0.7239    2.3116 C   0  0  0  0  0  0  0  0  0  0  0  0
   -1.1948   -9.6528    5.0018 H   0  0  0  0  0  0  0  0  0  0  0  0
   -2.6520    4.2091    3.7963 H   0  0  0  0  0  0  0  0  0  0  0  0
   -1.7863    4.3625    2.2762 H   0  0  0  0  0  0  0  0  0  0  0  0
   -0.9271    4.5076    3.8056 H   0  0  0  0  0  0  0  0  0  0  0  0
   -2.2561    1.9987    2.6723 H   0  0  0  0  0  0  0  0  0  0  0  0
   -0.8801    3.3412    6.1427 H   0  0  0  0  0  0  0  0  0  0  0  0
   -1.1910    1.1579    7.8233 H   0  0  0  0  0  0  0  0  0  0  0  0
    1.1769    3.6519    3.4221 H   0  0  0  0  0  0  0  0  0  0  0  0
    0.9683    2.2144    4.4526 H   0  0  0  0  0  0  0  0  0  0  0  0
    2.6983    2.4921    2.0457 H   0  0  0  0  0  0  0  0  0  0  0  0
    2.9472    1.6420    3.5440 H   0  0  0  0  0  0  0  0  0  0  0  0
    1.7811    0.6629    1.0001 H   0  0  0  0  0  0  0  0  0  0  0  0
    2.2239   -0.0538    4.5931 H   0  0  0  0  0  0  0  0  0  0  0  0
    1.0722   -1.4125    4.2952 H   0  0  0  0  0  0  0  0  0  0  0  0
    3.8883   -2.3218    5.7899 H   0  0  0  0  0  0  0  0  0  0  0  0
    5.1768   -2.4172    4.6031 H   0  0  0  0  0  0  0  0  0  0  0  0
    0.8267   -3.4718    3.9668 H   0  0  0  0  0  0  0  0  0  0  0  0
   -0.9462   -7.6047    0.6426 H   0  0  0  0  0  0  0  0  0  0  0  0
    0.2156   -8.7671    6.9092 H   0  0  0  0  0  0  0  0  0  0  0  0
    1.6537   -6.6545    5.9718 H   0  0  0  0  0  0  0  0  0  0  0  0
    3.8072   -5.9837    2.1301 H   0  0  0  0  0  0  0  0  0  0  0  0
    3.8413   -1.3616    1.6468 H   0  0  0  0  0  0  0  0  0  0  0  0
    4.0441   -0.0102    2.8313 H   0  0  0  0  0  0  0  0  0  0  0  0
   -0.2099    0.1140    3.1755 H   0  0  0  0  0  0  0  0  0  0  0  0
   -0.5311    0.3766    1.4731 H   0  0  0  0  0  0  0  0  0  0  0  0
   -0.1316    2.6739    1.7782 H   0  0  0  0  0  0  0  0  0  0  0  0
  1  2  1  0
  1 35  1  0
  1 36  1  0
  1 37  1  0
  2  3  1  0
  2  8  1  0
  2 38  1  6
  3  7  1  0
  3  4  2  0
  4  5  1  0
  4 39  1  0
  5  6  2  0
  5 40  1  0
  6  7  1  0
  8 33  1  0
  8  9  1  0
  8 59  1  6
  9 10  1  0
  9 41  1  0
  9 42  1  0
 10 11  1  0
 10 43  1  0
 10 44  1  0
 11 12  1  0
 11 33  1  0
 11 45  1  6
 12 32  1  0
 12 13  1  0
 13 14  1  0
 13 46  1  0
 13 47  1  0
 14 15  1  0
 14 18  1  0
 14 32  1  0
 15 16  1  0
 15 48  1  0
 15 49  1  0
 16 17  3  0
 18 31  1  0
 18 19  1  0
 19 20  2  0
 19 50  1  0
 20 21  1  0
 20 30  1  0
 21 29  1  0
 21 22  2  0
 22 23  1  0
 23 24  2  0
 23 51  1  0
 24 25  1  0
 25 29  2  0
 25 26  1  0
 26 34  1  0
 26 27  1  0
 27 28  2  0
 27 52  1  0
 28 29  1  0
 28 53  1  0
 30 31  2  0
 30 54  1  0
 32 55  1  0
 32 56  1  0
 33 57  1  0
 33 58  1  0
M  CHG  1   8   1
M  END
>  <i_m_ct_stereo_status>  (322) 
1

>  <s_m_source_file>  (322) 
/var/tmp/pbs.5076255.sched01/tmp0i_w_vt9/132llf9lao3.sdf

>  <i_m_source_file_index>  (322) 
4

>  <i_lp_mmshare_version>  (322) 
48012

>  <i_f3d_flags>  (322) 
0

>  <s_epik_input>  (322) 
bzFuW2NIXVtjSF1jMVtDQEBIXShbQ0gzXSlOMltDSDJdW0NIMl1bQ0BIXShbQ0gyXTIpTihbQ0gyXTMpW0NIMl1DMyhbQ0gyXUMjTiluNFtjSF1jKFtjSF1uNCktYyhuW2NIXW41KWMoYzU2KVtjSF1bY0hdW25IXTY=

>  <s_epik_cmdline>  (322) 
J2VwaWtfcHl0aG9uJywgJy1waHQnLCAnMi4wJywgJy1waCcsICc3LjAnLCAnLXRuJywgJzgnLCAnLW1hJywgJzIwMCcsICctaW1hZScsICc8aW5maWxlLm1hZT4nLCAnLW9tYWUnLCAnPG91dGZpbGUubWFlPic=

>  <r_lp_tautomer_probability>  (322) 
0.999998

>  <r_epik_Ionization_Penalty>  (322) 
0.0554087

>  <r_epik_Ionization_Penalty_Charging>  (322) 
0.0522365

>  <r_epik_Ionization_Penalty_Neutral>  (322) 
0.00317225

>  <r_epik_State_Penalty>  (322) 
0.0564991

>  <r_epik_Charging_Adjusted_Penalty>  (322) 
0.108736

>  <i_epik_Tot_Q>  (322) 
1

>  <i_epik_Tot_abs_Q>  (322) 
1

>  <s_lp_Force_Field>  (322) 
OPLS3e

>  <r_lp_Energy>  (322) 
33.0301

>  <b_lp_Chiralities_Consistent>  (322) 
1

>  <s_lp_Variant>  (322) 
92:0-1

>  <s_i_glide_gridfile>  (322) 
pfpi4k_grid

>  <i_i_glide_lignum>  (322) 
4

>  <i_i_glide_rotatable_bonds>  (322) 
7

>  <r_i_docking_score>  (322) 
-4.35126

>  <r_i_glide_ligand_efficiency>  (322) 
-0.131856

>  <r_i_glide_ligand_efficiency_sa>  (322) 
-0.422934

>  <r_i_glide_ligand_efficiency_ln>  (322) 
-0.967697

>  <r_i_glide_gscore>  (322) 
-4.35126

>  <r_i_glide_lipo>  (322) 
-0.010656

>  <r_i_glide_hbond>  (322) 
-0.541001

>  <r_i_glide_metal>  (322) 
-0

>  <r_i_glide_rewards>  (322) 
-0.412953

>  <r_i_glide_evdw>  (322) 
-32.0866

>  <r_i_glide_ecoul>  (322) 
-12.7956

>  <r_i_glide_erotb>  (322) 
0.607332

>  <r_i_glide_esite>  (322) 
-0.470305

>  <r_i_glide_emodel>  (322) 
-53.7982

>  <r_i_glide_energy>  (322) 
-44.8822

>  <r_i_glide_einternal>  (322) 
12.7404

>  <r_i_glide_intrahb_reward>  (322) 
-0

>  <i_i_glide_confnum>  (322) 
10

>  <i_i_glide_posenum>  (322) 
7

>  <r_i_glide_eff_state_penalty>  (322) 
0

>  <ligand_id>  (322) 
92

>  <original_smiles>  (322) 
CC(c1ccno1)N1CCC(N2CC(CC#N)(n3cc(-c4ncnc5[nH]ccc45)cn3)C2)C1

>  <smiles>  (322) 
[H]c1nc(-c2c([H])nn(C3(C([H])([H])C#N)C([H])([H])N(C4([H])C([H])([H])C([H])([H])[N+]([H])(C([H])(c5onc([H])c5[H])C([H])([H])[H])C4([H])[H])C3([H])[H])c2[H])c2c([H])c([H])n([H])c2n1

$$$$
92:0:1
     RDKit          3D

 59 64  0  0  1  0  0  0  0  0999 V2000
    4.9823   -3.7967   -3.6394 C   0  0  0  0  0  0  0  0  0  0  0  0
    4.0606   -2.8788   -2.7992 C   0  0  2  0  0  0  0  0  0  0  0  0
    3.9231   -1.5336   -3.4505 C   0  0  0  0  0  0  0  0  0  0  0  0
    4.2028   -0.2468   -3.0795 C   0  0  0  0  0  0  0  0  0  0  0  0
    3.8166    0.5258   -4.2102 C   0  0  0  0  0  0  0  0  0  0  0  0
    3.4080   -0.2334   -5.2026 N   0  0  0  0  0  0  0  0  0  0  0  0
    3.4353   -1.5421   -4.6935 O   0  0  0  0  0  0  0  0  0  0  0  0
    4.5424   -2.6973   -1.3947 N   0  0  1  0  0  0  0  0  0  0  0  0
    3.4919   -2.5640   -0.3795 C   0  0  0  0  0  0  0  0  0  0  0  0
    4.2198   -2.7159    0.9598 C   0  0  0  0  0  0  0  0  0  0  0  0
    5.5335   -3.4632    0.6443 C   0  0  1  0  0  0  0  0  0  0  0  0
    5.5569   -4.7664    1.3080 N   0  0  0  0  0  0  0  0  0  0  0  0
    5.6109   -4.7257    2.7589 C   0  0  0  0  0  0  0  0  0  0  0  0
    6.3985   -6.0485    2.6665 C   0  0  0  0  0  0  0  0  0  0  0  0
    7.5242   -6.2371    3.6894 C   0  0  0  0  0  0  0  0  0  0  0  0
    7.1023   -5.9614    5.0701 C   0  0  0  0  0  0  0  0  0  0  0  0
    6.7672   -5.7376    6.1540 N   0  0  0  0  0  0  0  0  0  0  0  0
    5.5915   -7.2445    2.6249 N   0  0  0  0  0  0  0  0  0  0  0  0
    4.3935   -7.4861    3.2727 C   0  0  0  0  0  0  0  0  0  0  0  0
    4.0032   -8.7417    2.9132 C   0  0  0  0  0  0  0  0  0  0  0  0
    2.7911   -9.4604    3.3255 C   0  0  0  0  0  0  0  0  0  0  0  0
    2.9463  -10.7788    3.5361 N   0  0  0  0  0  0  0  0  0  0  0  0
    1.8929  -11.5104    3.9095 C   0  0  0  0  0  0  0  0  0  0  0  0
    0.6323  -11.1110    4.1037 N   0  0  0  0  0  0  0  0  0  0  0  0
    0.4999   -9.7855    3.9160 C   0  0  0  0  0  0  0  0  0  0  0  0
   -0.6452   -9.0493    4.0807 N   0  0  0  0  0  0  0  0  0  0  0  0
   -0.4176   -7.7182    3.7930 C   0  0  0  0  0  0  0  0  0  0  0  0
    0.9128   -7.5645    3.4456 C   0  0  0  0  0  0  0  0  0  0  0  0
    1.5102   -8.8637    3.5287 C   0  0  0  0  0  0  0  0  0  0  0  0
    5.0331   -9.2276    2.0604 C   0  0  0  0  0  0  0  0  0  0  0  0
    6.0003   -8.3263    1.9143 N   0  0  0  0  0  0  0  0  0  0  0  0
    6.8318   -5.4743    1.2977 C   0  0  0  0  0  0  0  0  0  0  0  0
    5.4620   -3.7087   -0.8611 C   0  0  0  0  0  0  0  0  0  0  0  0
   -1.5034   -9.5021    4.4004 H   0  0  0  0  0  0  0  0  0  0  0  0
    4.6470   -3.8980   -4.6750 H   0  0  0  0  0  0  0  0  0  0  0  0
    4.9962   -4.8064   -3.2372 H   0  0  0  0  0  0  0  0  0  0  0  0
    6.0057   -3.4155   -3.6461 H   0  0  0  0  0  0  0  0  0  0  0  0
    3.0712   -3.3514   -2.8160 H   0  0  0  0  0  0  0  0  0  0  0  0
    4.6073    0.0992   -2.1430 H   0  0  0  0  0  0  0  0  0  0  0  0
    3.8422    1.5893   -4.3648 H   0  0  0  0  0  0  0  0  0  0  0  0
    2.9496   -1.6205   -0.4548 H   0  0  0  0  0  0  0  0  0  0  0  0
    2.7779   -3.3820   -0.4931 H   0  0  0  0  0  0  0  0  0  0  0  0
    4.4612   -1.7375    1.3742 H   0  0  0  0  0  0  0  0  0  0  0  0
    3.5737   -3.2292    1.6733 H   0  0  0  0  0  0  0  0  0  0  0  0
    6.4128   -2.8589    0.9020 H   0  0  0  0  0  0  0  0  0  0  0  0
    6.1970   -3.8471    3.0670 H   0  0  0  0  0  0  0  0  0  0  0  0
    4.6093   -4.7513    3.1768 H   0  0  0  0  0  0  0  0  0  0  0  0
    7.9695   -7.2328    3.6465 H   0  0  0  0  0  0  0  0  0  0  0  0
    8.3385   -5.5341    3.5007 H   0  0  0  0  0  0  0  0  0  0  0  0
    3.9040   -6.7552    3.9066 H   0  0  0  0  0  0  0  0  0  0  0  0
    2.0970  -12.5571    4.0891 H   0  0  0  0  0  0  0  0  0  0  0  0
   -1.2093   -6.9855    3.8673 H   0  0  0  0  0  0  0  0  0  0  0  0
    1.4255   -6.6561    3.1674 H   0  0  0  0  0  0  0  0  0  0  0  0
    5.1055  -10.1772    1.5553 H   0  0  0  0  0  0  0  0  0  0  0  0
    6.9189   -6.1825    0.4692 H   0  0  0  0  0  0  0  0  0  0  0  0
    7.6613   -4.7694    1.3380 H   0  0  0  0  0  0  0  0  0  0  0  0
    4.9948   -4.6844   -1.0123 H   0  0  0  0  0  0  0  0  0  0  0  0
    6.4558   -3.7107   -1.3134 H   0  0  0  0  0  0  0  0  0  0  0  0
    5.0463   -1.8272   -1.3720 H   0  0  0  0  0  0  0  0  0  0  0  0
  1  2  1  0
  1 35  1  0
  1 36  1  0
  1 37  1  0
  2  3  1  0
  2  8  1  0
  2 38  1  1
  3  7  1  0
  3  4  2  0
  4  5  1  0
  4 39  1  0
  5  6  2  0
  5 40  1  0
  6  7  1  0
  8 33  1  0
  8  9  1  0
  8 59  1  6
  9 10  1  0
  9 41  1  0
  9 42  1  0
 10 11  1  0
 10 43  1  0
 10 44  1  0
 11 12  1  0
 11 33  1  0
 11 45  1  6
 12 32  1  0
 12 13  1  0
 13 14  1  0
 13 46  1  0
 13 47  1  0
 14 15  1  0
 14 18  1  0
 14 32  1  0
 15 16  1  0
 15 48  1  0
 15 49  1  0
 16 17  3  0
 18 31  1  0
 18 19  1  0
 19 20  2  0
 19 50  1  0
 20 21  1  0
 20 30  1  0
 21 29  1  0
 21 22  2  0
 22 23  1  0
 23 24  2  0
 23 51  1  0
 24 25  1  0
 25 29  2  0
 25 26  1  0
 26 34  1  0
 26 27  1  0
 27 28  2  0
 27 52  1  0
 28 29  1  0
 28 53  1  0
 30 31  2  0
 30 54  1  0
 32 55  1  0
 32 56  1  0
 33 57  1  0
 33 58  1  0
M  CHG  1   8   1
M  END
>  <i_m_ct_stereo_status>  (323) 
1

>  <s_m_source_file>  (323) 
/var/tmp/pbs.5076255.sched01/tmp0i_w_vt9/132llf9lao3.sdf

>  <i_m_source_file_index>  (323) 
4

>  <i_lp_mmshare_version>  (323) 
48012

>  <i_f3d_flags>  (323) 
0

>  <s_epik_input>  (323) 
bzFuW2NIXVtjSF1jMVtDQEBIXShbQ0gzXSlOMltDSDJdW0NIMl1bQ0BIXShbQ0gyXTIpTihbQ0gyXTMpW0NIMl1DMyhbQ0gyXUMjTiluNFtjSF1jKFtjSF1uNCktYyhuW2NIXW41KWMoYzU2KVtjSF1bY0hdW25IXTY=

>  <s_epik_cmdline>  (323) 
J2VwaWtfcHl0aG9uJywgJy1waHQnLCAnMi4wJywgJy1waCcsICc3LjAnLCAnLXRuJywgJzgnLCAnLW1hJywgJzIwMCcsICctaW1hZScsICc8aW5maWxlLm1hZT4nLCAnLW9tYWUnLCAnPG91dGZpbGUubWFlPic=

>  <r_lp_tautomer_probability>  (323) 
0.999998

>  <r_epik_Ionization_Penalty>  (323) 
0.0554087

>  <r_epik_Ionization_Penalty_Charging>  (323) 
0.0522365

>  <r_epik_Ionization_Penalty_Neutral>  (323) 
0.00317225

>  <r_epik_State_Penalty>  (323) 
0.0564991

>  <r_epik_Charging_Adjusted_Penalty>  (323) 
0.108736

>  <i_epik_Tot_Q>  (323) 
1

>  <i_epik_Tot_abs_Q>  (323) 
1

>  <s_lp_Force_Field>  (323) 
OPLS3e

>  <r_lp_Energy>  (323) 
33.0301

>  <b_lp_Chiralities_Consistent>  (323) 
1

>  <s_lp_Variant>  (323) 
92:0-1

>  <s_i_glide_gridfile>  (323) 
pfpi4k_grid

>  <i_i_glide_lignum>  (323) 
4

>  <i_i_glide_rotatable_bonds>  (323) 
7

>  <r_i_docking_score>  (323) 
-3.93844

>  <r_i_glide_ligand_efficiency>  (323) 
-0.119347

>  <r_i_glide_ligand_efficiency_sa>  (323) 
-0.382809

>  <r_i_glide_ligand_efficiency_ln>  (323) 
-0.875889

>  <r_i_glide_gscore>  (323) 
-3.93844

>  <r_i_glide_lipo>  (323) 
-0.727159

>  <r_i_glide_hbond>  (323) 
-0.14308

>  <r_i_glide_metal>  (323) 
-0

>  <r_i_glide_rewards>  (323) 
-0.419204

>  <r_i_glide_evdw>  (323) 
-37.0879

>  <r_i_glide_ecoul>  (323) 
-7.9087

>  <r_i_glide_erotb>  (323) 
0.607332

>  <r_i_glide_esite>  (323) 
-0.21563

>  <r_i_glide_emodel>  (323) 
-53.4391

>  <r_i_glide_energy>  (323) 
-44.9966

>  <r_i_glide_einternal>  (323) 
10.9131

>  <r_i_glide_intrahb_reward>  (323) 
-0

>  <i_i_glide_confnum>  (323) 
9

>  <i_i_glide_posenum>  (323) 
5

>  <r_i_glide_eff_state_penalty>  (323) 
0

>  <ligand_id>  (323) 
92

>  <original_smiles>  (323) 
CC(c1ccno1)N1CCC(N2CC(CC#N)(n3cc(-c4ncnc5[nH]ccc45)cn3)C2)C1

>  <smiles>  (323) 
[H]c1nc(-c2c([H])nn(C3(C([H])([H])C#N)C([H])([H])N(C4([H])C([H])([H])C([H])([H])[N+]([H])(C([H])(c5onc([H])c5[H])C([H])([H])[H])C4([H])[H])C3([H])[H])c2[H])c2c([H])c([H])n([H])c2n1

$$$$
92:0:2
     RDKit          3D

 59 64  0  0  1  0  0  0  0  0999 V2000
   -1.9659    2.8003    3.0157 C   0  0  0  0  0  0  0  0  0  0  0  0
   -0.6258    2.8480    3.7521 C   0  0  2  0  0  0  0  0  0  0  0  0
   -0.2922    4.2167    4.2503 C   0  0  0  0  0  0  0  0  0  0  0  0
    0.3343    5.2763    3.6754 C   0  0  0  0  0  0  0  0  0  0  0  0
    0.3897    6.2474    4.7172 C   0  0  0  0  0  0  0  0  0  0  0  0
   -0.1845    5.8029    5.8196 N   0  0  0  0  0  0  0  0  0  0  0  0
   -0.6374    4.5098    5.5250 O   0  0  0  0  0  0  0  0  0  0  0  0
    0.4727    2.3150    2.8835 N   0  0  1  0  0  0  0  0  0  0  0  0
    1.8275    2.4282    3.4622 C   0  0  0  0  0  0  0  0  0  0  0  0
    2.7008    1.5366    2.6146 C   0  0  0  0  0  0  0  0  0  0  0  0
    1.7683    0.4887    1.9915 C   0  0  1  0  0  0  0  0  0  0  0  0
    2.0681   -0.8974    2.3093 N   0  0  0  0  0  0  0  0  0  0  0  0
    2.1372   -1.2755    3.7050 C   0  0  0  0  0  0  0  0  0  0  0  0
    3.1723   -2.3365    3.2433 C   0  0  0  0  0  0  0  0  0  0  0  0
    4.3323   -2.5956    4.2202 C   0  0  0  0  0  0  0  0  0  0  0  0
    4.9421   -1.3583    4.7385 C   0  0  0  0  0  0  0  0  0  0  0  0
    5.4070   -0.3772    5.1380 N   0  0  0  0  0  0  0  0  0  0  0  0
    2.6311   -3.6219    2.8479 N   0  0  0  0  0  0  0  0  0  0  0  0
    1.7570   -4.4388    3.5463 C   0  0  0  0  0  0  0  0  0  0  0  0
    1.4902   -5.4861    2.7288 C   0  0  0  0  0  0  0  0  0  0  0  0
    0.6181   -6.6323    2.9812 C   0  0  0  0  0  0  0  0  0  0  0  0
   -0.1995   -7.0056    1.9756 N   0  0  0  0  0  0  0  0  0  0  0  0
   -0.9623   -8.0965    2.1136 C   0  0  0  0  0  0  0  0  0  0  0  0
   -1.1186   -8.8643    3.1806 N   0  0  0  0  0  0  0  0  0  0  0  0
   -0.3064   -8.4599    4.2005 C   0  0  0  0  0  0  0  0  0  0  0  0
   -0.1992   -9.0400    5.4429 N   0  0  0  0  0  0  0  0  0  0  0  0
    0.7492   -8.3661    6.2151 C   0  0  0  0  0  0  0  0  0  0  0  0
    1.2506   -7.3159    5.4734 C   0  0  0  0  0  0  0  0  0  0  0  0
    0.5848   -7.3555    4.1995 C   0  0  0  0  0  0  0  0  0  0  0  0
    2.2493   -5.2612    1.5371 C   0  0  0  0  0  0  0  0  0  0  0  0
    2.9479   -4.1504    1.6383 N   0  0  0  0  0  0  0  0  0  0  0  0
    3.4442   -1.3194    2.0997 C   0  0  0  0  0  0  0  0  0  0  0  0
    0.3594    0.8868    2.4851 C   0  0  0  0  0  0  0  0  0  0  0  0
   -0.7327   -9.8761    5.6897 H   0  0  0  0  0  0  0  0  0  0  0  0
   -2.7738    3.1767    3.6387 H   0  0  0  0  0  0  0  0  0  0  0  0
   -2.2210    1.7815    2.7231 H   0  0  0  0  0  0  0  0  0  0  0  0
   -1.9212    3.3964    2.1056 H   0  0  0  0  0  0  0  0  0  0  0  0
   -0.7106    2.2120    4.6294 H   0  0  0  0  0  0  0  0  0  0  0  0
    0.7262    5.3443    2.6691 H   0  0  0  0  0  0  0  0  0  0  0  0
    0.8049    7.2497    4.6973 H   0  0  0  0  0  0  0  0  0  0  0  0
    2.2483    3.4352    3.4861 H   0  0  0  0  0  0  0  0  0  0  0  0
    1.8155    2.0400    4.4811 H   0  0  0  0  0  0  0  0  0  0  0  0
    3.1191    2.1295    1.8153 H   0  0  0  0  0  0  0  0  0  0  0  0
    3.5270    1.2106    3.2404 H   0  0  0  0  0  0  0  0  0  0  0  0
    1.7722    0.6082    0.9076 H   0  0  0  0  0  0  0  0  0  0  0  0
    2.5228   -0.4652    4.3262 H   0  0  0  0  0  0  0  0  0  0  0  0
    1.1789   -1.6499    4.0659 H   0  0  0  0  0  0  0  0  0  0  0  0
    3.9856   -3.1592    5.0901 H   0  0  0  0  0  0  0  0  0  0  0  0
    5.1325   -3.1681    3.7486 H   0  0  0  0  0  0  0  0  0  0  0  0
    1.3746   -4.1847    4.5318 H   0  0  0  0  0  0  0  0  0  0  0  0
   -1.5649   -8.3747    1.2778 H   0  0  0  0  0  0  0  0  0  0  0  0
    0.9999   -8.6863    7.2167 H   0  0  0  0  0  0  0  0  0  0  0  0
    2.0068   -6.6088    5.7583 H   0  0  0  0  0  0  0  0  0  0  0  0
    2.3009   -5.8330    0.6233 H   0  0  0  0  0  0  0  0  0  0  0  0
    3.6075   -1.6996    1.0918 H   0  0  0  0  0  0  0  0  0  0  0  0
    4.1848   -0.5645    2.3557 H   0  0  0  0  0  0  0  0  0  0  0  0
    0.0984    0.3370    3.3930 H   0  0  0  0  0  0  0  0  0  0  0  0
   -0.4302    0.6730    1.7509 H   0  0  0  0  0  0  0  0  0  0  0  0
    0.4872    2.8486    2.0173 H   0  0  0  0  0  0  0  0  0  0  0  0
  1  2  1  0
  1 35  1  0
  1 36  1  0
  1 37  1  0
  2  3  1  0
  2  8  1  0
  2 38  1  1
  3  7  1  0
  3  4  2  0
  4  5  1  0
  4 39  1  0
  5  6  2  0
  5 40  1  0
  6  7  1  0
  8 33  1  0
  8  9  1  0
  8 59  1  6
  9 10  1  0
  9 41  1  0
  9 42  1  0
 10 11  1  0
 10 43  1  0
 10 44  1  0
 11 12  1  0
 11 33  1  0
 11 45  1  6
 12 32  1  0
 12 13  1  0
 13 14  1  0
 13 46  1  0
 13 47  1  0
 14 15  1  0
 14 18  1  0
 14 32  1  0
 15 16  1  0
 15 48  1  0
 15 49  1  0
 16 17  3  0
 18 31  1  0
 18 19  1  0
 19 20  2  0
 19 50  1  0
 20 21  1  0
 20 30  1  0
 21 29  1  0
 21 22  2  0
 22 23  1  0
 23 24  2  0
 23 51  1  0
 24 25  1  0
 25 29  2  0
 25 26  1  0
 26 34  1  0
 26 27  1  0
 27 28  2  0
 27 52  1  0
 28 29  1  0
 28 53  1  0
 30 31  2  0
 30 54  1  0
 32 55  1  0
 32 56  1  0
 33 57  1  0
 33 58  1  0
M  CHG  1   8   1
M  END
>  <i_m_ct_stereo_status>  (324) 
1

>  <s_m_source_file>  (324) 
/var/tmp/pbs.5076255.sched01/tmp0i_w_vt9/132llf9lao3.sdf

>  <i_m_source_file_index>  (324) 
4

>  <i_lp_mmshare_version>  (324) 
48012

>  <i_f3d_flags>  (324) 
0

>  <s_epik_input>  (324) 
bzFuW2NIXVtjSF1jMVtDQEBIXShbQ0gzXSlOMltDSDJdW0NIMl1bQ0BIXShbQ0gyXTIpTihbQ0gyXTMpW0NIMl1DMyhbQ0gyXUMjTiluNFtjSF1jKFtjSF1uNCktYyhuW2NIXW41KWMoYzU2KVtjSF1bY0hdW25IXTY=

>  <s_epik_cmdline>  (324) 
J2VwaWtfcHl0aG9uJywgJy1waHQnLCAnMi4wJywgJy1waCcsICc3LjAnLCAnLXRuJywgJzgnLCAnLW1hJywgJzIwMCcsICctaW1hZScsICc8aW5maWxlLm1hZT4nLCAnLW9tYWUnLCAnPG91dGZpbGUubWFlPic=

>  <r_lp_tautomer_probability>  (324) 
0.999998

>  <r_epik_Ionization_Penalty>  (324) 
0.0554087

>  <r_epik_Ionization_Penalty_Charging>  (324) 
0.0522365

>  <r_epik_Ionization_Penalty_Neutral>  (324) 
0.00317225

>  <r_epik_State_Penalty>  (324) 
0.0564991

>  <r_epik_Charging_Adjusted_Penalty>  (324) 
0.108736

>  <i_epik_Tot_Q>  (324) 
1

>  <i_epik_Tot_abs_Q>  (324) 
1

>  <s_lp_Force_Field>  (324) 
OPLS3e

>  <r_lp_Energy>  (324) 
33.0301

>  <b_lp_Chiralities_Consistent>  (324) 
1

>  <s_lp_Variant>  (324) 
92:0-1

>  <s_i_glide_gridfile>  (324) 
pfpi4k_grid

>  <i_i_glide_lignum>  (324) 
4

>  <i_i_glide_rotatable_bonds>  (324) 
7

>  <r_i_docking_score>  (324) 
-3.76187

>  <r_i_glide_ligand_efficiency>  (324) 
-0.113996

>  <r_i_glide_ligand_efficiency_sa>  (324) 
-0.365646

>  <r_i_glide_ligand_efficiency_ln>  (324) 
-0.83662

>  <r_i_glide_gscore>  (324) 
-3.76187

>  <r_i_glide_lipo>  (324) 
-0.0101854

>  <r_i_glide_hbond>  (324) 
-0.415305

>  <r_i_glide_metal>  (324) 
-0

>  <r_i_glide_rewards>  (324) 
-0.429881

>  <r_i_glide_evdw>  (324) 
-32.5249

>  <r_i_glide_ecoul>  (324) 
-10.2396

>  <r_i_glide_erotb>  (324) 
0.607332

>  <r_i_glide_esite>  (324) 
-0.35164

>  <r_i_glide_emodel>  (324) 
-52.897

>  <r_i_glide_energy>  (324) 
-42.7646

>  <r_i_glide_einternal>  (324) 
6.06932

>  <r_i_glide_intrahb_reward>  (324) 
-0

>  <i_i_glide_confnum>  (324) 
10

>  <i_i_glide_posenum>  (324) 
9

>  <r_i_glide_eff_state_penalty>  (324) 
0

>  <ligand_id>  (324) 
92

>  <original_smiles>  (324) 
CC(c1ccno1)N1CCC(N2CC(CC#N)(n3cc(-c4ncnc5[nH]ccc45)cn3)C2)C1

>  <smiles>  (324) 
[H]c1nc(-c2c([H])nn(C3(C([H])([H])C#N)C([H])([H])N(C4([H])C([H])([H])C([H])([H])[N+]([H])(C([H])(c5onc([H])c5[H])C([H])([H])[H])C4([H])[H])C3([H])[H])c2[H])c2c([H])c([H])n([H])c2n1

$$$$
92:1:0
     RDKit          3D

 58 63  0  0  1  0  0  0  0  0999 V2000
   -1.7519   -4.2754    7.5808 C   0  0  0  0  0  0  0  0  0  0  0  0
   -0.5273   -4.4472    6.6540 C   0  0  2  0  0  0  0  0  0  0  0  0
    0.4908   -5.3781    7.2965 C   0  0  0  0  0  0  0  0  0  0  0  0
    1.8597   -5.4345    7.3952 C   0  0  0  0  0  0  0  0  0  0  0  0
    2.1101   -6.6458    8.1032 C   0  0  0  0  0  0  0  0  0  0  0  0
    0.9969   -7.2553    8.4441 N   0  0  0  0  0  0  0  0  0  0  0  0
   -0.0327   -6.4717    7.9083 O   0  0  0  0  0  0  0  0  0  0  0  0
    0.0566   -3.1456    6.2708 N   0  0  0  0  0  0  0  0  0  0  0  0
   -0.8591   -2.1666    5.7188 C   0  0  0  0  0  0  0  0  0  0  0  0
    0.0099   -1.0576    5.1049 C   0  0  0  0  0  0  0  0  0  0  0  0
    1.3670   -1.7329    4.8429 C   0  0  1  0  0  0  0  0  0  0  0  0
    2.4440   -1.2012    5.6796 N   0  0  0  0  0  0  0  0  0  0  0  0
    3.7816   -1.7128    5.3883 C   0  0  0  0  0  0  0  0  0  0  0  0
    4.0669   -0.4196    4.5840 C   0  0  0  0  0  0  0  0  0  0  0  0
    5.3889    0.2940    4.9080 C   0  0  0  0  0  0  0  0  0  0  0  0
    5.6330    0.4279    6.3535 C   0  0  0  0  0  0  0  0  0  0  0  0
    5.8158    0.5254    7.4906 N   0  0  0  0  0  0  0  0  0  0  0  0
    3.9882   -0.5445    3.1389 N   0  0  0  0  0  0  0  0  0  0  0  0
    4.7630   -1.3162    2.2815 C   0  0  0  0  0  0  0  0  0  0  0  0
    4.2582   -1.1445    1.0341 C   0  0  0  0  0  0  0  0  0  0  0  0
    4.6984   -1.7384   -0.2384 C   0  0  0  0  0  0  0  0  0  0  0  0
    3.7855   -1.8843   -1.2142 N   0  0  0  0  0  0  0  0  0  0  0  0
    4.1087   -2.4062   -2.3945 C   0  0  0  0  0  0  0  0  0  0  0  0
    5.3045   -2.8239   -2.8086 N   0  0  0  0  0  0  0  0  0  0  0  0
    6.2295   -2.6707   -1.8214 C   0  0  0  0  0  0  0  0  0  0  0  0
    7.5765   -2.9601   -1.9140 N   0  0  0  0  0  0  0  0  0  0  0  0
    8.2147   -2.6578   -0.7125 C   0  0  0  0  0  0  0  0  0  0  0  0
    7.2959   -2.1245    0.1587 C   0  0  0  0  0  0  0  0  0  0  0  0
    6.0347   -2.1387   -0.5186 C   0  0  0  0  0  0  0  0  0  0  0  0
    3.1492   -0.2531    1.2014 C   0  0  0  0  0  0  0  0  0  0  0  0
    3.0433    0.1385    2.4532 N   0  0  0  0  0  0  0  0  0  0  0  0
    2.8319    0.1592    5.3286 C   0  0  0  0  0  0  0  0  0  0  0  0
    1.0622   -3.1858    5.2106 C   0  0  0  0  0  0  0  0  0  0  0  0
    8.0387   -3.3079   -2.7582 H   0  0  0  0  0  0  0  0  0  0  0  0
   -2.2084   -5.2256    7.8582 H   0  0  0  0  0  0  0  0  0  0  0  0
   -2.5627   -3.7159    7.1078 H   0  0  0  0  0  0  0  0  0  0  0  0
   -1.4843   -3.7721    8.5120 H   0  0  0  0  0  0  0  0  0  0  0  0
   -0.8968   -4.9396    5.7597 H   0  0  0  0  0  0  0  0  0  0  0  0
    2.6303   -4.7726    7.0354 H   0  0  0  0  0  0  0  0  0  0  0  0
    3.0738   -7.0618    8.3548 H   0  0  0  0  0  0  0  0  0  0  0  0
   -1.4317   -2.6311    4.9230 H   0  0  0  0  0  0  0  0  0  0  0  0
   -1.5283   -1.7534    6.4702 H   0  0  0  0  0  0  0  0  0  0  0  0
   -0.4319   -0.6481    4.1895 H   0  0  0  0  0  0  0  0  0  0  0  0
    0.1055   -0.2446    5.8321 H   0  0  0  0  0  0  0  0  0  0  0  0
    1.6271   -1.7172    3.7859 H   0  0  0  0  0  0  0  0  0  0  0  0
    4.3714   -1.8349    6.2992 H   0  0  0  0  0  0  0  0  0  0  0  0
    3.8208   -2.6458    4.8185 H   0  0  0  0  0  0  0  0  0  0  0  0
    6.2433   -0.2474    4.5074 H   0  0  0  0  0  0  0  0  0  0  0  0
    5.4105    1.2952    4.4860 H   0  0  0  0  0  0  0  0  0  0  0  0
    5.5783   -1.9400    2.6374 H   0  0  0  0  0  0  0  0  0  0  0  0
    3.3094   -2.4905   -3.1034 H   0  0  0  0  0  0  0  0  0  0  0  0
    9.2802   -2.8031   -0.6028 H   0  0  0  0  0  0  0  0  0  0  0  0
    7.4610   -1.7558    1.1545 H   0  0  0  0  0  0  0  0  0  0  0  0
    2.4374    0.1204    0.4886 H   0  0  0  0  0  0  0  0  0  0  0  0
    2.0905    0.6936    4.7318 H   0  0  0  0  0  0  0  0  0  0  0  0
    3.0692    0.7474    6.2144 H   0  0  0  0  0  0  0  0  0  0  0  0
    2.0071   -3.6392    5.4964 H   0  0  0  0  0  0  0  0  0  0  0  0
    0.6662   -3.7492    4.3525 H   0  0  0  0  0  0  0  0  0  0  0  0
  1  2  1  0
  1 35  1  0
  1 36  1  0
  1 37  1  0
  2  3  1  0
  2  8  1  0
  2 38  1  6
  3  7  1  0
  3  4  2  0
  4  5  1  0
  4 39  1  0
  5  6  2  0
  5 40  1  0
  6  7  1  0
  8 33  1  0
  8  9  1  0
  9 10  1  0
  9 41  1  0
  9 42  1  0
 10 11  1  0
 10 43  1  0
 10 44  1  0
 11 12  1  0
 11 33  1  0
 11 45  1  6
 12 32  1  0
 12 13  1  0
 13 14  1  0
 13 46  1  0
 13 47  1  0
 14 15  1  0
 14 18  1  0
 14 32  1  0
 15 16  1  0
 15 48  1  0
 15 49  1  0
 16 17  3  0
 18 31  1  0
 18 19  1  0
 19 20  2  0
 19 50  1  0
 20 21  1  0
 20 30  1  0
 21 29  1  0
 21 22  2  0
 22 23  1  0
 23 24  2  0
 23 51  1  0
 24 25  1  0
 25 29  2  0
 25 26  1  0
 26 34  1  0
 26 27  1  0
 27 28  2  0
 27 52  1  0
 28 29  1  0
 28 53  1  0
 30 31  2  0
 30 54  1  0
 32 55  1  0
 32 56  1  0
 33 57  1  0
 33 58  1  0
M  END
>  <i_m_ct_stereo_status>  (325) 
1

>  <s_m_source_file>  (325) 
/var/tmp/pbs.5076255.sched01/tmp0i_w_vt9/132llf9lao3.sdf

>  <i_m_source_file_index>  (325) 
5

>  <i_lp_mmshare_version>  (325) 
48012

>  <i_f3d_flags>  (325) 
0

>  <s_epik_input>  (325) 
bzFuW2NIXVtjSF1jMVtDQEBIXShbQ0gzXSlOMltDSDJdW0NIMl1bQ0BIXShbQ0gyXTIpTihbQ0gyXTMpW0NIMl1DMyhbQ0gyXUMjTiluNFtjSF1jKFtjSF1uNCktYyhuW2NIXW41KWMoYzU2KVtjSF1bY0hdW25IXTY=

>  <s_epik_cmdline>  (325) 
J2VwaWtfcHl0aG9uJywgJy1waHQnLCAnMi4wJywgJy1waCcsICc3LjAnLCAnLXRuJywgJzgnLCAnLW1hJywgJzIwMCcsICctaW1hZScsICc8aW5maWxlLm1hZT4nLCAnLW9tYWUnLCAnPG91dGZpbGUubWFlPic=

>  <r_lp_tautomer_probability>  (325) 
0.999998

>  <r_epik_Ionization_Penalty>  (325) 
1.61891

>  <r_epik_Ionization_Penalty_Charging>  (325) 
0

>  <r_epik_Ionization_Penalty_Neutral>  (325) 
1.61891

>  <r_epik_State_Penalty>  (325) 
1.56382

>  <r_epik_Charging_Adjusted_Penalty>  (325) 
1.56382

>  <i_epik_Tot_Q>  (325) 
0

>  <i_epik_Tot_abs_Q>  (325) 
0

>  <s_lp_Force_Field>  (325) 
OPLS3e

>  <r_lp_Energy>  (325) 
26.8674

>  <b_lp_Chiralities_Consistent>  (325) 
1

>  <s_lp_Variant>  (325) 
92:0-2

>  <s_i_glide_gridfile>  (325) 
pfpi4k_grid

>  <i_i_glide_lignum>  (325) 
5

>  <i_i_glide_rotatable_bonds>  (325) 
7

>  <r_i_docking_score>  (325) 
-3.77712

>  <r_i_glide_ligand_efficiency>  (325) 
-0.114458

>  <r_i_glide_ligand_efficiency_sa>  (325) 
-0.367129

>  <r_i_glide_ligand_efficiency_ln>  (325) 
-0.840013

>  <r_i_glide_gscore>  (325) 
-3.77712

>  <r_i_glide_lipo>  (325) 
-0.21439

>  <r_i_glide_hbond>  (325) 
-0.317219

>  <r_i_glide_metal>  (325) 
-0

>  <r_i_glide_rewards>  (325) 
-1.29781

>  <r_i_glide_evdw>  (325) 
-32.9249

>  <r_i_glide_ecoul>  (325) 
-5.46515

>  <r_i_glide_erotb>  (325) 
0.609841

>  <r_i_glide_esite>  (325) 
-0.0915218

>  <r_i_glide_emodel>  (325) 
-46.1965

>  <r_i_glide_energy>  (325) 
-38.3901

>  <r_i_glide_einternal>  (325) 
3.45462

>  <r_i_glide_intrahb_reward>  (325) 
-0

>  <i_i_glide_confnum>  (325) 
5

>  <i_i_glide_posenum>  (325) 
23

>  <r_i_glide_eff_state_penalty>  (325) 
0

>  <ligand_id>  (325) 
92

>  <original_smiles>  (325) 
CC(c1ccno1)N1CCC(N2CC(CC#N)(n3cc(-c4ncnc5[nH]ccc45)cn3)C2)C1

>  <smiles>  (325) 
[H]c1nc(-c2c([H])nn(C3(C([H])([H])C#N)C([H])([H])N(C4([H])C([H])([H])N(C([H])(c5onc([H])c5[H])C([H])([H])[H])C([H])([H])C4([H])[H])C3([H])[H])c2[H])c2c([H])c([H])n([H])c2n1

$$$$
92:1:1
     RDKit          3D

 58 63  0  0  1  0  0  0  0  0999 V2000
    0.6935    3.9992    5.3844 C   0  0  0  0  0  0  0  0  0  0  0  0
    0.1893    2.5483    5.2543 C   0  0  2  0  0  0  0  0  0  0  0  0
    0.2761    1.8485    6.5881 C   0  0  0  0  0  0  0  0  0  0  0  0
    0.9195    2.1291    7.7614 C   0  0  0  0  0  0  0  0  0  0  0  0
    0.5855    1.0354    8.6054 C   0  0  0  0  0  0  0  0  0  0  0  0
   -0.1928    0.1585    7.9973 N   0  0  0  0  0  0  0  0  0  0  0  0
   -0.4250    0.6903    6.7250 O   0  0  0  0  0  0  0  0  0  0  0  0
    0.9171    1.8185    4.2057 N   0  0  0  0  0  0  0  0  0  0  0  0
    0.8285    2.4053    2.8795 C   0  0  0  0  0  0  0  0  0  0  0  0
    1.2982    1.3272    1.9001 C   0  0  0  0  0  0  0  0  0  0  0  0
    1.0762    0.0051    2.6520 C   0  0  1  0  0  0  0  0  0  0  0  0
    2.3211   -0.7091    2.9031 N   0  0  0  0  0  0  0  0  0  0  0  0
    2.2137   -1.9325    3.6727 C   0  0  0  0  0  0  0  0  0  0  0  0
    3.3326   -2.4928    2.7793 C   0  0  0  0  0  0  0  0  0  0  0  0
    4.7622   -2.3514    3.3355 C   0  0  0  0  0  0  0  0  0  0  0  0
    5.1143   -0.9838    3.7616 C   0  0  0  0  0  0  0  0  0  0  0  0
    5.3843    0.0910    4.0961 N   0  0  0  0  0  0  0  0  0  0  0  0
    3.1251   -3.8600    2.3519 N   0  0  0  0  0  0  0  0  0  0  0  0
    2.4655   -4.8806    3.0171 C   0  0  0  0  0  0  0  0  0  0  0  0
    2.5098   -5.9748    2.1998 C   0  0  0  0  0  0  0  0  0  0  0  0
    1.9410   -7.3171    2.4306 C   0  0  0  0  0  0  0  0  0  0  0  0
    2.6335   -8.3505    1.9009 N   0  0  0  0  0  0  0  0  0  0  0  0
    2.2035   -9.6002    2.0836 C   0  0  0  0  0  0  0  0  0  0  0  0
    1.1193  -10.0217    2.7362 N   0  0  0  0  0  0  0  0  0  0  0  0
    0.4061   -8.9790    3.2344 C   0  0  0  0  0  0  0  0  0  0  0  0
   -0.7724   -9.0474    3.9437 N   0  0  0  0  0  0  0  0  0  0  0  0
   -1.1845   -7.7715    4.2895 C   0  0  0  0  0  0  0  0  0  0  0  0
   -0.2714   -6.8534    3.8357 C   0  0  0  0  0  0  0  0  0  0  0  0
    0.7453   -7.5990    3.1422 C   0  0  0  0  0  0  0  0  0  0  0  0
    3.2394   -5.5469    1.0534 C   0  0  0  0  0  0  0  0  0  0  0  0
    3.6184   -4.2782    1.1614 N   0  0  0  0  0  0  0  0  0  0  0  0
    2.8961   -1.4046    1.7698 C   0  0  0  0  0  0  0  0  0  0  0  0
    0.4342    0.4726    3.9595 C   0  0  0  0  0  0  0  0  0  0  0  0
   -1.2422   -9.9073    4.2519 H   0  0  0  0  0  0  0  0  0  0  0  0
    0.1816    4.5208    6.1924 H   0  0  0  0  0  0  0  0  0  0  0  0
    0.5151    4.5709    4.4740 H   0  0  0  0  0  0  0  0  0  0  0  0
    1.7670    4.0355    5.5861 H   0  0  0  0  0  0  0  0  0  0  0  0
   -0.8673    2.5952    4.9867 H   0  0  0  0  0  0  0  0  0  0  0  0
    1.5392    2.9914    7.9691 H   0  0  0  0  0  0  0  0  0  0  0  0
    0.8630    0.8343    9.6326 H   0  0  0  0  0  0  0  0  0  0  0  0
   -0.2072    2.6635    2.6504 H   0  0  0  0  0  0  0  0  0  0  0  0
    1.4361    3.3033    2.7886 H   0  0  0  0  0  0  0  0  0  0  0  0
    0.7429    1.3555    0.9570 H   0  0  0  0  0  0  0  0  0  0  0  0
    2.3563    1.4820    1.6724 H   0  0  0  0  0  0  0  0  0  0  0  0
    0.3761   -0.6349    2.1163 H   0  0  0  0  0  0  0  0  0  0  0  0
    2.4737   -1.7982    4.7249 H   0  0  0  0  0  0  0  0  0  0  0  0
    1.2462   -2.4140    3.5741 H   0  0  0  0  0  0  0  0  0  0  0  0
    4.8927   -2.9841    4.2134 H   0  0  0  0  0  0  0  0  0  0  0  0
    5.5126   -2.6553    2.6033 H   0  0  0  0  0  0  0  0  0  0  0  0
    2.0151   -4.7481    3.9929 H   0  0  0  0  0  0  0  0  0  0  0  0
    2.8261  -10.3699    1.6559 H   0  0  0  0  0  0  0  0  0  0  0  0
   -2.0878   -7.6274    4.8714 H   0  0  0  0  0  0  0  0  0  0  0  0
   -0.2861   -5.7882    3.9735 H   0  0  0  0  0  0  0  0  0  0  0  0
    3.4909   -6.1002    0.1599 H   0  0  0  0  0  0  0  0  0  0  0  0
    2.1593   -1.7382    1.0478 H   0  0  0  0  0  0  0  0  0  0  0  0
    3.7011   -0.8491    1.2833 H   0  0  0  0  0  0  0  0  0  0  0  0
    0.6831   -0.1942    4.7833 H   0  0  0  0  0  0  0  0  0  0  0  0
   -0.6536    0.4803    3.8445 H   0  0  0  0  0  0  0  0  0  0  0  0
  1  2  1  0
  1 35  1  0
  1 36  1  0
  1 37  1  0
  2  3  1  0
  2  8  1  0
  2 38  1  6
  3  7  1  0
  3  4  2  0
  4  5  1  0
  4 39  1  0
  5  6  2  0
  5 40  1  0
  6  7  1  0
  8 33  1  0
  8  9  1  0
  9 10  1  0
  9 41  1  0
  9 42  1  0
 10 11  1  0
 10 43  1  0
 10 44  1  0
 11 12  1  0
 11 33  1  0
 11 45  1  6
 12 32  1  0
 12 13  1  0
 13 14  1  0
 13 46  1  0
 13 47  1  0
 14 15  1  0
 14 18  1  0
 14 32  1  0
 15 16  1  0
 15 48  1  0
 15 49  1  0
 16 17  3  0
 18 31  1  0
 18 19  1  0
 19 20  2  0
 19 50  1  0
 20 21  1  0
 20 30  1  0
 21 29  1  0
 21 22  2  0
 22 23  1  0
 23 24  2  0
 23 51  1  0
 24 25  1  0
 25 29  2  0
 25 26  1  0
 26 34  1  0
 26 27  1  0
 27 28  2  0
 27 52  1  0
 28 29  1  0
 28 53  1  0
 30 31  2  0
 30 54  1  0
 32 55  1  0
 32 56  1  0
 33 57  1  0
 33 58  1  0
M  END
>  <i_m_ct_stereo_status>  (326) 
1

>  <s_m_source_file>  (326) 
/var/tmp/pbs.5076255.sched01/tmp0i_w_vt9/132llf9lao3.sdf

>  <i_m_source_file_index>  (326) 
5

>  <i_lp_mmshare_version>  (326) 
48012

>  <i_f3d_flags>  (326) 
0

>  <s_epik_input>  (326) 
bzFuW2NIXVtjSF1jMVtDQEBIXShbQ0gzXSlOMltDSDJdW0NIMl1bQ0BIXShbQ0gyXTIpTihbQ0gyXTMpW0NIMl1DMyhbQ0gyXUMjTiluNFtjSF1jKFtjSF1uNCktYyhuW2NIXW41KWMoYzU2KVtjSF1bY0hdW25IXTY=

>  <s_epik_cmdline>  (326) 
J2VwaWtfcHl0aG9uJywgJy1waHQnLCAnMi4wJywgJy1waCcsICc3LjAnLCAnLXRuJywgJzgnLCAnLW1hJywgJzIwMCcsICctaW1hZScsICc8aW5maWxlLm1hZT4nLCAnLW9tYWUnLCAnPG91dGZpbGUubWFlPic=

>  <r_lp_tautomer_probability>  (326) 
0.999998

>  <r_epik_Ionization_Penalty>  (326) 
1.61891

>  <r_epik_Ionization_Penalty_Charging>  (326) 
0

>  <r_epik_Ionization_Penalty_Neutral>  (326) 
1.61891

>  <r_epik_State_Penalty>  (326) 
1.56382

>  <r_epik_Charging_Adjusted_Penalty>  (326) 
1.56382

>  <i_epik_Tot_Q>  (326) 
0

>  <i_epik_Tot_abs_Q>  (326) 
0

>  <s_lp_Force_Field>  (326) 
OPLS3e

>  <r_lp_Energy>  (326) 
26.8674

>  <b_lp_Chiralities_Consistent>  (326) 
1

>  <s_lp_Variant>  (326) 
92:0-2

>  <s_i_glide_gridfile>  (326) 
pfpi4k_grid

>  <i_i_glide_lignum>  (326) 
5

>  <i_i_glide_rotatable_bonds>  (326) 
7

>  <r_i_docking_score>  (326) 
-2.93159

>  <r_i_glide_ligand_efficiency>  (326) 
-0.088836

>  <r_i_glide_ligand_efficiency_sa>  (326) 
-0.284944

>  <r_i_glide_ligand_efficiency_ln>  (326) 
-0.65197

>  <r_i_glide_gscore>  (326) 
-2.93159

>  <r_i_glide_lipo>  (326) 
-0.0416932

>  <r_i_glide_hbond>  (326) 
-0.16

>  <r_i_glide_metal>  (326) 
-0

>  <r_i_glide_rewards>  (326) 
-0.600975

>  <r_i_glide_evdw>  (326) 
-30.221

>  <r_i_glide_ecoul>  (326) 
-6.80591

>  <r_i_glide_erotb>  (326) 
0.609841

>  <r_i_glide_esite>  (326) 
-0.206824

>  <r_i_glide_emodel>  (326) 
-44.1677

>  <r_i_glide_energy>  (326) 
-37.0269

>  <r_i_glide_einternal>  (326) 
1.35216

>  <r_i_glide_intrahb_reward>  (326) 
-0

>  <i_i_glide_confnum>  (326) 
12

>  <i_i_glide_posenum>  (326) 
1

>  <r_i_glide_eff_state_penalty>  (326) 
0

>  <ligand_id>  (326) 
92

>  <original_smiles>  (326) 
CC(c1ccno1)N1CCC(N2CC(CC#N)(n3cc(-c4ncnc5[nH]ccc45)cn3)C2)C1

>  <smiles>  (326) 
[H]c1nc(-c2c([H])nn(C3(C([H])([H])C#N)C([H])([H])N(C4([H])C([H])([H])N(C([H])(c5onc([H])c5[H])C([H])([H])[H])C([H])([H])C4([H])[H])C3([H])[H])c2[H])c2c([H])c([H])n([H])c2n1

$$$$
92:1:2
     RDKit          3D

 58 63  0  0  1  0  0  0  0  0999 V2000
    3.6603  -11.2840    3.2773 C   0  0  0  0  0  0  0  0  0  0  0  0
    3.2595   -9.9307    2.6168 C   0  0  2  0  0  0  0  0  0  0  0  0
    4.5156   -9.1477    2.2326 C   0  0  0  0  0  0  0  0  0  0  0  0
    4.9695   -7.8661    2.3959 C   0  0  0  0  0  0  0  0  0  0  0  0
    6.2121   -7.8421    1.7025 C   0  0  0  0  0  0  0  0  0  0  0  0
    6.5408   -9.0278    1.2227 N   0  0  0  0  0  0  0  0  0  0  0  0
    5.4461   -9.8496    1.5221 O   0  0  0  0  0  0  0  0  0  0  0  0
    2.3272   -9.1620    3.4734 N   0  0  0  0  0  0  0  0  0  0  0  0
    1.1140   -9.8668    3.8634 C   0  0  0  0  0  0  0  0  0  0  0  0
    0.1853   -8.7936    4.4594 C   0  0  0  0  0  0  0  0  0  0  0  0
    0.7013   -7.4719    3.8369 C   0  0  1  0  0  0  0  0  0  0  0  0
    1.2689   -6.5552    4.8366 N   0  0  0  0  0  0  0  0  0  0  0  0
    1.6732   -5.2325    4.3790 C   0  0  0  0  0  0  0  0  0  0  0  0
    1.1609   -4.6981    5.7469 C   0  0  0  0  0  0  0  0  0  0  0  0
    2.2168   -4.5322    6.8494 C   0  0  0  0  0  0  0  0  0  0  0  0
    3.0888   -5.7018    7.0309 C   0  0  0  0  0  0  0  0  0  0  0  0
    3.7723   -6.6234    7.1651 N   0  0  0  0  0  0  0  0  0  0  0  0
    0.3981   -3.4779    5.6719 N   0  0  0  0  0  0  0  0  0  0  0  0
    0.6598   -2.3268    4.9540 C   0  0  0  0  0  0  0  0  0  0  0  0
   -0.3736   -1.4757    5.1662 C   0  0  0  0  0  0  0  0  0  0  0  0
   -0.6023   -0.1241    4.6278 C   0  0  0  0  0  0  0  0  0  0  0  0
   -1.5290    0.6287    5.2642 N   0  0  0  0  0  0  0  0  0  0  0  0
   -1.7772    1.8671    4.8482 C   0  0  0  0  0  0  0  0  0  0  0  0
   -1.2263    2.5371    3.8372 N   0  0  0  0  0  0  0  0  0  0  0  0
   -0.3002    1.7742    3.1928 C   0  0  0  0  0  0  0  0  0  0  0  0
    0.4397    2.1371    2.0863 N   0  0  0  0  0  0  0  0  0  0  0  0
    1.2806    1.0877    1.7253 C   0  0  0  0  0  0  0  0  0  0  0  0
    1.0761    0.0305    2.5736 C   0  0  0  0  0  0  0  0  0  0  0  0
    0.0821    0.4483    3.5162 C   0  0  0  0  0  0  0  0  0  0  0  0
   -1.2481   -2.1853    6.0516 C   0  0  0  0  0  0  0  0  0  0  0  0
   -0.7318   -3.3531    6.4150 N   0  0  0  0  0  0  0  0  0  0  0  0
    0.3326   -6.0033    5.7879 C   0  0  0  0  0  0  0  0  0  0  0  0
    1.7891   -7.9421    2.8747 C   0  0  0  0  0  0  0  0  0  0  0  0
    0.3370    3.0382    1.6065 H   0  0  0  0  0  0  0  0  0  0  0  0
    4.3287  -11.8813    2.6392 H   0  0  0  0  0  0  0  0  0  0  0  0
    2.8046  -11.9441    3.4620 H   0  0  0  0  0  0  0  0  0  0  0  0
    4.1717  -11.1403    4.2304 H   0  0  0  0  0  0  0  0  0  0  0  0
    2.7574  -10.2153    1.6881 H   0  0  0  0  0  0  0  0  0  0  0  0
    4.4780   -7.0257    2.8962 H   0  0  0  0  0  0  0  0  0  0  0  0
    6.8599   -7.0006    1.5335 H   0  0  0  0  0  0  0  0  0  0  0  0
    0.6339  -10.2987    2.9762 H   0  0  0  0  0  0  0  0  0  0  0  0
    1.2952  -10.6638    4.5919 H   0  0  0  0  0  0  0  0  0  0  0  0
   -0.8738   -8.9664    4.2105 H   0  0  0  0  0  0  0  0  0  0  0  0
    0.2897   -8.8091    5.5551 H   0  0  0  0  0  0  0  0  0  0  0  0
   -0.0712   -6.9608    3.2718 H   0  0  0  0  0  0  0  0  0  0  0  0
    2.7384   -5.1114    4.1896 H   0  0  0  0  0  0  0  0  0  0  0  0
    1.1207   -4.8974    3.5190 H   0  0  0  0  0  0  0  0  0  0  0  0
    2.8824   -3.7003    6.6239 H   0  0  0  0  0  0  0  0  0  0  0  0
    1.7569   -4.3222    7.8177 H   0  0  0  0  0  0  0  0  0  0  0  0
    1.5486   -2.2298    4.3395 H   0  0  0  0  0  0  0  0  0  0  0  0
   -2.5126    2.4096    5.4259 H   0  0  0  0  0  0  0  0  0  0  0  0
    1.9431    1.1380    0.8871 H   0  0  0  0  0  0  0  0  0  0  0  0
    1.5465   -0.9293    2.5276 H   0  0  0  0  0  0  0  0  0  0  0  0
   -2.2142   -1.8930    6.4172 H   0  0  0  0  0  0  0  0  0  0  0  0
   -0.6600   -5.9268    5.3611 H   0  0  0  0  0  0  0  0  0  0  0  0
    0.3029   -6.5289    6.7479 H   0  0  0  0  0  0  0  0  0  0  0  0
    2.5150   -7.1239    2.7854 H   0  0  0  0  0  0  0  0  0  0  0  0
    1.3438   -8.1881    1.8947 H   0  0  0  0  0  0  0  0  0  0  0  0
  1  2  1  0
  1 35  1  0
  1 36  1  0
  1 37  1  0
  2  3  1  0
  2  8  1  0
  2 38  1  6
  3  7  1  0
  3  4  2  0
  4  5  1  0
  4 39  1  0
  5  6  2  0
  5 40  1  0
  6  7  1  0
  8 33  1  0
  8  9  1  0
  9 10  1  0
  9 41  1  0
  9 42  1  0
 10 11  1  0
 10 43  1  0
 10 44  1  0
 11 12  1  0
 11 33  1  0
 11 45  1  6
 12 32  1  0
 12 13  1  0
 13 14  1  0
 13 46  1  0
 13 47  1  0
 14 15  1  0
 14 18  1  0
 14 32  1  0
 15 16  1  0
 15 48  1  0
 15 49  1  0
 16 17  3  0
 18 31  1  0
 18 19  1  0
 19 20  2  0
 19 50  1  0
 20 21  1  0
 20 30  1  0
 21 29  1  0
 21 22  2  0
 22 23  1  0
 23 24  2  0
 23 51  1  0
 24 25  1  0
 25 29  2  0
 25 26  1  0
 26 34  1  0
 26 27  1  0
 27 28  2  0
 27 52  1  0
 28 29  1  0
 28 53  1  0
 30 31  2  0
 30 54  1  0
 32 55  1  0
 32 56  1  0
 33 57  1  0
 33 58  1  0
M  END
>  <i_m_ct_stereo_status>  (327) 
1

>  <s_m_source_file>  (327) 
/var/tmp/pbs.5076255.sched01/tmp0i_w_vt9/132llf9lao3.sdf

>  <i_m_source_file_index>  (327) 
5

>  <i_lp_mmshare_version>  (327) 
48012

>  <i_f3d_flags>  (327) 
0

>  <s_epik_input>  (327) 
bzFuW2NIXVtjSF1jMVtDQEBIXShbQ0gzXSlOMltDSDJdW0NIMl1bQ0BIXShbQ0gyXTIpTihbQ0gyXTMpW0NIMl1DMyhbQ0gyXUMjTiluNFtjSF1jKFtjSF1uNCktYyhuW2NIXW41KWMoYzU2KVtjSF1bY0hdW25IXTY=

>  <s_epik_cmdline>  (327) 
J2VwaWtfcHl0aG9uJywgJy1waHQnLCAnMi4wJywgJy1waCcsICc3LjAnLCAnLXRuJywgJzgnLCAnLW1hJywgJzIwMCcsICctaW1hZScsICc8aW5maWxlLm1hZT4nLCAnLW9tYWUnLCAnPG91dGZpbGUubWFlPic=

>  <r_lp_tautomer_probability>  (327) 
0.999998

>  <r_epik_Ionization_Penalty>  (327) 
1.61891

>  <r_epik_Ionization_Penalty_Charging>  (327) 
0

>  <r_epik_Ionization_Penalty_Neutral>  (327) 
1.61891

>  <r_epik_State_Penalty>  (327) 
1.56382

>  <r_epik_Charging_Adjusted_Penalty>  (327) 
1.56382

>  <i_epik_Tot_Q>  (327) 
0

>  <i_epik_Tot_abs_Q>  (327) 
0

>  <s_lp_Force_Field>  (327) 
OPLS3e

>  <r_lp_Energy>  (327) 
26.8674

>  <b_lp_Chiralities_Consistent>  (327) 
1

>  <s_lp_Variant>  (327) 
92:0-2

>  <s_i_glide_gridfile>  (327) 
pfpi4k_grid

>  <i_i_glide_lignum>  (327) 
5

>  <i_i_glide_rotatable_bonds>  (327) 
7

>  <r_i_docking_score>  (327) 
-2.89242

>  <r_i_glide_ligand_efficiency>  (327) 
-0.087649

>  <r_i_glide_ligand_efficiency_sa>  (327) 
-0.281137

>  <r_i_glide_ligand_efficiency_ln>  (327) 
-0.643259

>  <r_i_glide_gscore>  (327) 
-2.89242

>  <r_i_glide_lipo>  (327) 
-0.100695

>  <r_i_glide_hbond>  (327) 
-0.16

>  <r_i_glide_metal>  (327) 
-0

>  <r_i_glide_rewards>  (327) 
-0.385198

>  <r_i_glide_evdw>  (327) 
-30.2511

>  <r_i_glide_ecoul>  (327) 
-7.40079

>  <r_i_glide_erotb>  (327) 
0.609841

>  <r_i_glide_esite>  (327) 
-0.233691

>  <r_i_glide_emodel>  (327) 
-43.5697

>  <r_i_glide_energy>  (327) 
-37.6519

>  <r_i_glide_einternal>  (327) 
2.31285

>  <r_i_glide_intrahb_reward>  (327) 
-0

>  <i_i_glide_confnum>  (327) 
12

>  <i_i_glide_posenum>  (327) 
2

>  <r_i_glide_eff_state_penalty>  (327) 
0

>  <ligand_id>  (327) 
92

>  <original_smiles>  (327) 
CC(c1ccno1)N1CCC(N2CC(CC#N)(n3cc(-c4ncnc5[nH]ccc45)cn3)C2)C1

>  <smiles>  (327) 
[H]c1nc(-c2c([H])nn(C3(C([H])([H])C#N)C([H])([H])N(C4([H])C([H])([H])N(C([H])(c5onc([H])c5[H])C([H])([H])[H])C([H])([H])C4([H])[H])C3([H])[H])c2[H])c2c([H])c([H])n([H])c2n1

$$$$
92:2:0
     RDKit          3D

 59 64  0  0  1  0  0  0  0  0999 V2000
    0.6415    2.1400    4.4988 C   0  0  0  0  0  0  0  0  0  0  0  0
    0.4639    0.8705    3.6313 C   0  0  2  0  0  0  0  0  0  0  0  0
   -0.1030   -0.2781    4.4397 C   0  0  0  0  0  0  0  0  0  0  0  0
    0.3180   -1.5598    4.6949 C   0  0  0  0  0  0  0  0  0  0  0  0
   -0.7205   -2.1180    5.4682 C   0  0  0  0  0  0  0  0  0  0  0  0
   -1.7169   -1.2749    5.6525 N   0  0  0  0  0  0  0  0  0  0  0  0
   -1.3207   -0.0925    5.0186 O   0  0  0  0  0  0  0  0  0  0  0  0
    1.7022    0.5063    2.9332 N   0  0  0  0  0  0  0  0  0  0  0  0
    2.8399    0.3224    3.8489 C   0  0  0  0  0  0  0  0  0  0  0  0
    3.8732   -0.3921    2.9966 C   0  0  0  0  0  0  0  0  0  0  0  0
    3.0759   -0.9784    1.8015 C   0  0  1  0  0  0  0  0  0  0  0  0
    3.3425   -2.4454    1.6883 N   0  0  2  0  0  0  0  0  0  0  0  0
    4.6785   -2.7795    1.2001 C   0  0  0  0  0  0  0  0  0  0  0  0
    4.0454   -3.8859    0.3397 C   0  0  1  0  0  0  0  0  0  0  0  0
    4.6056   -4.0338   -1.0872 C   0  0  0  0  0  0  0  0  0  0  0  0
    5.6738   -3.0700   -1.4199 C   0  0  0  0  0  0  0  0  0  0  0  0
    6.5106   -2.3077   -1.6732 N   0  0  0  0  0  0  0  0  0  0  0  0
    3.9889   -5.1837    0.9765 N   0  0  0  0  0  0  0  0  0  0  0  0
    2.8787   -5.9635    1.2656 C   0  0  0  0  0  0  0  0  0  0  0  0
    3.3429   -7.0818    1.8922 C   0  0  0  0  0  0  0  0  0  0  0  0
    2.5542   -8.2076    2.4348 C   0  0  0  0  0  0  0  0  0  0  0  0
    3.1658   -9.4100    2.4347 N   0  0  0  0  0  0  0  0  0  0  0  0
    2.5219  -10.4831    2.8935 C   0  0  0  0  0  0  0  0  0  0  0  0
    1.2887  -10.5529    3.4018 N   0  0  0  0  0  0  0  0  0  0  0  0
    0.6794   -9.3367    3.4115 C   0  0  0  0  0  0  0  0  0  0  0  0
   -0.5799   -9.0454    3.8916 N   0  0  0  0  0  0  0  0  0  0  0  0
   -0.8543   -7.7048    3.7258 C   0  0  0  0  0  0  0  0  0  0  0  0
    0.2286   -7.0925    3.1571 C   0  0  0  0  0  0  0  0  0  0  0  0
    1.2235   -8.1130    2.9443 C   0  0  0  0  0  0  0  0  0  0  0  0
    4.7588   -6.9397    1.9039 C   0  0  0  0  0  0  0  0  0  0  0  0
    5.1384   -5.7952    1.3411 N   0  0  0  0  0  0  0  0  0  0  0  0
    2.7831   -3.0302    0.4759 C   0  0  0  0  0  0  0  0  0  0  0  0
    1.6007   -0.6731    2.0733 C   0  0  0  0  0  0  0  0  0  0  0  0
   -1.2042   -9.7428    4.3119 H   0  0  0  0  0  0  0  0  0  0  0  0
   -0.2854    2.3805    5.0173 H   0  0  0  0  0  0  0  0  0  0  0  0
    0.9239    3.0049    3.9008 H   0  0  0  0  0  0  0  0  0  0  0  0
    1.3937    1.9990    5.2696 H   0  0  0  0  0  0  0  0  0  0  0  0
   -0.2456    1.1192    2.8423 H   0  0  0  0  0  0  0  0  0  0  0  0
    1.2477   -2.0201    4.3460 H   0  0  0  0  0  0  0  0  0  0  0  0
   -0.8005   -3.1278    5.8358 H   0  0  0  0  0  0  0  0  0  0  0  0
    3.2461    1.2591    4.2635 H   0  0  0  0  0  0  0  0  0  0  0  0
    2.5565   -0.3073    4.6970 H   0  0  0  0  0  0  0  0  0  0  0  0
    4.6259    0.3166    2.6161 H   0  0  0  0  0  0  0  0  0  0  0  0
    4.4212   -1.1332    3.6097 H   0  0  0  0  0  0  0  0  0  0  0  0
    3.4110   -0.4505    0.8939 H   0  0  0  0  0  0  0  0  0  0  0  0
    5.0767   -1.9248    0.6603 H   0  0  0  0  0  0  0  0  0  0  0  0
    5.3821   -3.1000    1.9700 H   0  0  0  0  0  0  0  0  0  0  0  0
    5.0040   -5.0266   -1.2916 H   0  0  0  0  0  0  0  0  0  0  0  0
    3.8219   -3.8716   -1.8260 H   0  0  0  0  0  0  0  0  0  0  0  0
    1.8681   -5.6647    1.0556 H   0  0  0  0  0  0  0  0  0  0  0  0
    3.0672  -11.4117    2.8470 H   0  0  0  0  0  0  0  0  0  0  0  0
   -1.8060   -7.2990    4.0462 H   0  0  0  0  0  0  0  0  0  0  0  0
    0.3549   -6.0419    2.9234 H   0  0  0  0  0  0  0  0  0  0  0  0
    5.5109   -7.6097    2.3088 H   0  0  0  0  0  0  0  0  0  0  0  0
    1.8385   -3.5561    0.6414 H   0  0  0  0  0  0  0  0  0  0  0  0
    2.6589   -2.2954   -0.3265 H   0  0  0  0  0  0  0  0  0  0  0  0
    1.1823   -1.5396    2.5814 H   0  0  0  0  0  0  0  0  0  0  0  0
    1.0834   -0.4255    1.1266 H   0  0  0  0  0  0  0  0  0  0  0  0
    3.1246   -3.0122    2.5080 H   0  0  0  0  0  0  0  0  0  0  0  0
  1  2  1  0
  1 35  1  0
  1 36  1  0
  1 37  1  0
  2  3  1  0
  2  8  1  0
  2 38  1  6
  3  7  1  0
  3  4  2  0
  4  5  1  0
  4 39  1  0
  5  6  2  0
  5 40  1  0
  6  7  1  0
  8 33  1  0
  8  9  1  0
  9 10  1  0
  9 41  1  0
  9 42  1  0
 10 11  1  0
 10 43  1  0
 10 44  1  0
 11 12  1  0
 11 33  1  0
 11 45  1  6
 12 32  1  0
 12 13  1  0
 12 59  1  1
 13 14  1  0
 13 46  1  0
 13 47  1  0
 14 15  1  6
 14 18  1  0
 14 32  1  0
 15 16  1  0
 15 48  1  0
 15 49  1  0
 16 17  3  0
 18 31  1  0
 18 19  1  0
 19 20  2  0
 19 50  1  0
 20 21  1  0
 20 30  1  0
 21 29  1  0
 21 22  2  0
 22 23  1  0
 23 24  2  0
 23 51  1  0
 24 25  1  0
 25 29  2  0
 25 26  1  0
 26 34  1  0
 26 27  1  0
 27 28  2  0
 27 52  1  0
 28 29  1  0
 28 53  1  0
 30 31  2  0
 30 54  1  0
 32 55  1  0
 32 56  1  0
 33 57  1  0
 33 58  1  0
M  CHG  1  12   1
M  END
>  <i_m_ct_stereo_status>  (328) 
1

>  <s_m_source_file>  (328) 
/var/tmp/pbs.5076255.sched01/tmp0i_w_vt9/132llf9lao3.sdf

>  <i_m_source_file_index>  (328) 
6

>  <i_lp_mmshare_version>  (328) 
48012

>  <i_f3d_flags>  (328) 
0

>  <s_epik_input>  (328) 
bzFuW2NIXVtjSF1jMVtDQEBIXShbQ0gzXSlOMltDSDJdW0NIMl1bQ0BIXShbQ0gyXTIpTihbQ0gyXTMpW0NIMl1DMyhbQ0gyXUMjTiluNFtjSF1jKFtjSF1uNCktYyhuW2NIXW41KWMoYzU2KVtjSF1bY0hdW25IXTY=

>  <s_epik_cmdline>  (328) 
J2VwaWtfcHl0aG9uJywgJy1waHQnLCAnMi4wJywgJy1waCcsICc3LjAnLCAnLXRuJywgJzgnLCAnLW1hJywgJzIwMCcsICctaW1hZScsICc8aW5maWxlLm1hZT4nLCAnLW9tYWUnLCAnPG91dGZpbGUubWFlPic=

>  <r_epik_Ionization_Penalty>  (328) 
0.87349

>  <r_epik_Ionization_Penalty_Charging>  (328) 
0.873285

>  <r_epik_Ionization_Penalty_Neutral>  (328) 
0.000204608

>  <r_epik_State_Penalty>  (328) 
2.33125

>  <r_epik_Charging_Adjusted_Penalty>  (328) 
3.20453

>  <i_epik_Tot_Q>  (328) 
1

>  <i_epik_Tot_abs_Q>  (328) 
1

>  <s_lp_Force_Field>  (328) 
OPLS3e

>  <r_lp_Energy>  (328) 
31.7164

>  <b_lp_Chiralities_Consistent>  (328) 
1

>  <s_lp_Variant>  (328) 
92:0-3

>  <s_i_glide_gridfile>  (328) 
pfpi4k_grid

>  <i_i_glide_lignum>  (328) 
6

>  <i_i_glide_rotatable_bonds>  (328) 
7

>  <r_i_docking_score>  (328) 
-3.84331

>  <r_i_glide_ligand_efficiency>  (328) 
-0.116464

>  <r_i_glide_ligand_efficiency_sa>  (328) 
-0.373562

>  <r_i_glide_ligand_efficiency_ln>  (328) 
-0.854732

>  <r_i_glide_gscore>  (328) 
-3.84331

>  <r_i_glide_lipo>  (328) 
-0.142838

>  <r_i_glide_hbond>  (328) 
-0.292121

>  <r_i_glide_metal>  (328) 
-0

>  <r_i_glide_rewards>  (328) 
-0.491831

>  <r_i_glide_evdw>  (328) 
-33.6926

>  <r_i_glide_ecoul>  (328) 
-10.7562

>  <r_i_glide_erotb>  (328) 
0.607332

>  <r_i_glide_esite>  (328) 
-0.225787

>  <r_i_glide_emodel>  (328) 
-47.8101

>  <r_i_glide_energy>  (328) 
-44.4488

>  <r_i_glide_einternal>  (328) 
12.5562

>  <r_i_glide_intrahb_reward>  (328) 
-0

>  <i_i_glide_confnum>  (328) 
10

>  <i_i_glide_posenum>  (328) 
39

>  <r_i_glide_eff_state_penalty>  (328) 
0

>  <ligand_id>  (328) 
92

>  <original_smiles>  (328) 
CC(c1ccno1)N1CCC(N2CC(CC#N)(n3cc(-c4ncnc5[nH]ccc45)cn3)C2)C1

>  <smiles>  (328) 
[H]c1nc(-c2c([H])nn(C3(C([H])([H])C#N)C([H])([H])[N+]([H])(C4([H])C([H])([H])N(C([H])(c5onc([H])c5[H])C([H])([H])[H])C([H])([H])C4([H])[H])C3([H])[H])c2[H])c2c([H])c([H])n([H])c2n1

$$$$
92:2:1
     RDKit          3D

 59 64  0  0  1  0  0  0  0  0999 V2000
    1.1492   -7.9311    3.7971 C   0  0  0  0  0  0  0  0  0  0  0  0
    1.9757   -7.0853    2.8014 C   0  0  2  0  0  0  0  0  0  0  0  0
    3.0039   -7.9307    2.1015 C   0  0  0  0  0  0  0  0  0  0  0  0
    3.4189   -9.2178    2.2659 C   0  0  0  0  0  0  0  0  0  0  0  0
    4.4339   -9.3711    1.2805 C   0  0  0  0  0  0  0  0  0  0  0  0
    4.6160   -8.2690    0.5764 N   0  0  0  0  0  0  0  0  0  0  0  0
    3.6898   -7.3544    1.0800 O   0  0  0  0  0  0  0  0  0  0  0  0
    2.5747   -5.9298    3.4839 N   0  0  0  0  0  0  0  0  0  0  0  0
    3.1178   -4.9287    2.5618 C   0  0  0  0  0  0  0  0  0  0  0  0
    3.3867   -3.7012    3.4220 C   0  0  0  0  0  0  0  0  0  0  0  0
    2.4972   -3.9166    4.6324 C   0  0  1  0  0  0  0  0  0  0  0  0
    1.6471   -2.7362    4.9010 N   0  0  2  0  0  0  0  0  0  0  0  0
    2.3643   -1.5819    5.4315 C   0  0  0  0  0  0  0  0  0  0  0  0
    1.1673   -1.3085    6.3587 C   0  0  1  0  0  0  0  0  0  0  0  0
    1.5177   -0.8835    7.7968 C   0  0  0  0  0  0  0  0  0  0  0  0
    2.5124   -1.7600    8.4385 C   0  0  0  0  0  0  0  0  0  0  0  0
    3.2927   -2.4534    8.9313 N   0  0  0  0  0  0  0  0  0  0  0  0
    0.1757   -0.4075    5.8169 N   0  0  0  0  0  0  0  0  0  0  0  0
    0.3633    0.8532    5.2841 C   0  0  0  0  0  0  0  0  0  0  0  0
   -0.8520    1.2653    4.8315 C   0  0  0  0  0  0  0  0  0  0  0  0
   -1.2062    2.5246    4.1547 C   0  0  0  0  0  0  0  0  0  0  0  0
   -2.4667    2.6215    3.6752 N   0  0  0  0  0  0  0  0  0  0  0  0
   -2.8673    3.7269    3.0482 C   0  0  0  0  0  0  0  0  0  0  0  0
   -2.2124    4.8720    2.8671 N   0  0  0  0  0  0  0  0  0  0  0  0
   -0.9329    4.7664    3.3457 C   0  0  0  0  0  0  0  0  0  0  0  0
    0.0293    5.7462    3.3234 N   0  0  0  0  0  0  0  0  0  0  0  0
    1.2008    5.2861    3.9049 C   0  0  0  0  0  0  0  0  0  0  0  0
    1.0040    4.0015    4.3465 C   0  0  0  0  0  0  0  0  0  0  0  0
   -0.3483    3.6442    4.0040 C   0  0  0  0  0  0  0  0  0  0  0  0
   -1.7419    0.1905    5.1309 C   0  0  0  0  0  0  0  0  0  0  0  0
   -1.1293   -0.7778    5.7871 N   0  0  0  0  0  0  0  0  0  0  0  0
    0.8924   -2.8144    6.1459 C   0  0  0  0  0  0  0  0  0  0  0  0
    1.6664   -5.1513    4.3112 C   0  0  0  0  0  0  0  0  0  0  0  0
   -0.0482    6.6650    2.8631 H   0  0  0  0  0  0  0  0  0  0  0  0
    0.7316   -8.8042    3.2955 H   0  0  0  0  0  0  0  0  0  0  0  0
    0.2956   -7.3884    4.2065 H   0  0  0  0  0  0  0  0  0  0  0  0
    1.7565   -8.2859    4.6348 H   0  0  0  0  0  0  0  0  0  0  0  0
    1.2874   -6.7037    2.0505 H   0  0  0  0  0  0  0  0  0  0  0  0
    3.0438   -9.9447    2.9775 H   0  0  0  0  0  0  0  0  0  0  0  0
    5.0373  -10.2372    1.0356 H   0  0  0  0  0  0  0  0  0  0  0  0
    4.0453   -5.2364    2.0753 H   0  0  0  0  0  0  0  0  0  0  0  0
    2.3751   -4.6978    1.7885 H   0  0  0  0  0  0  0  0  0  0  0  0
    4.4301   -3.6721    3.7343 H   0  0  0  0  0  0  0  0  0  0  0  0
    3.1896   -2.7875    2.8577 H   0  0  0  0  0  0  0  0  0  0  0  0
    3.1407   -4.1530    5.4847 H   0  0  0  0  0  0  0  0  0  0  0  0
    3.2806   -1.8615    5.9547 H   0  0  0  0  0  0  0  0  0  0  0  0
    2.5885   -0.8069    4.6969 H   0  0  0  0  0  0  0  0  0  0  0  0
    1.9319    0.1199    7.8310 H   0  0  0  0  0  0  0  0  0  0  0  0
    0.6442   -0.8957    8.4405 H   0  0  0  0  0  0  0  0  0  0  0  0
    1.3404    1.3161    5.2390 H   0  0  0  0  0  0  0  0  0  0  0  0
   -3.8902    3.7190    2.7105 H   0  0  0  0  0  0  0  0  0  0  0  0
    2.0842    5.9010    3.9497 H   0  0  0  0  0  0  0  0  0  0  0  0
    1.7197    3.3795    4.8423 H   0  0  0  0  0  0  0  0  0  0  0  0
   -2.7894    0.0650    4.9076 H   0  0  0  0  0  0  0  0  0  0  0  0
   -0.1464   -3.1344    6.0217 H   0  0  0  0  0  0  0  0  0  0  0  0
    1.3661   -3.4542    6.8920 H   0  0  0  0  0  0  0  0  0  0  0  0
    0.7602   -4.9122    3.7483 H   0  0  0  0  0  0  0  0  0  0  0  0
    1.3821   -5.6709    5.2257 H   0  0  0  0  0  0  0  0  0  0  0  0
    1.0318   -2.4265    4.1539 H   0  0  0  0  0  0  0  0  0  0  0  0
  1  2  1  0
  1 35  1  0
  1 36  1  0
  1 37  1  0
  2  3  1  0
  2  8  1  0
  2 38  1  6
  3  7  1  0
  3  4  2  0
  4  5  1  0
  4 39  1  0
  5  6  2  0
  5 40  1  0
  6  7  1  0
  8 33  1  0
  8  9  1  0
  9 10  1  0
  9 41  1  0
  9 42  1  0
 10 11  1  0
 10 43  1  0
 10 44  1  0
 11 12  1  0
 11 33  1  0
 11 45  1  1
 12 32  1  0
 12 13  1  0
 12 59  1  6
 13 14  1  0
 13 46  1  0
 13 47  1  0
 14 15  1  1
 14 18  1  0
 14 32  1  0
 15 16  1  0
 15 48  1  0
 15 49  1  0
 16 17  3  0
 18 31  1  0
 18 19  1  0
 19 20  2  0
 19 50  1  0
 20 21  1  0
 20 30  1  0
 21 29  1  0
 21 22  2  0
 22 23  1  0
 23 24  2  0
 23 51  1  0
 24 25  1  0
 25 29  2  0
 25 26  1  0
 26 34  1  0
 26 27  1  0
 27 28  2  0
 27 52  1  0
 28 29  1  0
 28 53  1  0
 30 31  2  0
 30 54  1  0
 32 55  1  0
 32 56  1  0
 33 57  1  0
 33 58  1  0
M  CHG  1  12   1
M  END
>  <i_m_ct_stereo_status>  (329) 
1

>  <s_m_source_file>  (329) 
/var/tmp/pbs.5076255.sched01/tmp0i_w_vt9/132llf9lao3.sdf

>  <i_m_source_file_index>  (329) 
6

>  <i_lp_mmshare_version>  (329) 
48012

>  <i_f3d_flags>  (329) 
0

>  <s_epik_input>  (329) 
bzFuW2NIXVtjSF1jMVtDQEBIXShbQ0gzXSlOMltDSDJdW0NIMl1bQ0BIXShbQ0gyXTIpTihbQ0gyXTMpW0NIMl1DMyhbQ0gyXUMjTiluNFtjSF1jKFtjSF1uNCktYyhuW2NIXW41KWMoYzU2KVtjSF1bY0hdW25IXTY=

>  <s_epik_cmdline>  (329) 
J2VwaWtfcHl0aG9uJywgJy1waHQnLCAnMi4wJywgJy1waCcsICc3LjAnLCAnLXRuJywgJzgnLCAnLW1hJywgJzIwMCcsICctaW1hZScsICc8aW5maWxlLm1hZT4nLCAnLW9tYWUnLCAnPG91dGZpbGUubWFlPic=

>  <r_epik_Ionization_Penalty>  (329) 
0.87349

>  <r_epik_Ionization_Penalty_Charging>  (329) 
0.873285

>  <r_epik_Ionization_Penalty_Neutral>  (329) 
0.000204608

>  <r_epik_State_Penalty>  (329) 
2.33125

>  <r_epik_Charging_Adjusted_Penalty>  (329) 
3.20453

>  <i_epik_Tot_Q>  (329) 
1

>  <i_epik_Tot_abs_Q>  (329) 
1

>  <s_lp_Force_Field>  (329) 
OPLS3e

>  <r_lp_Energy>  (329) 
31.7164

>  <b_lp_Chiralities_Consistent>  (329) 
1

>  <s_lp_Variant>  (329) 
92:0-3

>  <s_i_glide_gridfile>  (329) 
pfpi4k_grid

>  <i_i_glide_lignum>  (329) 
6

>  <i_i_glide_rotatable_bonds>  (329) 
7

>  <r_i_docking_score>  (329) 
-3.10039

>  <r_i_glide_ligand_efficiency>  (329) 
-0.0939511

>  <r_i_glide_ligand_efficiency_sa>  (329) 
-0.301351

>  <r_i_glide_ligand_efficiency_ln>  (329) 
-0.68951

>  <r_i_glide_gscore>  (329) 
-3.10039

>  <r_i_glide_lipo>  (329) 
0

>  <r_i_glide_hbond>  (329) 
-0.32

>  <r_i_glide_metal>  (329) 
-0

>  <r_i_glide_rewards>  (329) 
-0.378326

>  <r_i_glide_evdw>  (329) 
-24.261

>  <r_i_glide_ecoul>  (329) 
-10.0847

>  <r_i_glide_erotb>  (329) 
0.607332

>  <r_i_glide_esite>  (329) 
-0.283635

>  <r_i_glide_emodel>  (329) 
-42.2904

>  <r_i_glide_energy>  (329) 
-34.3457

>  <r_i_glide_einternal>  (329) 
1.37759

>  <r_i_glide_intrahb_reward>  (329) 
-0

>  <i_i_glide_confnum>  (329) 
5

>  <i_i_glide_posenum>  (329) 
3

>  <r_i_glide_eff_state_penalty>  (329) 
0

>  <ligand_id>  (329) 
92

>  <original_smiles>  (329) 
CC(c1ccno1)N1CCC(N2CC(CC#N)(n3cc(-c4ncnc5[nH]ccc45)cn3)C2)C1

>  <smiles>  (329) 
[H]c1nc(-c2c([H])nn(C3(C([H])([H])C#N)C([H])([H])[N+]([H])(C4([H])C([H])([H])N(C([H])(c5onc([H])c5[H])C([H])([H])[H])C([H])([H])C4([H])[H])C3([H])[H])c2[H])c2c([H])c([H])n([H])c2n1

$$$$
92:2:2
     RDKit          3D

 59 64  0  0  1  0  0  0  0  0999 V2000
    2.1054    0.0074    5.6298 C   0  0  0  0  0  0  0  0  0  0  0  0
    2.3438    0.9982    4.4607 C   0  0  2  0  0  0  0  0  0  0  0  0
    1.0474    1.4274    3.8318 C   0  0  0  0  0  0  0  0  0  0  0  0
    0.5499    2.6269    3.3983 C   0  0  0  0  0  0  0  0  0  0  0  0
   -0.7331    2.2884    2.8892 C   0  0  0  0  0  0  0  0  0  0  0  0
   -0.9853    1.0010    2.9904 N   0  0  0  0  0  0  0  0  0  0  0  0
    0.1474    0.4388    3.5830 O   0  0  0  0  0  0  0  0  0  0  0  0
    3.2975    0.4967    3.4654 N   0  0  0  0  0  0  0  0  0  0  0  0
    4.5993    0.0813    3.9865 C   0  0  0  0  0  0  0  0  0  0  0  0
    5.2420   -0.6763    2.8290 C   0  0  0  0  0  0  0  0  0  0  0  0
    4.0700   -1.0659    1.9198 C   0  0  1  0  0  0  0  0  0  0  0  0
    4.0417   -2.5124    1.6038 N   0  0  2  0  0  0  0  0  0  0  0  0
    5.0867   -2.9456    0.6920 C   0  0  0  0  0  0  0  0  0  0  0  0
    4.0443   -3.8688    0.0341 C   0  0  1  0  0  0  0  0  0  0  0  0
    4.0884   -3.9279   -1.4972 C   0  0  0  0  0  0  0  0  0  0  0  0
    4.3781   -2.6353   -2.1470 C   0  0  0  0  0  0  0  0  0  0  0  0
    4.6086   -1.6193   -2.6563 N   0  0  0  0  0  0  0  0  0  0  0  0
    3.9937   -5.2099    0.5700 N   0  0  0  0  0  0  0  0  0  0  0  0
    2.8968   -5.9253    1.0179 C   0  0  0  0  0  0  0  0  0  0  0  0
    3.3609   -7.1242    1.4681 C   0  0  0  0  0  0  0  0  0  0  0  0
    2.5952   -8.2273    2.0843 C   0  0  0  0  0  0  0  0  0  0  0  0
    3.2355   -9.4089    2.1692 N   0  0  0  0  0  0  0  0  0  0  0  0
    2.6119  -10.4664    2.7009 C   0  0  0  0  0  0  0  0  0  0  0  0
    1.3746  -10.5335    3.2035 N   0  0  0  0  0  0  0  0  0  0  0  0
    0.7362   -9.3487    3.1234 C   0  0  0  0  0  0  0  0  0  0  0  0
   -0.5365   -9.0659    3.5659 N   0  0  0  0  0  0  0  0  0  0  0  0
   -0.8411   -7.7333    3.3240 C   0  0  0  0  0  0  0  0  0  0  0  0
    0.2447   -7.1253    2.7269 C   0  0  0  0  0  0  0  0  0  0  0  0
    1.2588   -8.1340    2.5856 C   0  0  0  0  0  0  0  0  0  0  0  0
    4.7622   -7.0866    1.2166 C   0  0  0  0  0  0  0  0  0  0  0  0
    5.1300   -5.9416    0.6587 N   0  0  0  0  0  0  0  0  0  0  0  0
    3.0261   -2.8846    0.6293 C   0  0  0  0  0  0  0  0  0  0  0  0
    2.8173   -0.6188    2.6661 C   0  0  0  0  0  0  0  0  0  0  0  0
   -1.1462   -9.7358    4.0330 H   0  0  0  0  0  0  0  0  0  0  0  0
    1.3480    0.3982    6.3142 H   0  0  0  0  0  0  0  0  0  0  0  0
    3.0092   -0.1591    6.2151 H   0  0  0  0  0  0  0  0  0  0  0  0
    1.7474   -0.9628    5.2764 H   0  0  0  0  0  0  0  0  0  0  0  0
    2.8019    1.8995    4.8754 H   0  0  0  0  0  0  0  0  0  0  0  0
    1.0336    3.5942    3.4191 H   0  0  0  0  0  0  0  0  0  0  0  0
   -1.4805    2.9207    2.4401 H   0  0  0  0  0  0  0  0  0  0  0  0
    5.2061    0.9224    4.3323 H   0  0  0  0  0  0  0  0  0  0  0  0
    4.4961   -0.6362    4.8048 H   0  0  0  0  0  0  0  0  0  0  0  0
    5.9524   -0.0561    2.2837 H   0  0  0  0  0  0  0  0  0  0  0  0
    5.7831   -1.5360    3.2110 H   0  0  0  0  0  0  0  0  0  0  0  0
    4.1412   -0.4509    1.0115 H   0  0  0  0  0  0  0  0  0  0  0  0
    5.4314   -2.1169    0.0702 H   0  0  0  0  0  0  0  0  0  0  0  0
    5.9276   -3.4325    1.1830 H   0  0  0  0  0  0  0  0  0  0  0  0
    4.8391   -4.6290   -1.8504 H   0  0  0  0  0  0  0  0  0  0  0  0
    3.1358   -4.2498   -1.8872 H   0  0  0  0  0  0  0  0  0  0  0  0
    1.8980   -5.5194    1.0062 H   0  0  0  0  0  0  0  0  0  0  0  0
    3.1798  -11.3869    2.7014 H   0  0  0  0  0  0  0  0  0  0  0  0
   -1.7992   -7.3229    3.6145 H   0  0  0  0  0  0  0  0  0  0  0  0
    0.3401   -6.0973    2.4427 H   0  0  0  0  0  0  0  0  0  0  0  0
    5.5114   -7.8351    1.4264 H   0  0  0  0  0  0  0  0  0  0  0  0
    2.1303   -3.3009    1.0837 H   0  0  0  0  0  0  0  0  0  0  0  0
    2.7641   -2.0635   -0.0467 H   0  0  0  0  0  0  0  0  0  0  0  0
    2.4588   -1.4297    3.2941 H   0  0  0  0  0  0  0  0  0  0  0  0
    2.0170   -0.3368    1.9770 H   0  0  0  0  0  0  0  0  0  0  0  0
    4.0001   -3.1136    2.4143 H   0  0  0  0  0  0  0  0  0  0  0  0
  1  2  1  0
  1 35  1  0
  1 36  1  0
  1 37  1  0
  2  3  1  0
  2  8  1  0
  2 38  1  1
  3  7  1  0
  3  4  2  0
  4  5  1  0
  4 39  1  0
  5  6  2  0
  5 40  1  0
  6  7  1  0
  8 33  1  0
  8  9  1  0
  9 10  1  0
  9 41  1  0
  9 42  1  0
 10 11  1  0
 10 43  1  0
 10 44  1  0
 11 12  1  0
 11 33  1  0
 11 45  1  6
 12 32  1  0
 12 13  1  0
 12 59  1  1
 13 14  1  0
 13 46  1  0
 13 47  1  0
 14 15  1  6
 14 18  1  0
 14 32  1  0
 15 16  1  0
 15 48  1  0
 15 49  1  0
 16 17  3  0
 18 31  1  0
 18 19  1  0
 19 20  2  0
 19 50  1  0
 20 21  1  0
 20 30  1  0
 21 29  1  0
 21 22  2  0
 22 23  1  0
 23 24  2  0
 23 51  1  0
 24 25  1  0
 25 29  2  0
 25 26  1  0
 26 34  1  0
 26 27  1  0
 27 28  2  0
 27 52  1  0
 28 29  1  0
 28 53  1  0
 30 31  2  0
 30 54  1  0
 32 55  1  0
 32 56  1  0
 33 57  1  0
 33 58  1  0
M  CHG  1  12   1
M  END
>  <i_m_ct_stereo_status>  (330) 
1

>  <s_m_source_file>  (330) 
/var/tmp/pbs.5076255.sched01/tmp0i_w_vt9/132llf9lao3.sdf

>  <i_m_source_file_index>  (330) 
6

>  <i_lp_mmshare_version>  (330) 
48012

>  <i_f3d_flags>  (330) 
0

>  <s_epik_input>  (330) 
bzFuW2NIXVtjSF1jMVtDQEBIXShbQ0gzXSlOMltDSDJdW0NIMl1bQ0BIXShbQ0gyXTIpTihbQ0gyXTMpW0NIMl1DMyhbQ0gyXUMjTiluNFtjSF1jKFtjSF1uNCktYyhuW2NIXW41KWMoYzU2KVtjSF1bY0hdW25IXTY=

>  <s_epik_cmdline>  (330) 
J2VwaWtfcHl0aG9uJywgJy1waHQnLCAnMi4wJywgJy1waCcsICc3LjAnLCAnLXRuJywgJzgnLCAnLW1hJywgJzIwMCcsICctaW1hZScsICc8aW5maWxlLm1hZT4nLCAnLW9tYWUnLCAnPG91dGZpbGUubWFlPic=

>  <r_epik_Ionization_Penalty>  (330) 
0.87349

>  <r_epik_Ionization_Penalty_Charging>  (330) 
0.873285

>  <r_epik_Ionization_Penalty_Neutral>  (330) 
0.000204608

>  <r_epik_State_Penalty>  (330) 
2.33125

>  <r_epik_Charging_Adjusted_Penalty>  (330) 
3.20453

>  <i_epik_Tot_Q>  (330) 
1

>  <i_epik_Tot_abs_Q>  (330) 
1

>  <s_lp_Force_Field>  (330) 
OPLS3e

>  <r_lp_Energy>  (330) 
31.7164

>  <b_lp_Chiralities_Consistent>  (330) 
1

>  <s_lp_Variant>  (330) 
92:0-3

>  <s_i_glide_gridfile>  (330) 
pfpi4k_grid

>  <i_i_glide_lignum>  (330) 
6

>  <i_i_glide_rotatable_bonds>  (330) 
7

>  <r_i_docking_score>  (330) 
-3.08603

>  <r_i_glide_ligand_efficiency>  (330) 
-0.093516

>  <r_i_glide_ligand_efficiency_sa>  (330) 
-0.299956

>  <r_i_glide_ligand_efficiency_ln>  (330) 
-0.686317

>  <r_i_glide_gscore>  (330) 
-3.08603

>  <r_i_glide_lipo>  (330) 
-0.371272

>  <r_i_glide_hbond>  (330) 
-0.16

>  <r_i_glide_metal>  (330) 
-0

>  <r_i_glide_rewards>  (330) 
-0.433469

>  <r_i_glide_evdw>  (330) 
-37.1877

>  <r_i_glide_ecoul>  (330) 
-4.72365

>  <r_i_glide_erotb>  (330) 
0.607332

>  <r_i_glide_esite>  (330) 
-0.160685

>  <r_i_glide_emodel>  (330) 
-47.4372

>  <r_i_glide_energy>  (330) 
-41.9114

>  <r_i_glide_einternal>  (330) 
6.42795

>  <r_i_glide_intrahb_reward>  (330) 
-0

>  <i_i_glide_confnum>  (330) 
10

>  <i_i_glide_posenum>  (330) 
1

>  <r_i_glide_eff_state_penalty>  (330) 
0

>  <ligand_id>  (330) 
92

>  <original_smiles>  (330) 
CC(c1ccno1)N1CCC(N2CC(CC#N)(n3cc(-c4ncnc5[nH]ccc45)cn3)C2)C1

>  <smiles>  (330) 
[H]c1nc(-c2c([H])nn(C3(C([H])([H])C#N)C([H])([H])[N+]([H])(C4([H])C([H])([H])N(C([H])(c5onc([H])c5[H])C([H])([H])[H])C([H])([H])C4([H])[H])C3([H])[H])c2[H])c2c([H])c([H])n([H])c2n1

$$$$
93:0:0
     RDKit          3D

 81 88  0  0  1  0  0  0  0  0999 V2000
    4.4604   -1.0766    3.9911 C   0  0  0  0  0  0  0  0  0  0  0  0
    4.6405   -2.5428    4.4217 C   0  0  2  0  0  0  0  0  0  0  0  0
    5.4786   -2.6193    5.7165 C   0  0  0  0  0  0  0  0  0  0  0  0
    5.9506   -4.0348    6.0338 C   0  0  0  0  0  0  0  0  0  0  0  0
    6.1898   -4.3075    7.2109 O   0  0  0  0  0  0  0  0  0  0  0  0
    6.1842   -4.9668    4.9073 C   0  0  0  0  0  0  0  0  0  0  0  0
    7.2252   -5.8175    4.8804 C   0  0  0  0  0  0  0  0  0  0  0  0
    7.2844   -6.6061    3.6103 C   0  0  1  0  0  0  0  0  0  0  0  0
    6.5639   -7.9016    3.9414 C   0  0  0  0  0  0  0  0  0  0  0  0
    7.0915   -8.7441    4.6770 O   0  0  0  0  0  0  0  0  0  0  0  0
    5.1588   -8.0930    3.3691 C   0  0  2  0  0  0  0  0  0  0  0  0
    5.3390   -7.9840    1.8134 C   0  0  0  0  0  0  0  0  0  0  0  0
    6.4368   -9.0102    1.3649 C   0  0  0  0  0  0  0  0  0  0  0  0
    4.1669   -8.4787    0.9598 C   0  0  0  0  0  0  0  0  0  0  0  0
    5.8036   -6.5286    1.4638 C   0  0  1  0  0  0  0  0  0  0  0  0
    4.9134   -5.6555    0.5514 C   0  0  0  0  0  0  0  0  0  0  0  0
    3.5831   -5.0626    1.0652 C   0  0  1  0  0  0  0  0  0  0  0  0
    2.5490   -5.2614    0.1144 O   0  0  0  0  0  0  0  0  0  0  0  0
    3.0367   -5.3569    2.5037 C   0  0  1  0  0  0  0  0  0  0  0  0
    2.1110   -4.1807    2.8853 C   0  0  0  0  0  0  0  0  0  0  0  0
    2.1300   -6.4192    2.2600 O   0  0  0  0  0  0  0  0  0  0  0  0
    1.5841   -7.0384    3.3798 C   0  0  1  0  0  0  0  0  0  0  0  0
    0.6728   -8.1202    2.8915 C   0  0  2  0  0  0  0  0  0  0  0  0
   -0.7110   -7.9301    2.9942 O   0  0  0  0  0  0  0  0  0  0  0  0
   -1.2000   -9.2392    2.9570 C   0  0  1  0  0  0  0  0  0  0  0  0
   -1.6360   -9.4829    1.6855 O   0  0  0  0  0  0  0  0  0  0  0  0
   -0.0475  -10.2154    3.3129 C   0  0  0  0  0  0  0  0  0  0  0  0
    0.8144   -9.1891    3.9345 C   0  0  1  0  0  0  0  0  0  0  0  0
    2.2965   -9.3305    4.1506 C   0  0  1  0  0  0  0  0  0  0  0  0
    2.6112  -10.1525    5.4173 C   0  0  0  0  0  0  0  0  0  0  0  0
    2.7747  -10.0299    3.0300 O   0  0  0  0  0  0  0  0  0  0  0  0
    2.6342   -7.7977    4.1875 C   0  0  1  0  0  0  0  0  0  0  0  0
    4.0887   -7.2050    4.1589 C   0  0  1  0  0  0  0  0  0  0  0  0
    4.3704   -7.2542    5.7157 C   0  0  0  0  0  0  0  0  0  0  0  0
    4.0472   -5.6756    3.6844 C   0  0  1  0  0  0  0  0  0  0  0  0
    5.4285   -4.9106    3.5884 C   0  0  1  0  0  0  0  0  0  0  0  0
    5.2280   -3.3783    3.2576 C   0  0  0  0  0  0  0  0  0  0  0  0
    6.4144   -5.7384    2.6513 C   0  0  1  0  0  0  0  0  0  0  0  0
    7.3937   -4.9138    2.0799 O   0  0  0  0  0  0  0  0  0  0  0  0
    5.4109   -0.5959    3.7547 H   0  0  0  0  0  0  0  0  0  0  0  0
    3.9794   -0.4917    4.7787 H   0  0  0  0  0  0  0  0  0  0  0  0
    3.8367   -1.0079    3.1004 H   0  0  0  0  0  0  0  0  0  0  0  0
    3.6525   -2.9233    4.6846 H   0  0  0  0  0  0  0  0  0  0  0  0
    6.3566   -1.9684    5.7182 H   0  0  0  0  0  0  0  0  0  0  0  0
    4.8894   -2.2451    6.5524 H   0  0  0  0  0  0  0  0  0  0  0  0
    7.9256   -5.9640    5.6795 H   0  0  0  0  0  0  0  0  0  0  0  0
    8.3175   -6.7888    3.2726 H   0  0  0  0  0  0  0  0  0  0  0  0
    4.9264   -9.1220    3.5916 H   0  0  0  0  0  0  0  0  0  0  0  0
    6.4195   -9.1997    0.2992 H   0  0  0  0  0  0  0  0  0  0  0  0
    6.2698   -9.9976    1.7989 H   0  0  0  0  0  0  0  0  0  0  0  0
    7.4499   -8.6730    1.5972 H   0  0  0  0  0  0  0  0  0  0  0  0
    4.3288   -8.2444   -0.0911 H   0  0  0  0  0  0  0  0  0  0  0  0
    3.2177   -8.0748    1.2601 H   0  0  0  0  0  0  0  0  0  0  0  0
    4.0760   -9.5646    1.0035 H   0  0  0  0  0  0  0  0  0  0  0  0
    6.6529   -6.7137    0.8109 H   0  0  0  0  0  0  0  0  0  0  0  0
    5.5375   -4.8103    0.2341 H   0  0  0  0  0  0  0  0  0  0  0  0
    4.7410   -6.1809   -0.3792 H   0  0  0  0  0  0  0  0  0  0  0  0
    3.6970   -3.9948    0.9153 H   0  0  0  0  0  0  0  0  0  0  0  0
    2.9363   -5.2917   -0.7493 H   0  0  0  0  0  0  0  0  0  0  0  0
    2.5605   -3.1994    2.7410 H   0  0  0  0  0  0  0  0  0  0  0  0
    1.7317   -4.2367    3.9070 H   0  0  0  0  0  0  0  0  0  0  0  0
    1.2467   -4.2149    2.2380 H   0  0  0  0  0  0  0  0  0  0  0  0
    0.9972   -6.3689    4.0036 H   0  0  0  0  0  0  0  0  0  0  0  0
    0.9642   -8.5221    1.9093 H   0  0  0  0  0  0  0  0  0  0  0  0
   -2.0650   -9.3598    3.5929 H   0  0  0  0  0  0  0  0  0  0  0  0
   -0.9096   -9.8041    1.1624 H   0  0  0  0  0  0  0  0  0  0  0  0
   -0.3189  -10.9670    4.0455 H   0  0  0  0  0  0  0  0  0  0  0  0
    0.3738  -10.7245    2.4386 H   0  0  0  0  0  0  0  0  0  0  0  0
    0.3616   -8.8470    4.8746 H   0  0  0  0  0  0  0  0  0  0  0  0
    2.2064   -9.6954    6.3247 H   0  0  0  0  0  0  0  0  0  0  0  0
    3.6853  -10.2952    5.5381 H   0  0  0  0  0  0  0  0  0  0  0  0
    2.1700  -11.1488    5.3667 H   0  0  0  0  0  0  0  0  0  0  0  0
    2.5175  -10.9295    3.1160 H   0  0  0  0  0  0  0  0  0  0  0  0
    2.2264   -7.5402    5.1691 H   0  0  0  0  0  0  0  0  0  0  0  0
    3.7292   -6.5496    6.2532 H   0  0  0  0  0  0  0  0  0  0  0  0
    5.3599   -7.0070    6.0591 H   0  0  0  0  0  0  0  0  0  0  0  0
    4.2050   -8.2402    6.1484 H   0  0  0  0  0  0  0  0  0  0  0  0
    3.5825   -5.1963    4.5453 H   0  0  0  0  0  0  0  0  0  0  0  0
    4.6833   -3.1783    2.3575 H   0  0  0  0  0  0  0  0  0  0  0  0
    6.1553   -2.8755    2.9943 H   0  0  0  0  0  0  0  0  0  0  0  0
    7.9804   -4.6190    2.7388 H   0  0  0  0  0  0  0  0  0  0  0  0
  1  2  1  0
  1 40  1  0
  1 41  1  0
  1 42  1  0
  2 37  1  0
  2  3  1  0
  2 43  1  1
  3  4  1  0
  3 44  1  0
  3 45  1  0
  4  5  2  0
  4  6  1  0
  6 36  1  0
  6  7  2  0
  7  8  1  0
  7 46  1  0
  8 38  1  0
  8  9  1  0
  8 47  1  6
  9 10  2  0
  9 11  1  0
 11 33  1  0
 11 12  1  0
 11 48  1  6
 12 13  1  0
 12 14  1  0
 12 15  1  0
 13 49  1  0
 13 50  1  0
 13 51  1  0
 14 52  1  0
 14 53  1  0
 14 54  1  0
 15 38  1  0
 15 16  1  0
 15 55  1  6
 16 17  1  0
 16 56  1  0
 16 57  1  0
 17 18  1  0
 17 19  1  0
 17 58  1  1
 18 59  1  0
 19 35  1  0
 19 20  1  1
 19 21  1  0
 20 60  1  0
 20 61  1  0
 20 62  1  0
 21 22  1  0
 22 32  1  0
 22 23  1  0
 22 63  1  1
 23 28  1  0
 23 24  1  0
 23 64  1  6
 24 25  1  0
 25 26  1  0
 25 27  1  0
 25 65  1  1
 26 66  1  0
 27 28  1  0
 27 67  1  0
 27 68  1  0
 28 29  1  0
 28 69  1  1
 29 30  1  0
 29 31  1  6
 29 32  1  0
 30 70  1  0
 30 71  1  0
 30 72  1  0
 31 73  1  0
 32 33  1  0
 32 74  1  1
 33 34  1  1
 33 35  1  0
 34 75  1  0
 34 76  1  0
 34 77  1  0
 35 36  1  0
 35 78  1  1
 36 37  1  6
 36 38  1  0
 37 79  1  0
 37 80  1  0
 38 39  1  6
 39 81  1  0
M  END
>  <i_m_ct_stereo_status>  (331) 
1

>  <s_m_source_file>  (331) 
/var/tmp/pbs.5076255.sched01/tmp0i_w_vt9/132llf9lao3.sdf

>  <i_m_source_file_index>  (331) 
7

>  <i_lp_mmshare_version>  (331) 
48012

>  <i_f3d_flags>  (331) 
0

>  <s_epik_input>  (331) 
W0NIM11bQ0BASF0oW0NIMl0xKVtDSDJdQyg9TylDKFtDQF0xMjMpPVtDSF1bQ0BASF00W0NAQF0zKFtPSF0pW0NASF01QyhbQ0gzXSkoW0NIM10pW0NAQEhdKEM0PU8pW0NAXTYoW0NIM10pW0NASF03W0NAQEhdKE9bQ0BAXShbQ0gzXSkoW0NASF0yNilbQ0BASF0oW0NIMl01KVtPSF0pW0NASF04W0NASF0oW0NAQF03KFtDSDNdKVtPSF0pW0NIMl1bQ0BASF0oTzgpW09IXQ==

>  <s_epik_cmdline>  (331) 
J2VwaWtfcHl0aG9uJywgJy1waHQnLCAnMi4wJywgJy1waCcsICc3LjAnLCAnLXRuJywgJzgnLCAnLW1hJywgJzIwMCcsICctaW1hZScsICc8aW5maWxlLm1hZT4nLCAnLW9tYWUnLCAnPG91dGZpbGUubWFlPic=

>  <r_lp_tautomer_probability>  (331) 
1

>  <r_epik_Ionization_Penalty>  (331) 
3.29988e-07

>  <r_epik_Ionization_Penalty_Charging>  (331) 
0

>  <r_epik_Ionization_Penalty_Neutral>  (331) 
3.29988e-07

>  <r_epik_State_Penalty>  (331) 
-0

>  <r_epik_Charging_Adjusted_Penalty>  (331) 
0

>  <i_epik_Tot_Q>  (331) 
0

>  <i_epik_Tot_abs_Q>  (331) 
0

>  <s_epik_Chemistry_Notes>  (331) 
This compound contains an acetal/aminal-like group ( X-CH(R)-Y where X, Y are N, S, or O) that may be acid/base labile, releasing an aldehyde.

>  <s_lp_Force_Field>  (331) 
OPLS3e

>  <r_lp_Energy>  (331) 
147.169

>  <b_lp_Chiralities_Consistent>  (331) 
1

>  <s_lp_Variant>  (331) 
93:0-1

>  <s_i_glide_gridfile>  (331) 
pfpi4k_grid

>  <i_i_glide_lignum>  (331) 
7

>  <i_i_glide_rotatable_bonds>  (331) 
4

>  <r_i_docking_score>  (331) 
-3.10263

>  <r_i_glide_ligand_efficiency>  (331) 
-0.0795546

>  <r_i_glide_ligand_efficiency_sa>  (331) 
-0.269787

>  <r_i_glide_ligand_efficiency_ln>  (331) 
-0.665292

>  <r_i_glide_gscore>  (331) 
-3.10263

>  <r_i_glide_lipo>  (331) 
-0.497446

>  <r_i_glide_hbond>  (331) 
0

>  <r_i_glide_metal>  (331) 
-0

>  <r_i_glide_rewards>  (331) 
-0.0157102

>  <r_i_glide_evdw>  (331) 
-20.6464

>  <r_i_glide_ecoul>  (331) 
-10.2287

>  <r_i_glide_erotb>  (331) 
0

>  <r_i_glide_esite>  (331) 
-0.0228455

>  <r_i_glide_emodel>  (331) 
-34.2655

>  <r_i_glide_energy>  (331) 
-30.8751

>  <r_i_glide_einternal>  (331) 
0.978318

>  <r_i_glide_intrahb_reward>  (331) 
-0

>  <i_i_glide_confnum>  (331) 
2

>  <i_i_glide_posenum>  (331) 
25

>  <r_i_glide_eff_state_penalty>  (331) 
0

>  <ligand_id>  (331) 
93

>  <original_smiles>  (331) 
CC1CC(=O)C2=CC3C(=O)C4C(C)(C)C5CC(O)C6(C)OC7C8OC(O)CC8C(C)(O)C7C4(C)C6C2(C1)C35O

>  <smiles>  (331) 
[H]OC1([H])OC2([H])C3([H])OC4(C([H])([H])[H])C([H])(O[H])C([H])([H])C5([H])C6(O[H])C7([H])C(=O)C([H])(C5(C([H])([H])[H])C([H])([H])[H])C(C([H])([H])[H])(C3([H])C(O[H])(C([H])([H])[H])C2([H])C1([H])[H])C4([H])C61C(=C7[H])C(=O)C([H])([H])C([H])(C([H])([H])[H])C1([H])[H]

$$$$
93:0:1
     RDKit          3D

 81 88  0  0  1  0  0  0  0  0999 V2000
    1.1282    1.0324    2.3441 C   0  0  0  0  0  0  0  0  0  0  0  0
    0.8616   -0.1435    3.2967 C   0  0  2  0  0  0  0  0  0  0  0  0
   -0.3977    0.1217    4.1365 C   0  0  0  0  0  0  0  0  0  0  0  0
   -0.5739   -0.8827    5.2718 C   0  0  0  0  0  0  0  0  0  0  0  0
   -1.7086   -1.1531    5.6692 O   0  0  0  0  0  0  0  0  0  0  0  0
    0.6460   -1.4430    5.8917 C   0  0  0  0  0  0  0  0  0  0  0  0
    0.7633   -1.6435    7.2006 C   0  0  0  0  0  0  0  0  0  0  0  0
    2.1052   -2.2156    7.5455 C   0  0  1  0  0  0  0  0  0  0  0  0
    1.9111   -3.7332    7.6132 C   0  0  0  0  0  0  0  0  0  0  0  0
    1.2744   -4.2642    8.5227 O   0  0  0  0  0  0  0  0  0  0  0  0
    2.5167   -4.5605    6.4641 C   0  0  2  0  0  0  0  0  0  0  0  0
    4.0572   -4.2054    6.4559 C   0  0  0  0  0  0  0  0  0  0  0  0
    4.6684   -4.4367    7.8792 C   0  0  0  0  0  0  0  0  0  0  0  0
    4.9468   -5.1677    5.6272 C   0  0  0  0  0  0  0  0  0  0  0  0
    4.2328   -2.6792    6.1111 C   0  0  1  0  0  0  0  0  0  0  0  0
    5.0424   -2.3231    4.8550 C   0  0  0  0  0  0  0  0  0  0  0  0
    4.4753   -2.5466    3.4398 C   0  0  1  0  0  0  0  0  0  0  0  0
    5.4842   -3.1380    2.6379 O   0  0  0  0  0  0  0  0  0  0  0  0
    3.0806   -3.2202    3.1870 C   0  0  1  0  0  0  0  0  0  0  0  0
    2.6081   -2.7212    1.7981 C   0  0  0  0  0  0  0  0  0  0  0  0
    3.4173   -4.5812    2.9414 O   0  0  0  0  0  0  0  0  0  0  0  0
    2.3900   -5.5283    2.8216 C   0  0  1  0  0  0  0  0  0  0  0  0
    3.0017   -6.9082    2.5594 C   0  0  2  0  0  0  0  0  0  0  0  0
    2.9980   -7.5263    1.2789 O   0  0  0  0  0  0  0  0  0  0  0  0
    3.0726   -8.9241    1.4938 C   0  0  1  0  0  0  0  0  0  0  0  0
    4.3460   -9.4532    1.2013 O   0  0  0  0  0  0  0  0  0  0  0  0
    2.6982   -9.1689    2.9785 C   0  0  0  0  0  0  0  0  0  0  0  0
    2.0560   -7.8321    3.2716 C   0  0  1  0  0  0  0  0  0  0  0  0
    1.8697   -7.1918    4.6475 C   0  0  1  0  0  0  0  0  0  0  0  0
    0.7062   -7.8217    5.4280 C   0  0  0  0  0  0  0  0  0  0  0  0
    3.0322   -7.4398    5.4007 O   0  0  0  0  0  0  0  0  0  0  0  0
    1.6686   -5.6964    4.1742 C   0  0  1  0  0  0  0  0  0  0  0  0
    1.6303   -4.4202    5.1348 C   0  0  1  0  0  0  0  0  0  0  0  0
    0.0916   -4.4354    5.5073 C   0  0  0  0  0  0  0  0  0  0  0  0
    1.9297   -3.0717    4.3006 C   0  0  1  0  0  0  0  0  0  0  0  0
    1.9386   -1.6933    5.1115 C   0  0  1  0  0  0  0  0  0  0  0  0
    2.0824   -0.4189    4.2049 C   0  0  0  0  0  0  0  0  0  0  0  0
    2.9630   -1.7926    6.3155 C   0  0  1  0  0  0  0  0  0  0  0  0
    3.4217   -0.4994    6.6781 O   0  0  0  0  0  0  0  0  0  0  0  0
    1.3096    1.9578    2.8937 H   0  0  0  0  0  0  0  0  0  0  0  0
    0.2787    1.2037    1.6804 H   0  0  0  0  0  0  0  0  0  0  0  0
    1.9990    0.8476    1.7132 H   0  0  0  0  0  0  0  0  0  0  0  0
    0.6643   -1.0125    2.6740 H   0  0  0  0  0  0  0  0  0  0  0  0
   -0.3528    1.1200    4.5742 H   0  0  0  0  0  0  0  0  0  0  0  0
   -1.2787    0.1012    3.4956 H   0  0  0  0  0  0  0  0  0  0  0  0
    0.0012   -1.4849    7.9460 H   0  0  0  0  0  0  0  0  0  0  0  0
    2.4917   -1.8397    8.4959 H   0  0  0  0  0  0  0  0  0  0  0  0
    2.4187   -5.5876    6.8024 H   0  0  0  0  0  0  0  0  0  0  0  0
    5.7548   -4.3497    7.8586 H   0  0  0  0  0  0  0  0  0  0  0  0
    4.4371   -5.4313    8.2625 H   0  0  0  0  0  0  0  0  0  0  0  0
    4.3373   -3.7167    8.6264 H   0  0  0  0  0  0  0  0  0  0  0  0
    5.9747   -4.8202    5.5382 H   0  0  0  0  0  0  0  0  0  0  0  0
    4.5902   -5.3574    4.6333 H   0  0  0  0  0  0  0  0  0  0  0  0
    5.0267   -6.1434    6.1050 H   0  0  0  0  0  0  0  0  0  0  0  0
    4.9119   -2.3283    6.8895 H   0  0  0  0  0  0  0  0  0  0  0  0
    5.2961   -1.2647    4.9264 H   0  0  0  0  0  0  0  0  0  0  0  0
    6.0161   -2.7974    4.9370 H   0  0  0  0  0  0  0  0  0  0  0  0
    4.4765   -1.5617    2.9821 H   0  0  0  0  0  0  0  0  0  0  0  0
    5.1755   -3.1699    1.7469 H   0  0  0  0  0  0  0  0  0  0  0  0
    2.6144   -1.6359    1.6956 H   0  0  0  0  0  0  0  0  0  0  0  0
    1.5946   -3.0447    1.5995 H   0  0  0  0  0  0  0  0  0  0  0  0
    3.2337   -3.1180    0.9951 H   0  0  0  0  0  0  0  0  0  0  0  0
    1.6871   -5.2703    2.0297 H   0  0  0  0  0  0  0  0  0  0  0  0
    4.0064   -6.9616    2.9880 H   0  0  0  0  0  0  0  0  0  0  0  0
    2.3578   -9.4033    0.8192 H   0  0  0  0  0  0  0  0  0  0  0  0
    4.2386  -10.3876    0.9902 H   0  0  0  0  0  0  0  0  0  0  0  0
    2.0162  -10.0142    3.0839 H   0  0  0  0  0  0  0  0  0  0  0  0
    3.5960   -9.3385    3.5796 H   0  0  0  0  0  0  0  0  0  0  0  0
    1.0866   -7.8151    2.7660 H   0  0  0  0  0  0  0  0  0  0  0  0
   -0.2441   -7.7047    4.9078 H   0  0  0  0  0  0  0  0  0  0  0  0
    0.6109   -7.3892    6.4239 H   0  0  0  0  0  0  0  0  0  0  0  0
    0.8628   -8.8914    5.5624 H   0  0  0  0  0  0  0  0  0  0  0  0
    3.0871   -8.3665    5.5598 H   0  0  0  0  0  0  0  0  0  0  0  0
    0.6564   -5.7698    3.7702 H   0  0  0  0  0  0  0  0  0  0  0  0
   -0.5209   -4.2072    4.6348 H   0  0  0  0  0  0  0  0  0  0  0  0
   -0.2636   -3.7364    6.2524 H   0  0  0  0  0  0  0  0  0  0  0  0
   -0.2429   -5.3995    5.8867 H   0  0  0  0  0  0  0  0  0  0  0  0
    1.0289   -2.9840    3.6957 H   0  0  0  0  0  0  0  0  0  0  0  0
    2.9828   -0.4068    3.6143 H   0  0  0  0  0  0  0  0  0  0  0  0
    2.1808    0.4700    4.8268 H   0  0  0  0  0  0  0  0  0  0  0  0
    3.9367   -0.1584    5.9676 H   0  0  0  0  0  0  0  0  0  0  0  0
  1  2  1  0
  1 40  1  0
  1 41  1  0
  1 42  1  0
  2 37  1  0
  2  3  1  0
  2 43  1  6
  3  4  1  0
  3 44  1  0
  3 45  1  0
  4  5  2  0
  4  6  1  0
  6 36  1  0
  6  7  2  0
  7  8  1  0
  7 46  1  0
  8 38  1  0
  8  9  1  0
  8 47  1  1
  9 10  2  0
  9 11  1  0
 11 33  1  0
 11 12  1  0
 11 48  1  1
 12 13  1  0
 12 14  1  0
 12 15  1  0
 13 49  1  0
 13 50  1  0
 13 51  1  0
 14 52  1  0
 14 53  1  0
 14 54  1  0
 15 38  1  0
 15 16  1  0
 15 55  1  1
 16 17  1  0
 16 56  1  0
 16 57  1  0
 17 18  1  0
 17 19  1  0
 17 58  1  6
 18 59  1  0
 19 35  1  0
 19 20  1  6
 19 21  1  0
 20 60  1  0
 20 61  1  0
 20 62  1  0
 21 22  1  0
 22 32  1  0
 22 23  1  0
 22 63  1  6
 23 28  1  0
 23 24  1  0
 23 64  1  1
 24 25  1  0
 25 26  1  0
 25 27  1  0
 25 65  1  6
 26 66  1  0
 27 28  1  0
 27 67  1  0
 27 68  1  0
 28 29  1  0
 28 69  1  6
 29 30  1  0
 29 31  1  1
 29 32  1  0
 30 70  1  0
 30 71  1  0
 30 72  1  0
 31 73  1  0
 32 33  1  0
 32 74  1  6
 33 34  1  1
 33 35  1  0
 34 75  1  0
 34 76  1  0
 34 77  1  0
 35 36  1  0
 35 78  1  6
 36 37  1  6
 36 38  1  0
 37 79  1  0
 37 80  1  0
 38 39  1  1
 39 81  1  0
M  END
>  <i_m_ct_stereo_status>  (332) 
1

>  <s_m_source_file>  (332) 
/var/tmp/pbs.5076255.sched01/tmp0i_w_vt9/132llf9lao3.sdf

>  <i_m_source_file_index>  (332) 
7

>  <i_lp_mmshare_version>  (332) 
48012

>  <i_f3d_flags>  (332) 
0

>  <s_epik_input>  (332) 
W0NIM11bQ0BASF0oW0NIMl0xKVtDSDJdQyg9TylDKFtDQF0xMjMpPVtDSF1bQ0BASF00W0NAQF0zKFtPSF0pW0NASF01QyhbQ0gzXSkoW0NIM10pW0NAQEhdKEM0PU8pW0NAXTYoW0NIM10pW0NASF03W0NAQEhdKE9bQ0BAXShbQ0gzXSkoW0NASF0yNilbQ0BASF0oW0NIMl01KVtPSF0pW0NASF04W0NASF0oW0NAQF03KFtDSDNdKVtPSF0pW0NIMl1bQ0BASF0oTzgpW09IXQ==

>  <s_epik_cmdline>  (332) 
J2VwaWtfcHl0aG9uJywgJy1waHQnLCAnMi4wJywgJy1waCcsICc3LjAnLCAnLXRuJywgJzgnLCAnLW1hJywgJzIwMCcsICctaW1hZScsICc8aW5maWxlLm1hZT4nLCAnLW9tYWUnLCAnPG91dGZpbGUubWFlPic=

>  <r_lp_tautomer_probability>  (332) 
1

>  <r_epik_Ionization_Penalty>  (332) 
3.29988e-07

>  <r_epik_Ionization_Penalty_Charging>  (332) 
0

>  <r_epik_Ionization_Penalty_Neutral>  (332) 
3.29988e-07

>  <r_epik_State_Penalty>  (332) 
-0

>  <r_epik_Charging_Adjusted_Penalty>  (332) 
0

>  <i_epik_Tot_Q>  (332) 
0

>  <i_epik_Tot_abs_Q>  (332) 
0

>  <s_epik_Chemistry_Notes>  (332) 
This compound contains an acetal/aminal-like group ( X-CH(R)-Y where X, Y are N, S, or O) that may be acid/base labile, releasing an aldehyde.

>  <s_lp_Force_Field>  (332) 
OPLS3e

>  <r_lp_Energy>  (332) 
147.169

>  <b_lp_Chiralities_Consistent>  (332) 
1

>  <s_lp_Variant>  (332) 
93:0-1

>  <s_i_glide_gridfile>  (332) 
pfpi4k_grid

>  <i_i_glide_lignum>  (332) 
7

>  <i_i_glide_rotatable_bonds>  (332) 
4

>  <r_i_docking_score>  (332) 
-2.5418

>  <r_i_glide_ligand_efficiency>  (332) 
-0.0651745

>  <r_i_glide_ligand_efficiency_sa>  (332) 
-0.22102

>  <r_i_glide_ligand_efficiency_ln>  (332) 
-0.545035

>  <r_i_glide_gscore>  (332) 
-2.5418

>  <r_i_glide_lipo>  (332) 
-0.0636357

>  <r_i_glide_hbond>  (332) 
-0.012785

>  <r_i_glide_metal>  (332) 
-0

>  <r_i_glide_rewards>  (332) 
0

>  <r_i_glide_evdw>  (332) 
-25.6184

>  <r_i_glide_ecoul>  (332) 
-7.47115

>  <r_i_glide_erotb>  (332) 
0

>  <r_i_glide_esite>  (332) 
-0.0637932

>  <r_i_glide_emodel>  (332) 
-37.3049

>  <r_i_glide_energy>  (332) 
-33.0895

>  <r_i_glide_einternal>  (332) 
2.40841

>  <r_i_glide_intrahb_reward>  (332) 
-0

>  <i_i_glide_confnum>  (332) 
2

>  <i_i_glide_posenum>  (332) 
38

>  <r_i_glide_eff_state_penalty>  (332) 
0

>  <ligand_id>  (332) 
93

>  <original_smiles>  (332) 
CC1CC(=O)C2=CC3C(=O)C4C(C)(C)C5CC(O)C6(C)OC7C8OC(O)CC8C(C)(O)C7C4(C)C6C2(C1)C35O

>  <smiles>  (332) 
[H]OC1([H])OC2([H])C3([H])OC4(C([H])([H])[H])C([H])(O[H])C([H])([H])C5([H])C6(O[H])C7([H])C(=O)C([H])(C5(C([H])([H])[H])C([H])([H])[H])C(C([H])([H])[H])(C3([H])C(O[H])(C([H])([H])[H])C2([H])C1([H])[H])C4([H])C61C(=C7[H])C(=O)C([H])([H])C([H])(C([H])([H])[H])C1([H])[H]

$$$$
93:0:2
     RDKit          3D

 81 88  0  0  1  0  0  0  0  0999 V2000
   -2.6777    4.0982    9.3662 C   0  0  0  0  0  0  0  0  0  0  0  0
   -1.2101    3.9615    8.9311 C   0  0  2  0  0  0  0  0  0  0  0  0
   -0.2867    4.6480    9.9467 C   0  0  0  0  0  0  0  0  0  0  0  0
    1.1512    4.7684    9.4439 C   0  0  0  0  0  0  0  0  0  0  0  0
    2.0720    4.7669   10.2584 O   0  0  0  0  0  0  0  0  0  0  0  0
    1.3648    4.9391    7.9946 C   0  0  0  0  0  0  0  0  0  0  0  0
    2.2872    5.7600    7.4922 C   0  0  0  0  0  0  0  0  0  0  0  0
    2.2780    5.7277    5.9949 C   0  0  1  0  0  0  0  0  0  0  0  0
    3.3605    4.7211    5.5895 C   0  0  0  0  0  0  0  0  0  0  0  0
    4.5598    4.9658    5.7053 O   0  0  0  0  0  0  0  0  0  0  0  0
    2.8718    3.3715    5.0332 C   0  0  2  0  0  0  0  0  0  0  0  0
    1.9669    3.7318    3.7878 C   0  0  0  0  0  0  0  0  0  0  0  0
    2.7554    4.6593    2.8049 C   0  0  0  0  0  0  0  0  0  0  0  0
    1.6570    2.5412    2.8429 C   0  0  0  0  0  0  0  0  0  0  0  0
    0.7073    4.5447    4.2699 C   0  0  1  0  0  0  0  0  0  0  0  0
   -0.6817    3.9465    3.9875 C   0  0  0  0  0  0  0  0  0  0  0  0
   -1.1962    2.7206    4.7712 C   0  0  1  0  0  0  0  0  0  0  0  0
   -1.7859    1.8329    3.8400 O   0  0  0  0  0  0  0  0  0  0  0  0
   -0.3209    1.9580    5.8356 C   0  0  1  0  0  0  0  0  0  0  0  0
   -1.3065    1.2433    6.8039 C   0  0  0  0  0  0  0  0  0  0  0  0
    0.2282    0.8815    5.0851 O   0  0  0  0  0  0  0  0  0  0  0  0
    1.1913    0.0600    5.6901 C   0  0  1  0  0  0  0  0  0  0  0  0
    1.6200   -1.0236    4.6965 C   0  0  2  0  0  0  0  0  0  0  0  0
    1.1871   -2.3712    4.7857 O   0  0  0  0  0  0  0  0  0  0  0  0
    2.1739   -3.1644    4.1517 C   0  0  1  0  0  0  0  0  0  0  0  0
    1.7805   -3.5994    2.8744 O   0  0  0  0  0  0  0  0  0  0  0  0
    3.4455   -2.2862    4.0352 C   0  0  0  0  0  0  0  0  0  0  0  0
    3.0735   -1.2149    5.0299 C   0  0  1  0  0  0  0  0  0  0  0  0
    3.6374    0.2062    5.0826 C   0  0  1  0  0  0  0  0  0  0  0  0
    5.0457    0.2427    5.6903 C   0  0  0  0  0  0  0  0  0  0  0  0
    3.7516    0.6638    3.7568 O   0  0  0  0  0  0  0  0  0  0  0  0
    2.4835    0.8657    5.9396 C   0  0  1  0  0  0  0  0  0  0  0  0
    2.3211    2.4301    6.2109 C   0  0  1  0  0  0  0  0  0  0  0  0
    3.2427    2.5556    7.4962 C   0  0  0  0  0  0  0  0  0  0  0  0
    0.8053    2.7765    6.6400 C   0  0  1  0  0  0  0  0  0  0  0  0
    0.4564    4.3093    6.9372 C   0  0  1  0  0  0  0  0  0  0  0  0
   -0.9858    4.5319    7.5102 C   0  0  0  0  0  0  0  0  0  0  0  0
    0.8387    5.2005    5.6838 C   0  0  1  0  0  0  0  0  0  0  0  0
    0.0577    6.3874    5.6494 O   0  0  0  0  0  0  0  0  0  0  0  0
   -2.9809    5.1450    9.4165 H   0  0  0  0  0  0  0  0  0  0  0  0
   -2.8345    3.6631   10.3541 H   0  0  0  0  0  0  0  0  0  0  0  0
   -3.3503    3.5899    8.6748 H   0  0  0  0  0  0  0  0  0  0  0  0
   -0.9729    2.9006    8.9440 H   0  0  0  0  0  0  0  0  0  0  0  0
   -0.6484    5.6509   10.1736 H   0  0  0  0  0  0  0  0  0  0  0  0
   -0.2904    4.0935   10.8827 H   0  0  0  0  0  0  0  0  0  0  0  0
    3.0072    6.3330    8.0557 H   0  0  0  0  0  0  0  0  0  0  0  0
    2.4924    6.7051    5.5539 H   0  0  0  0  0  0  0  0  0  0  0  0
    3.7823    2.9175    4.6592 H   0  0  0  0  0  0  0  0  0  0  0  0
    2.2144    4.7887    1.8679 H   0  0  0  0  0  0  0  0  0  0  0  0
    3.7246    4.2402    2.5391 H   0  0  0  0  0  0  0  0  0  0  0  0
    2.9272    5.6698    3.1757 H   0  0  0  0  0  0  0  0  0  0  0  0
    0.9311    2.7958    2.0828 H   0  0  0  0  0  0  0  0  0  0  0  0
    1.2984    1.6594    3.3347 H   0  0  0  0  0  0  0  0  0  0  0  0
    2.5381    2.2376    2.2816 H   0  0  0  0  0  0  0  0  0  0  0  0
    0.6870    5.3998    3.5895 H   0  0  0  0  0  0  0  0  0  0  0  0
   -1.4041    4.7434    4.1567 H   0  0  0  0  0  0  0  0  0  0  0  0
   -0.7763    3.7771    2.9134 H   0  0  0  0  0  0  0  0  0  0  0  0
   -2.1084    3.0545    5.2525 H   0  0  0  0  0  0  0  0  0  0  0  0
   -1.1341    1.6218    3.1845 H   0  0  0  0  0  0  0  0  0  0  0  0
   -2.0543    1.9172    7.2200 H   0  0  0  0  0  0  0  0  0  0  0  0
   -0.7971    0.7667    7.6419 H   0  0  0  0  0  0  0  0  0  0  0  0
   -1.8584    0.4632    6.2751 H   0  0  0  0  0  0  0  0  0  0  0  0
    0.8269   -0.3978    6.6098 H   0  0  0  0  0  0  0  0  0  0  0  0
    1.4867   -0.6718    3.6679 H   0  0  0  0  0  0  0  0  0  0  0  0
    2.3388   -4.0532    4.7603 H   0  0  0  0  0  0  0  0  0  0  0  0
    1.7724   -2.8496    2.3009 H   0  0  0  0  0  0  0  0  0  0  0  0
    4.3440   -2.8473    4.3020 H   0  0  0  0  0  0  0  0  0  0  0  0
    3.5492   -1.8876    3.0214 H   0  0  0  0  0  0  0  0  0  0  0  0
    3.1636   -1.6522    6.0285 H   0  0  0  0  0  0  0  0  0  0  0  0
    5.0605   -0.1332    6.7126 H   0  0  0  0  0  0  0  0  0  0  0  0
    5.4623    1.2494    5.6915 H   0  0  0  0  0  0  0  0  0  0  0  0
    5.7266   -0.3793    5.1113 H   0  0  0  0  0  0  0  0  0  0  0  0
    4.0597    1.5585    3.7558 H   0  0  0  0  0  0  0  0  0  0  0  0
    2.7115    0.4330    6.9175 H   0  0  0  0  0  0  0  0  0  0  0  0
    2.8222    2.0175    8.3499 H   0  0  0  0  0  0  0  0  0  0  0  0
    3.4372    3.5468    7.8827 H   0  0  0  0  0  0  0  0  0  0  0  0
    4.2391    2.1516    7.3304 H   0  0  0  0  0  0  0  0  0  0  0  0
    0.7558    2.3244    7.6298 H   0  0  0  0  0  0  0  0  0  0  0  0
   -1.7674    4.1833    6.8553 H   0  0  0  0  0  0  0  0  0  0  0  0
   -1.1817    5.6003    7.5968 H   0  0  0  0  0  0  0  0  0  0  0  0
    0.4588    6.9769    5.0251 H   0  0  0  0  0  0  0  0  0  0  0  0
  1  2  1  0
  1 40  1  0
  1 41  1  0
  1 42  1  0
  2 37  1  0
  2  3  1  0
  2 43  1  6
  3  4  1  0
  3 44  1  0
  3 45  1  0
  4  5  2  0
  4  6  1  0
  6 36  1  0
  6  7  2  0
  7  8  1  0
  7 46  1  0
  8 38  1  0
  8  9  1  0
  8 47  1  6
  9 10  2  0
  9 11  1  0
 11 33  1  0
 11 12  1  0
 11 48  1  6
 12 13  1  0
 12 14  1  0
 12 15  1  0
 13 49  1  0
 13 50  1  0
 13 51  1  0
 14 52  1  0
 14 53  1  0
 14 54  1  0
 15 38  1  0
 15 16  1  0
 15 55  1  6
 16 17  1  0
 16 56  1  0
 16 57  1  0
 17 18  1  0
 17 19  1  0
 17 58  1  1
 18 59  1  0
 19 35  1  0
 19 20  1  1
 19 21  1  0
 20 60  1  0
 20 61  1  0
 20 62  1  0
 21 22  1  0
 22 32  1  0
 22 23  1  0
 22 63  1  1
 23 28  1  0
 23 24  1  0
 23 64  1  6
 24 25  1  0
 25 26  1  0
 25 27  1  0
 25 65  1  1
 26 66  1  0
 27 28  1  0
 27 67  1  0
 27 68  1  0
 28 29  1  0
 28 69  1  1
 29 30  1  0
 29 31  1  6
 29 32  1  0
 30 70  1  0
 30 71  1  0
 30 72  1  0
 31 73  1  0
 32 33  1  0
 32 74  1  1
 33 34  1  1
 33 35  1  0
 34 75  1  0
 34 76  1  0
 34 77  1  0
 35 36  1  0
 35 78  1  1
 36 37  1  1
 36 38  1  0
 37 79  1  0
 37 80  1  0
 38 39  1  6
 39 81  1  0
M  END
>  <i_m_ct_stereo_status>  (333) 
1

>  <s_m_source_file>  (333) 
/var/tmp/pbs.5076255.sched01/tmp0i_w_vt9/132llf9lao3.sdf

>  <i_m_source_file_index>  (333) 
7

>  <i_lp_mmshare_version>  (333) 
48012

>  <i_f3d_flags>  (333) 
0

>  <s_epik_input>  (333) 
W0NIM11bQ0BASF0oW0NIMl0xKVtDSDJdQyg9TylDKFtDQF0xMjMpPVtDSF1bQ0BASF00W0NAQF0zKFtPSF0pW0NASF01QyhbQ0gzXSkoW0NIM10pW0NAQEhdKEM0PU8pW0NAXTYoW0NIM10pW0NASF03W0NAQEhdKE9bQ0BAXShbQ0gzXSkoW0NASF0yNilbQ0BASF0oW0NIMl01KVtPSF0pW0NASF04W0NASF0oW0NAQF03KFtDSDNdKVtPSF0pW0NIMl1bQ0BASF0oTzgpW09IXQ==

>  <s_epik_cmdline>  (333) 
J2VwaWtfcHl0aG9uJywgJy1waHQnLCAnMi4wJywgJy1waCcsICc3LjAnLCAnLXRuJywgJzgnLCAnLW1hJywgJzIwMCcsICctaW1hZScsICc8aW5maWxlLm1hZT4nLCAnLW9tYWUnLCAnPG91dGZpbGUubWFlPic=

>  <r_lp_tautomer_probability>  (333) 
1

>  <r_epik_Ionization_Penalty>  (333) 
3.29988e-07

>  <r_epik_Ionization_Penalty_Charging>  (333) 
0

>  <r_epik_Ionization_Penalty_Neutral>  (333) 
3.29988e-07

>  <r_epik_State_Penalty>  (333) 
-0

>  <r_epik_Charging_Adjusted_Penalty>  (333) 
0

>  <i_epik_Tot_Q>  (333) 
0

>  <i_epik_Tot_abs_Q>  (333) 
0

>  <s_epik_Chemistry_Notes>  (333) 
This compound contains an acetal/aminal-like group ( X-CH(R)-Y where X, Y are N, S, or O) that may be acid/base labile, releasing an aldehyde.

>  <s_lp_Force_Field>  (333) 
OPLS3e

>  <r_lp_Energy>  (333) 
147.169

>  <b_lp_Chiralities_Consistent>  (333) 
1

>  <s_lp_Variant>  (333) 
93:0-1

>  <s_i_glide_gridfile>  (333) 
pfpi4k_grid

>  <i_i_glide_lignum>  (333) 
7

>  <i_i_glide_rotatable_bonds>  (333) 
4

>  <r_i_docking_score>  (333) 
-1.62299

>  <r_i_glide_ligand_efficiency>  (333) 
-0.0416151

>  <r_i_glide_ligand_efficiency_sa>  (333) 
-0.141126

>  <r_i_glide_ligand_efficiency_ln>  (333) 
-0.348015

>  <r_i_glide_gscore>  (333) 
-1.62299

>  <r_i_glide_lipo>  (333) 
-0.0397601

>  <r_i_glide_hbond>  (333) 
0

>  <r_i_glide_metal>  (333) 
-0

>  <r_i_glide_rewards>  (333) 
-0.000991348

>  <r_i_glide_evdw>  (333) 
-27.8584

>  <r_i_glide_ecoul>  (333) 
-1.2621

>  <r_i_glide_erotb>  (333) 
0

>  <r_i_glide_esite>  (333) 
0

>  <r_i_glide_emodel>  (333) 
-32.3455

>  <r_i_glide_energy>  (333) 
-29.1205

>  <r_i_glide_einternal>  (333) 
0.313994

>  <r_i_glide_intrahb_reward>  (333) 
-0

>  <i_i_glide_confnum>  (333) 
1

>  <i_i_glide_posenum>  (333) 
35

>  <r_i_glide_eff_state_penalty>  (333) 
0

>  <ligand_id>  (333) 
93

>  <original_smiles>  (333) 
CC1CC(=O)C2=CC3C(=O)C4C(C)(C)C5CC(O)C6(C)OC7C8OC(O)CC8C(C)(O)C7C4(C)C6C2(C1)C35O

>  <smiles>  (333) 
[H]OC1([H])OC2([H])C3([H])OC4(C([H])([H])[H])C([H])(O[H])C([H])([H])C5([H])C6(O[H])C7([H])C(=O)C([H])(C5(C([H])([H])[H])C([H])([H])[H])C(C([H])([H])[H])(C3([H])C(O[H])(C([H])([H])[H])C2([H])C1([H])[H])C4([H])C61C(=C7[H])C(=O)C([H])([H])C([H])(C([H])([H])[H])C1([H])[H]

$$$$
94:0:0
     RDKit          3D

 38 40  0  0  1  0  0  0  0  0999 V2000
    4.1119   -6.5963    0.3664 C   0  0  0  0  0  0  0  0  0  0  0  0
    4.9996   -5.5387    0.0426 O   0  0  0  0  0  0  0  0  0  0  0  0
    4.5885   -4.2650    0.1544 C   0  0  0  0  0  0  0  0  0  0  0  0
    3.4337   -3.9279    0.4260 O   0  0  0  0  0  0  0  0  0  0  0  0
    5.7126   -3.2267   -0.1527 C   0  0  1  0  0  0  0  0  0  0  0  0
    7.0697   -3.7636    0.3459 C   0  0  0  0  0  0  0  0  0  0  0  0
    5.7997   -2.7549   -1.6639 C   0  0  2  0  0  0  0  0  0  0  0  0
    5.3065   -1.2938   -1.7120 C   0  0  1  0  0  0  0  0  0  0  0  0
    4.0474   -1.3631   -2.5730 C   0  0  0  0  0  0  0  0  0  0  0  0
    3.3868   -0.3795   -2.8999 O   0  0  0  0  0  0  0  0  0  0  0  0
    3.8412   -2.5855   -3.0385 N   0  0  0  0  0  0  0  0  0  0  0  0
    2.8109   -2.9547   -4.0049 C   0  0  0  0  0  0  0  0  0  0  0  0
    4.8210   -3.4005   -2.6562 C   0  0  0  0  0  0  0  0  0  0  0  0
    5.0237   -4.4978   -3.1266 O   0  0  0  0  0  0  0  0  0  0  0  0
    5.1788   -0.8353   -0.2487 C   0  0  1  0  0  0  0  0  0  0  0  0
    3.9034   -0.2764    0.3922 C   0  0  0  0  0  0  0  0  0  0  0  0
    4.0426   -0.8083    1.7359 N   0  0  0  0  0  0  0  0  0  0  0  0
    2.9489   -0.6314    2.6768 C   0  0  0  0  0  0  0  0  0  0  0  0
    5.0196   -1.7172    1.8182 C   0  0  0  0  0  0  0  0  0  0  0  0
    5.2990   -2.3869    2.8187 O   0  0  0  0  0  0  0  0  0  0  0  0
    5.3939   -1.9815    0.5681 N   0  0  0  0  0  0  0  0  0  0  0  0
    4.5966   -7.5592    0.1937 H   0  0  0  0  0  0  0  0  0  0  0  0
    3.2135   -6.5516   -0.2489 H   0  0  0  0  0  0  0  0  0  0  0  0
    3.8039   -6.5601    1.4145 H   0  0  0  0  0  0  0  0  0  0  0  0
    7.3732   -4.6311   -0.2387 H   0  0  0  0  0  0  0  0  0  0  0  0
    7.0011   -4.0730    1.3899 H   0  0  0  0  0  0  0  0  0  0  0  0
    7.8454   -3.0074    0.2542 H   0  0  0  0  0  0  0  0  0  0  0  0
    5.9864   -0.6550   -2.2660 H   0  0  0  0  0  0  0  0  0  0  0  0
    2.5455   -4.0073   -3.9391 H   0  0  0  0  0  0  0  0  0  0  0  0
    3.1646   -2.7732   -5.0104 H   0  0  0  0  0  0  0  0  0  0  0  0
    1.9089   -2.3732   -3.8571 H   0  0  0  0  0  0  0  0  0  0  0  0
    6.8447   -2.8540   -2.0191 H   0  0  0  0  0  0  0  0  0  0  0  0
    5.9985   -0.1501   -0.0457 H   0  0  0  0  0  0  0  0  0  0  0  0
    3.8895    0.8114    0.4690 H   0  0  0  0  0  0  0  0  0  0  0  0
    2.9902   -0.6719   -0.0578 H   0  0  0  0  0  0  0  0  0  0  0  0
    3.1980   -1.0179    3.6610 H   0  0  0  0  0  0  0  0  0  0  0  0
    2.0889   -1.1847    2.3117 H   0  0  0  0  0  0  0  0  0  0  0  0
    2.6673    0.4149    2.7645 H   0  0  0  0  0  0  0  0  0  0  0  0
  1  2  1  0
  1 22  1  0
  1 23  1  0
  1 24  1  0
  2  3  1  0
  3  4  2  0
  3  5  1  0
  5 21  1  0
  5  6  1  1
  5  7  1  0
  6 25  1  0
  6 26  1  0
  6 27  1  0
  7  8  1  0
  7 32  1  6
  7 13  1  0
  8  9  1  0
  8 15  1  0
  8 28  1  6
  9 10  2  0
  9 11  1  0
 11 13  1  0
 11 12  1  0
 12 29  1  0
 12 30  1  0
 12 31  1  0
 13 14  2  0
 15 21  1  0
 15 16  1  0
 15 33  1  1
 16 17  1  0
 16 34  1  0
 16 35  1  0
 17 18  1  0
 17 19  1  0
 18 36  1  0
 18 37  1  0
 18 38  1  0
 19 20  2  0
 19 21  1  0
M  END
>  <i_m_ct_stereo_status>  (334) 
1

>  <s_m_source_file>  (334) 
/var/tmp/pbs.5076255.sched01/tmp0i_w_vt9/132llf9lao3.sdf

>  <i_m_source_file_index>  (334) 
8

>  <i_lp_mmshare_version>  (334) 
48012

>  <i_f3d_flags>  (334) 
0

>  <s_epik_input>  (334) 
W0NIM11PQyg9TylbQ0BdMShbQ0gzXSlOKEMoPU8pTihbQ0gyXTIpW0NIM10pW0NASF0yYyhjMTMpYyhbT0hdKW4oW0NIM10pYzNbT0hd

>  <s_epik_cmdline>  (334) 
J2VwaWtfcHl0aG9uJywgJy1waHQnLCAnMi4wJywgJy1waCcsICc3LjAnLCAnLXRuJywgJzgnLCAnLW1hJywgJzIwMCcsICctaW1hZScsICc8aW5maWxlLm1hZT4nLCAnLW9tYWUnLCAnPG91dGZpbGUubWFlPic=

>  <r_lp_tautomer_probability>  (334) 
1

>  <r_epik_Ionization_Penalty>  (334) 
2.70571e-05

>  <r_epik_Ionization_Penalty_Charging>  (334) 
0

>  <r_epik_Ionization_Penalty_Neutral>  (334) 
2.70571e-05

>  <r_epik_State_Penalty>  (334) 
-0

>  <r_epik_Charging_Adjusted_Penalty>  (334) 
0

>  <i_epik_Tot_Q>  (334) 
0

>  <i_epik_Tot_abs_Q>  (334) 
0

>  <s_epik_Chemistry_Notes>  (334) 
This compound has an ester and may undergo hydrolysis at high or low pH.

>  <s_lp_Force_Field>  (334) 
OPLS3e

>  <r_lp_Energy>  (334) 
-1.35779

>  <b_lp_Chiralities_Consistent>  (334) 
1

>  <s_lp_Variant>  (334) 
94:0-1

>  <s_i_glide_gridfile>  (334) 
pfpi4k_grid

>  <i_i_glide_lignum>  (334) 
8

>  <i_i_glide_rotatable_bonds>  (334) 
2

>  <r_i_docking_score>  (334) 
-3.07435

>  <r_i_glide_ligand_efficiency>  (334) 
-0.146398

>  <r_i_glide_ligand_efficiency_sa>  (334) 
-0.4039

>  <r_i_glide_ligand_efficiency_ln>  (334) 
-0.760127

>  <r_i_glide_gscore>  (334) 
-3.07435

>  <r_i_glide_lipo>  (334) 
-0.48191

>  <r_i_glide_hbond>  (334) 
0

>  <r_i_glide_metal>  (334) 
-0

>  <r_i_glide_rewards>  (334) 
-1.92424

>  <r_i_glide_evdw>  (334) 
-23.3375

>  <r_i_glide_ecoul>  (334) 
2.21904

>  <r_i_glide_erotb>  (334) 
0.209893

>  <r_i_glide_esite>  (334) 
-0.0440713

>  <r_i_glide_emodel>  (334) 
-24.8093

>  <r_i_glide_energy>  (334) 
-21.1185

>  <r_i_glide_einternal>  (334) 
1.2394

>  <r_i_glide_intrahb_reward>  (334) 
-0

>  <i_i_glide_confnum>  (334) 
2

>  <i_i_glide_posenum>  (334) 
26

>  <r_i_glide_eff_state_penalty>  (334) 
0

>  <ligand_id>  (334) 
94

>  <original_smiles>  (334) 
COC(=O)C1(C)c2c(c(O)n(C)c2O)C2CN(C)C(=O)N21

>  <smiles>  (334) 
[H]C([H])([H])OC(=O)C1(C([H])([H])[H])N2C(=O)N(C([H])([H])[H])C([H])([H])C2([H])C2([H])C(=O)N(C([H])([H])[H])C(=O)C21[H]

$$$$
94:0:1
     RDKit          3D

 38 40  0  0  1  0  0  0  0  0999 V2000
   -1.1381    3.6895    8.8293 C   0  0  0  0  0  0  0  0  0  0  0  0
   -0.2419    3.5736    7.7315 O   0  0  0  0  0  0  0  0  0  0  0  0
   -0.6917    3.1420    6.5379 C   0  0  0  0  0  0  0  0  0  0  0  0
   -1.8549    2.7887    6.3236 O   0  0  0  0  0  0  0  0  0  0  0  0
    0.4257    3.0613    5.4376 C   0  0  1  0  0  0  0  0  0  0  0  0
    1.3265    4.3117    5.5287 C   0  0  0  0  0  0  0  0  0  0  0  0
    1.2983    1.7457    5.4721 C   0  0  2  0  0  0  0  0  0  0  0  0
    0.9317    0.9077    4.2293 C   0  0  1  0  0  0  0  0  0  0  0  0
    0.2782   -0.3434    4.8181 C   0  0  0  0  0  0  0  0  0  0  0  0
   -0.2642   -1.2125    4.1331 O   0  0  0  0  0  0  0  0  0  0  0  0
    0.4126   -0.3635    6.1460 N   0  0  0  0  0  0  0  0  0  0  0  0
    0.0138   -1.4946    6.9830 C   0  0  0  0  0  0  0  0  0  0  0  0
    1.0180    0.7403    6.6031 C   0  0  0  0  0  0  0  0  0  0  0  0
    1.3326    0.9440    7.7749 O   0  0  0  0  0  0  0  0  0  0  0  0
    0.0637    1.8197    3.3459 C   0  0  1  0  0  0  0  0  0  0  0  0
   -1.3644    1.4856    2.8953 C   0  0  0  0  0  0  0  0  0  0  0  0
   -1.9532    2.8285    2.9075 N   0  0  0  0  0  0  0  0  0  0  0  0
   -3.3789    3.0045    2.6816 C   0  0  0  0  0  0  0  0  0  0  0  0
   -1.1671    3.7255    3.5317 C   0  0  0  0  0  0  0  0  0  0  0  0
   -1.4358    4.9098    3.7508 O   0  0  0  0  0  0  0  0  0  0  0  0
   -0.2029    3.0021    4.1117 N   0  0  0  0  0  0  0  0  0  0  0  0
   -0.6002    4.0629    9.7018 H   0  0  0  0  0  0  0  0  0  0  0  0
   -1.5794    2.7261    9.0984 H   0  0  0  0  0  0  0  0  0  0  0  0
   -1.9481    4.3908    8.6149 H   0  0  0  0  0  0  0  0  0  0  0  0
    1.8942    4.3186    6.4613 H   0  0  0  0  0  0  0  0  0  0  0  0
    0.7396    5.2292    5.4855 H   0  0  0  0  0  0  0  0  0  0  0  0
    2.0419    4.3294    4.7083 H   0  0  0  0  0  0  0  0  0  0  0  0
    1.8327    0.6055    3.6858 H   0  0  0  0  0  0  0  0  0  0  0  0
   -0.2285   -1.1667    7.9932 H   0  0  0  0  0  0  0  0  0  0  0  0
    0.8258   -2.2197    7.0646 H   0  0  0  0  0  0  0  0  0  0  0  0
   -0.8519   -2.0197    6.5729 H   0  0  0  0  0  0  0  0  0  0  0  0
    2.3629    1.9908    5.4706 H   0  0  0  0  0  0  0  0  0  0  0  0
    0.6477    2.1063    2.4680 H   0  0  0  0  0  0  0  0  0  0  0  0
   -1.4036    1.0191    1.9090 H   0  0  0  0  0  0  0  0  0  0  0  0
   -1.8939    0.8632    3.6209 H   0  0  0  0  0  0  0  0  0  0  0  0
   -3.6732    4.0526    2.6698 H   0  0  0  0  0  0  0  0  0  0  0  0
   -3.9239    2.5488    3.5040 H   0  0  0  0  0  0  0  0  0  0  0  0
   -3.6910    2.5451    1.7473 H   0  0  0  0  0  0  0  0  0  0  0  0
  1  2  1  0
  1 22  1  0
  1 23  1  0
  1 24  1  0
  2  3  1  0
  3  4  2  0
  3  5  1  0
  5 21  1  0
  5  6  1  6
  5  7  1  0
  6 25  1  0
  6 26  1  0
  6 27  1  0
  7  8  1  0
  7 32  1  6
  7 13  1  0
  8  9  1  0
  8 15  1  0
  8 28  1  6
  9 10  2  0
  9 11  1  0
 11 13  1  0
 11 12  1  0
 12 29  1  0
 12 30  1  0
 12 31  1  0
 13 14  2  0
 15 21  1  0
 15 16  1  0
 15 33  1  6
 16 17  1  0
 16 34  1  0
 16 35  1  0
 17 18  1  0
 17 19  1  0
 18 36  1  0
 18 37  1  0
 18 38  1  0
 19 20  2  0
 19 21  1  0
M  END
>  <i_m_ct_stereo_status>  (335) 
1

>  <s_m_source_file>  (335) 
/var/tmp/pbs.5076255.sched01/tmp0i_w_vt9/132llf9lao3.sdf

>  <i_m_source_file_index>  (335) 
8

>  <i_lp_mmshare_version>  (335) 
48012

>  <i_f3d_flags>  (335) 
0

>  <s_epik_input>  (335) 
W0NIM11PQyg9TylbQ0BdMShbQ0gzXSlOKEMoPU8pTihbQ0gyXTIpW0NIM10pW0NASF0yYyhjMTMpYyhbT0hdKW4oW0NIM10pYzNbT0hd

>  <s_epik_cmdline>  (335) 
J2VwaWtfcHl0aG9uJywgJy1waHQnLCAnMi4wJywgJy1waCcsICc3LjAnLCAnLXRuJywgJzgnLCAnLW1hJywgJzIwMCcsICctaW1hZScsICc8aW5maWxlLm1hZT4nLCAnLW9tYWUnLCAnPG91dGZpbGUubWFlPic=

>  <r_lp_tautomer_probability>  (335) 
1

>  <r_epik_Ionization_Penalty>  (335) 
2.70571e-05

>  <r_epik_Ionization_Penalty_Charging>  (335) 
0

>  <r_epik_Ionization_Penalty_Neutral>  (335) 
2.70571e-05

>  <r_epik_State_Penalty>  (335) 
-0

>  <r_epik_Charging_Adjusted_Penalty>  (335) 
0

>  <i_epik_Tot_Q>  (335) 
0

>  <i_epik_Tot_abs_Q>  (335) 
0

>  <s_epik_Chemistry_Notes>  (335) 
This compound has an ester and may undergo hydrolysis at high or low pH.

>  <s_lp_Force_Field>  (335) 
OPLS3e

>  <r_lp_Energy>  (335) 
-1.35779

>  <b_lp_Chiralities_Consistent>  (335) 
1

>  <s_lp_Variant>  (335) 
94:0-1

>  <s_i_glide_gridfile>  (335) 
pfpi4k_grid

>  <i_i_glide_lignum>  (335) 
8

>  <i_i_glide_rotatable_bonds>  (335) 
2

>  <r_i_docking_score>  (335) 
-3.03062

>  <r_i_glide_ligand_efficiency>  (335) 
-0.144315

>  <r_i_glide_ligand_efficiency_sa>  (335) 
-0.398154

>  <r_i_glide_ligand_efficiency_ln>  (335) 
-0.749314

>  <r_i_glide_gscore>  (335) 
-3.03062

>  <r_i_glide_lipo>  (335) 
0

>  <r_i_glide_hbond>  (335) 
-0.156822

>  <r_i_glide_metal>  (335) 
-0

>  <r_i_glide_rewards>  (335) 
-1.39574

>  <r_i_glide_evdw>  (335) 
-16.8773

>  <r_i_glide_ecoul>  (335) 
-4.2249

>  <r_i_glide_erotb>  (335) 
0.209893

>  <r_i_glide_esite>  (335) 
-0.210345

>  <r_i_glide_emodel>  (335) 
-24.8333

>  <r_i_glide_energy>  (335) 
-21.1022

>  <r_i_glide_einternal>  (335) 
0.966724

>  <r_i_glide_intrahb_reward>  (335) 
-0

>  <i_i_glide_confnum>  (335) 
4

>  <i_i_glide_posenum>  (335) 
40

>  <r_i_glide_eff_state_penalty>  (335) 
0

>  <ligand_id>  (335) 
94

>  <original_smiles>  (335) 
COC(=O)C1(C)c2c(c(O)n(C)c2O)C2CN(C)C(=O)N21

>  <smiles>  (335) 
[H]C([H])([H])OC(=O)C1(C([H])([H])[H])N2C(=O)N(C([H])([H])[H])C([H])([H])C2([H])C2([H])C(=O)N(C([H])([H])[H])C(=O)C21[H]

$$$$
94:0:2
     RDKit          3D

 38 40  0  0  1  0  0  0  0  0999 V2000
    3.5735    0.1332    1.2125 C   0  0  0  0  0  0  0  0  0  0  0  0
    4.0004   -1.1753    0.8365 O   0  0  0  0  0  0  0  0  0  0  0  0
    5.3120   -1.4072    0.6135 C   0  0  0  0  0  0  0  0  0  0  0  0
    6.1546   -0.5268    0.4831 O   0  0  0  0  0  0  0  0  0  0  0  0
    5.7052   -2.9141    0.5429 C   0  0  1  0  0  0  0  0  0  0  0  0
    7.2080   -3.0545    0.2136 C   0  0  0  0  0  0  0  0  0  0  0  0
    5.3415   -3.7618    1.8316 C   0  0  2  0  0  0  0  0  0  0  0  0
    4.1743   -4.6930    1.4481 C   0  0  1  0  0  0  0  0  0  0  0  0
    3.0098   -4.2102    2.3070 C   0  0  0  0  0  0  0  0  0  0  0  0
    1.8724   -4.6727    2.2087 O   0  0  0  0  0  0  0  0  0  0  0  0
    3.4258   -3.2698    3.1716 N   0  0  0  0  0  0  0  0  0  0  0  0
    2.5599   -2.6634    4.1893 C   0  0  0  0  0  0  0  0  0  0  0  0
    4.7301   -3.0059    3.0287 C   0  0  0  0  0  0  0  0  0  0  0  0
    5.3819   -2.2243    3.7309 O   0  0  0  0  0  0  0  0  0  0  0  0
    4.0167   -4.5694   -0.0813 C   0  0  1  0  0  0  0  0  0  0  0  0
    2.7364   -4.1027   -0.7938 C   0  0  0  0  0  0  0  0  0  0  0  0
    3.3328   -3.4141   -1.9457 N   0  0  0  0  0  0  0  0  0  0  0  0
    2.4916   -2.7190   -2.9008 C   0  0  0  0  0  0  0  0  0  0  0  0
    4.6411   -3.1549   -1.7691 C   0  0  0  0  0  0  0  0  0  0  0  0
    5.3773   -2.5054   -2.5197 O   0  0  0  0  0  0  0  0  0  0  0  0
    4.9071   -3.5305   -0.5121 N   0  0  0  0  0  0  0  0  0  0  0  0
    2.4908    0.1436    1.3626 H   0  0  0  0  0  0  0  0  0  0  0  0
    3.8357    0.8884    0.4734 H   0  0  0  0  0  0  0  0  0  0  0  0
    4.0342    0.4291    2.1599 H   0  0  0  0  0  0  0  0  0  0  0  0
    7.8191   -2.6668    1.0270 H   0  0  0  0  0  0  0  0  0  0  0  0
    7.4716   -2.5049   -0.6878 H   0  0  0  0  0  0  0  0  0  0  0  0
    7.4713   -4.1003    0.0528 H   0  0  0  0  0  0  0  0  0  0  0  0
    4.3940   -5.7311    1.7167 H   0  0  0  0  0  0  0  0  0  0  0  0
    2.8840   -1.6575    4.4583 H   0  0  0  0  0  0  0  0  0  0  0  0
    2.5785   -3.2611    5.0985 H   0  0  0  0  0  0  0  0  0  0  0  0
    1.5208   -2.5877    3.8710 H   0  0  0  0  0  0  0  0  0  0  0  0
    6.2214   -4.3292    2.1726 H   0  0  0  0  0  0  0  0  0  0  0  0
    4.3813   -5.4927   -0.5338 H   0  0  0  0  0  0  0  0  0  0  0  0
    2.0792   -4.9262   -1.0793 H   0  0  0  0  0  0  0  0  0  0  0  0
    2.1449   -3.3773   -0.2288 H   0  0  0  0  0  0  0  0  0  0  0  0
    3.0447   -2.2776   -3.7287 H   0  0  0  0  0  0  0  0  0  0  0  0
    2.0070   -1.9028   -2.3801 H   0  0  0  0  0  0  0  0  0  0  0  0
    1.7305   -3.3802   -3.3030 H   0  0  0  0  0  0  0  0  0  0  0  0
  1  2  1  0
  1 22  1  0
  1 23  1  0
  1 24  1  0
  2  3  1  0
  3  4  2  0
  3  5  1  0
  5 21  1  0
  5  6  1  6
  5  7  1  0
  6 25  1  0
  6 26  1  0
  6 27  1  0
  7  8  1  0
  7 32  1  1
  7 13  1  0
  8  9  1  0
  8 15  1  0
  8 28  1  6
  9 10  2  0
  9 11  1  0
 11 13  1  0
 11 12  1  0
 12 29  1  0
 12 30  1  0
 12 31  1  0
 13 14  2  0
 15 21  1  0
 15 16  1  0
 15 33  1  6
 16 17  1  0
 16 34  1  0
 16 35  1  0
 17 18  1  0
 17 19  1  0
 18 36  1  0
 18 37  1  0
 18 38  1  0
 19 20  2  0
 19 21  1  0
M  END
>  <i_m_ct_stereo_status>  (336) 
1

>  <s_m_source_file>  (336) 
/var/tmp/pbs.5076255.sched01/tmp0i_w_vt9/132llf9lao3.sdf

>  <i_m_source_file_index>  (336) 
8

>  <i_lp_mmshare_version>  (336) 
48012

>  <i_f3d_flags>  (336) 
0

>  <s_epik_input>  (336) 
W0NIM11PQyg9TylbQ0BdMShbQ0gzXSlOKEMoPU8pTihbQ0gyXTIpW0NIM10pW0NASF0yYyhjMTMpYyhbT0hdKW4oW0NIM10pYzNbT0hd

>  <s_epik_cmdline>  (336) 
J2VwaWtfcHl0aG9uJywgJy1waHQnLCAnMi4wJywgJy1waCcsICc3LjAnLCAnLXRuJywgJzgnLCAnLW1hJywgJzIwMCcsICctaW1hZScsICc8aW5maWxlLm1hZT4nLCAnLW9tYWUnLCAnPG91dGZpbGUubWFlPic=

>  <r_lp_tautomer_probability>  (336) 
1

>  <r_epik_Ionization_Penalty>  (336) 
2.70571e-05

>  <r_epik_Ionization_Penalty_Charging>  (336) 
0

>  <r_epik_Ionization_Penalty_Neutral>  (336) 
2.70571e-05

>  <r_epik_State_Penalty>  (336) 
-0

>  <r_epik_Charging_Adjusted_Penalty>  (336) 
0

>  <i_epik_Tot_Q>  (336) 
0

>  <i_epik_Tot_abs_Q>  (336) 
0

>  <s_epik_Chemistry_Notes>  (336) 
This compound has an ester and may undergo hydrolysis at high or low pH.

>  <s_lp_Force_Field>  (336) 
OPLS3e

>  <r_lp_Energy>  (336) 
-1.35779

>  <b_lp_Chiralities_Consistent>  (336) 
1

>  <s_lp_Variant>  (336) 
94:0-1

>  <s_i_glide_gridfile>  (336) 
pfpi4k_grid

>  <i_i_glide_lignum>  (336) 
8

>  <i_i_glide_rotatable_bonds>  (336) 
2

>  <r_i_docking_score>  (336) 
-3.00019

>  <r_i_glide_ligand_efficiency>  (336) 
-0.142866

>  <r_i_glide_ligand_efficiency_sa>  (336) 
-0.394157

>  <r_i_glide_ligand_efficiency_ln>  (336) 
-0.74179

>  <r_i_glide_gscore>  (336) 
-3.00019

>  <r_i_glide_lipo>  (336) 
-0.291638

>  <r_i_glide_hbond>  (336) 
-0.000648731

>  <r_i_glide_metal>  (336) 
-0

>  <r_i_glide_rewards>  (336) 
-1.63701

>  <r_i_glide_evdw>  (336) 
-20.2037

>  <r_i_glide_ecoul>  (336) 
-1.79566

>  <r_i_glide_erotb>  (336) 
0.209893

>  <r_i_glide_esite>  (336) 
-0.0012521

>  <r_i_glide_emodel>  (336) 
-25.4821

>  <r_i_glide_energy>  (336) 
-21.9993

>  <r_i_glide_einternal>  (336) 
0.805261

>  <r_i_glide_intrahb_reward>  (336) 
-0

>  <i_i_glide_confnum>  (336) 
1

>  <i_i_glide_posenum>  (336) 
30

>  <r_i_glide_eff_state_penalty>  (336) 
0

>  <ligand_id>  (336) 
94

>  <original_smiles>  (336) 
COC(=O)C1(C)c2c(c(O)n(C)c2O)C2CN(C)C(=O)N21

>  <smiles>  (336) 
[H]C([H])([H])OC(=O)C1(C([H])([H])[H])N2C(=O)N(C([H])([H])[H])C([H])([H])C2([H])C2([H])C(=O)N(C([H])([H])[H])C(=O)C21[H]

$$$$
95:0:0
     RDKit          3D

 32 35  0  0  1  0  0  0  0  0999 V2000
    3.4453   -4.5782    5.4246 C   0  0  0  0  0  0  0  0  0  0  0  0
    3.7201   -3.9232    4.1142 C   0  0  0  0  0  0  0  0  0  0  0  0
    3.3106   -4.4561    2.9552 N   0  0  0  0  0  0  0  0  0  0  0  0
    3.6975   -3.6474    1.8919 C   0  0  0  0  0  0  0  0  0  0  0  0
    3.4385   -3.8867    0.5184 C   0  0  0  0  0  0  0  0  0  0  0  0
    3.8807   -2.9552   -0.4385 C   0  0  0  0  0  0  0  0  0  0  0  0
    4.5892   -1.8205   -0.0793 C   0  0  0  0  0  0  0  0  0  0  0  0
    4.8745   -1.5529    1.2675 C   0  0  0  0  0  0  0  0  0  0  0  0
    4.4235   -2.4627    2.2446 C   0  0  0  0  0  0  0  0  0  0  0  0
    4.6074   -2.3958    3.9957 S   0  0  0  0  0  0  0  0  0  0  0  0
    4.9765   -1.0635   -1.1467 O   0  0  0  0  0  0  0  0  0  0  0  0
    4.4958   -1.6999   -2.3373 C   0  0  2  0  0  0  0  0  0  0  0  0
    3.6089   -0.7038   -3.1006 C   0  0  0  0  0  0  0  0  0  0  0  0
    2.8938   -1.4092   -4.2579 C   0  0  0  0  0  0  0  0  0  0  0  0
    2.1728   -2.7093   -3.8227 C   0  0  0  0  0  0  0  0  0  0  0  0
    2.3261   -3.0039   -2.3769 N   0  0  0  0  0  0  0  0  0  0  0  0
    3.7399   -3.0035   -1.9250 C   0  0  2  0  0  0  0  0  0  0  0  0
    2.8853   -5.5000    5.2636 H   0  0  0  0  0  0  0  0  0  0  0  0
    2.8550   -3.9176    6.0608 H   0  0  0  0  0  0  0  0  0  0  0  0
    4.3806   -4.8231    5.9298 H   0  0  0  0  0  0  0  0  0  0  0  0
    2.9181   -4.7846    0.2230 H   0  0  0  0  0  0  0  0  0  0  0  0
    5.4267   -0.6696    1.5451 H   0  0  0  0  0  0  0  0  0  0  0  0
    5.3601   -1.9673   -2.9496 H   0  0  0  0  0  0  0  0  0  0  0  0
    2.8560   -0.2834   -2.4330 H   0  0  0  0  0  0  0  0  0  0  0  0
    4.2027    0.1362   -3.4641 H   0  0  0  0  0  0  0  0  0  0  0  0
    2.1878   -0.7193   -4.7216 H   0  0  0  0  0  0  0  0  0  0  0  0
    3.6239   -1.6381   -5.0340 H   0  0  0  0  0  0  0  0  0  0  0  0
    1.1108   -2.6528   -4.0729 H   0  0  0  0  0  0  0  0  0  0  0  0
    2.5683   -3.5533   -4.3885 H   0  0  0  0  0  0  0  0  0  0  0  0
    1.8219   -2.2953   -1.8490 H   0  0  0  0  0  0  0  0  0  0  0  0
    4.2530   -3.8790   -2.3191 H   0  0  0  0  0  0  0  0  0  0  0  0
    1.9243   -3.9124   -2.1975 H   0  0  0  0  0  0  0  0  0  0  0  0
  1  2  1  0
  1 18  1  0
  1 19  1  0
  1 20  1  0
  2 10  1  0
  2  3  2  0
  3  4  1  0
  4  9  2  0
  4  5  1  0
  5  6  2  0
  5 21  1  0
  6 17  1  0
  6  7  1  0
  7  8  2  0
  7 11  1  0
  8  9  1  0
  8 22  1  0
  9 10  1  0
 11 12  1  0
 12 17  1  0
 12 13  1  0
 12 23  1  6
 13 14  1  0
 13 24  1  0
 13 25  1  0
 14 15  1  0
 14 26  1  0
 14 27  1  0
 15 16  1  0
 15 28  1  0
 15 29  1  0
 16 17  1  0
 16 30  1  0
 16 32  1  0
 17 31  1  6
M  CHG  1  16   1
M  END
>  <i_m_ct_stereo_status>  (337) 
1

>  <s_m_source_file>  (337) 
/var/tmp/pbs.5076255.sched01/tmp0i_w_vt9/132llf9lao3.sdf

>  <i_m_source_file_index>  (337) 
9

>  <i_lp_mmshare_version>  (337) 
48012

>  <i_f3d_flags>  (337) 
0

>  <s_epik_input>  (337) 
W0NIM11jKG4xKXNjKGMxMilbY0hdYzNjKFtjSF0yKVtDQEBIXTRbQ0BIXShPMylbQ0gyXVtDSDJdW0NIMl1bTkhdNA==

>  <s_epik_cmdline>  (337) 
J2VwaWtfcHl0aG9uJywgJy1waHQnLCAnMi4wJywgJy1waCcsICc3LjAnLCAnLXRuJywgJzgnLCAnLW1hJywgJzIwMCcsICctaW1hZScsICc8aW5maWxlLm1hZT4nLCAnLW9tYWUnLCAnPG91dGZpbGUubWFlPic=

>  <r_epik_Ionization_Penalty>  (337) 
0.0704974

>  <r_epik_Ionization_Penalty_Charging>  (337) 
0.0704972

>  <r_epik_Ionization_Penalty_Neutral>  (337) 
2.51101e-07

>  <r_epik_State_Penalty>  (337) 
0.0618222

>  <r_epik_Charging_Adjusted_Penalty>  (337) 
0.132319

>  <i_epik_Tot_Q>  (337) 
1

>  <i_epik_Tot_abs_Q>  (337) 
1

>  <s_lp_Force_Field>  (337) 
OPLS3e

>  <r_lp_Energy>  (337) 
21.037

>  <b_lp_Chiralities_Consistent>  (337) 
1

>  <s_lp_Variant>  (337) 
95:0-1

>  <s_i_glide_gridfile>  (337) 
pfpi4k_grid

>  <i_i_glide_lignum>  (337) 
9

>  <i_i_glide_rotatable_bonds>  (337) 
0

>  <r_i_docking_score>  (337) 
-3.9513

>  <r_i_glide_ligand_efficiency>  (337) 
-0.23243

>  <r_i_glide_ligand_efficiency_sa>  (337) 
-0.597642

>  <r_i_glide_ligand_efficiency_ln>  (337) 
-1.03081

>  <r_i_glide_gscore>  (337) 
-3.9513

>  <r_i_glide_lipo>  (337) 
-0.411479

>  <r_i_glide_hbond>  (337) 
-0.2

>  <r_i_glide_metal>  (337) 
-0

>  <r_i_glide_rewards>  (337) 
-1.7227

>  <r_i_glide_evdw>  (337) 
-19.2635

>  <r_i_glide_ecoul>  (337) 
-4.35963

>  <r_i_glide_erotb>  (337) 
0

>  <r_i_glide_esite>  (337) 
0

>  <r_i_glide_emodel>  (337) 
-31.067

>  <r_i_glide_energy>  (337) 
-23.6232

>  <r_i_glide_einternal>  (337) 
0

>  <r_i_glide_intrahb_reward>  (337) 
-0

>  <i_i_glide_confnum>  (337) 
1

>  <i_i_glide_posenum>  (337) 
18

>  <r_i_glide_eff_state_penalty>  (337) 
0

>  <ligand_id>  (337) 
95

>  <original_smiles>  (337) 
Cc1nc2cc3c(cc2s1)OC1CCCNC31

>  <smiles>  (337) 
[H]c1c2c(c([H])c3sc(C([H])([H])[H])nc13)OC1([H])C([H])([H])C([H])([H])C([H])([H])[N+]([H])([H])C21[H]

$$$$
95:0:1
     RDKit          3D

 32 35  0  0  1  0  0  0  0  0999 V2000
    1.5199   -6.0136    4.9888 C   0  0  0  0  0  0  0  0  0  0  0  0
    2.1154   -5.2005    3.8893 C   0  0  0  0  0  0  0  0  0  0  0  0
    1.9211   -5.5003    2.5965 N   0  0  0  0  0  0  0  0  0  0  0  0
    2.6101   -4.5997    1.7902 C   0  0  0  0  0  0  0  0  0  0  0  0
    2.6338   -4.6008    0.3705 C   0  0  0  0  0  0  0  0  0  0  0  0
    3.3302   -3.5846   -0.3067 C   0  0  0  0  0  0  0  0  0  0  0  0
    4.0223   -2.5968    0.3751 C   0  0  0  0  0  0  0  0  0  0  0  0
    4.0318   -2.5690    1.7763 C   0  0  0  0  0  0  0  0  0  0  0  0
    3.3213   -3.5658    2.4766 C   0  0  0  0  0  0  0  0  0  0  0  0
    3.1222   -3.7816    4.2146 S   0  0  0  0  0  0  0  0  0  0  0  0
    4.6825   -1.7344   -0.4513 O   0  0  0  0  0  0  0  0  0  0  0  0
    4.4373   -2.1358   -1.8065 C   0  0  2  0  0  0  0  0  0  0  0  0
    3.8051   -0.9568   -2.5568 C   0  0  0  0  0  0  0  0  0  0  0  0
    3.2992   -1.3907   -3.9401 C   0  0  0  0  0  0  0  0  0  0  0  0
    2.4054   -2.6515   -3.8757 C   0  0  0  0  0  0  0  0  0  0  0  0
    2.2272   -3.1540   -2.4929 N   0  0  0  0  0  0  0  0  0  0  0  0
    3.5087   -3.3892   -1.7768 C   0  0  2  0  0  0  0  0  0  0  0  0
    0.9443   -6.8376    4.5669 H   0  0  0  0  0  0  0  0  0  0  0  0
    0.8575   -5.3962    5.5972 H   0  0  0  0  0  0  0  0  0  0  0  0
    2.3045   -6.4296    5.6216 H   0  0  0  0  0  0  0  0  0  0  0  0
    2.1250   -5.3798   -0.1745 H   0  0  0  0  0  0  0  0  0  0  0  0
    4.5724   -1.8010    2.3051 H   0  0  0  0  0  0  0  0  0  0  0  0
    5.3911   -2.3958   -2.2706 H   0  0  0  0  0  0  0  0  0  0  0  0
    2.9463   -0.6222   -1.9792 H   0  0  0  0  0  0  0  0  0  0  0  0
    4.5069   -0.1225   -2.6345 H   0  0  0  0  0  0  0  0  0  0  0  0
    2.7464   -0.5686   -4.4008 H   0  0  0  0  0  0  0  0  0  0  0  0
    4.1603   -1.5809   -4.5841 H   0  0  0  0  0  0  0  0  0  0  0  0
    1.4268   -2.4502   -4.3180 H   0  0  0  0  0  0  0  0  0  0  0  0
    2.8528   -3.4409   -4.4804 H   0  0  0  0  0  0  0  0  0  0  0  0
    1.6876   -2.4733   -1.9663 H   0  0  0  0  0  0  0  0  0  0  0  0
    4.0398   -4.2401   -2.1965 H   0  0  0  0  0  0  0  0  0  0  0  0
    1.7208   -4.0265   -2.5497 H   0  0  0  0  0  0  0  0  0  0  0  0
  1  2  1  0
  1 18  1  0
  1 19  1  0
  1 20  1  0
  2 10  1  0
  2  3  2  0
  3  4  1  0
  4  9  2  0
  4  5  1  0
  5  6  2  0
  5 21  1  0
  6 17  1  0
  6  7  1  0
  7  8  2  0
  7 11  1  0
  8  9  1  0
  8 22  1  0
  9 10  1  0
 11 12  1  0
 12 17  1  0
 12 13  1  0
 12 23  1  6
 13 14  1  0
 13 24  1  0
 13 25  1  0
 14 15  1  0
 14 26  1  0
 14 27  1  0
 15 16  1  0
 15 28  1  0
 15 29  1  0
 16 17  1  0
 16 30  1  0
 16 32  1  0
 17 31  1  6
M  CHG  1  16   1
M  END
>  <i_m_ct_stereo_status>  (338) 
1

>  <s_m_source_file>  (338) 
/var/tmp/pbs.5076255.sched01/tmp0i_w_vt9/132llf9lao3.sdf

>  <i_m_source_file_index>  (338) 
9

>  <i_lp_mmshare_version>  (338) 
48012

>  <i_f3d_flags>  (338) 
0

>  <s_epik_input>  (338) 
W0NIM11jKG4xKXNjKGMxMilbY0hdYzNjKFtjSF0yKVtDQEBIXTRbQ0BIXShPMylbQ0gyXVtDSDJdW0NIMl1bTkhdNA==

>  <s_epik_cmdline>  (338) 
J2VwaWtfcHl0aG9uJywgJy1waHQnLCAnMi4wJywgJy1waCcsICc3LjAnLCAnLXRuJywgJzgnLCAnLW1hJywgJzIwMCcsICctaW1hZScsICc8aW5maWxlLm1hZT4nLCAnLW9tYWUnLCAnPG91dGZpbGUubWFlPic=

>  <r_epik_Ionization_Penalty>  (338) 
0.0704974

>  <r_epik_Ionization_Penalty_Charging>  (338) 
0.0704972

>  <r_epik_Ionization_Penalty_Neutral>  (338) 
2.51101e-07

>  <r_epik_State_Penalty>  (338) 
0.0618222

>  <r_epik_Charging_Adjusted_Penalty>  (338) 
0.132319

>  <i_epik_Tot_Q>  (338) 
1

>  <i_epik_Tot_abs_Q>  (338) 
1

>  <s_lp_Force_Field>  (338) 
OPLS3e

>  <r_lp_Energy>  (338) 
21.037

>  <b_lp_Chiralities_Consistent>  (338) 
1

>  <s_lp_Variant>  (338) 
95:0-1

>  <s_i_glide_gridfile>  (338) 
pfpi4k_grid

>  <i_i_glide_lignum>  (338) 
9

>  <i_i_glide_rotatable_bonds>  (338) 
0

>  <r_i_docking_score>  (338) 
-3.86762

>  <r_i_glide_ligand_efficiency>  (338) 
-0.227507

>  <r_i_glide_ligand_efficiency_sa>  (338) 
-0.584985

>  <r_i_glide_ligand_efficiency_ln>  (338) 
-1.00898

>  <r_i_glide_gscore>  (338) 
-3.86762

>  <r_i_glide_lipo>  (338) 
-0.30787

>  <r_i_glide_hbond>  (338) 
-0.178777

>  <r_i_glide_metal>  (338) 
-0

>  <r_i_glide_rewards>  (338) 
-1.7227

>  <r_i_glide_evdw>  (338) 
-17.9065

>  <r_i_glide_ecoul>  (338) 
-5.08631

>  <r_i_glide_erotb>  (338) 
0

>  <r_i_glide_esite>  (338) 
0

>  <r_i_glide_emodel>  (338) 
-30.2652

>  <r_i_glide_energy>  (338) 
-22.9928

>  <r_i_glide_einternal>  (338) 
0

>  <r_i_glide_intrahb_reward>  (338) 
-0

>  <i_i_glide_confnum>  (338) 
2

>  <i_i_glide_posenum>  (338) 
1

>  <r_i_glide_eff_state_penalty>  (338) 
0

>  <ligand_id>  (338) 
95

>  <original_smiles>  (338) 
Cc1nc2cc3c(cc2s1)OC1CCCNC31

>  <smiles>  (338) 
[H]c1c2c(c([H])c3sc(C([H])([H])[H])nc13)OC1([H])C([H])([H])C([H])([H])C([H])([H])[N+]([H])([H])C21[H]

$$$$
95:0:2
     RDKit          3D

 32 35  0  0  1  0  0  0  0  0999 V2000
    3.2578   -0.4931   -4.7329 C   0  0  0  0  0  0  0  0  0  0  0  0
    3.4787   -1.1956   -3.4379 C   0  0  0  0  0  0  0  0  0  0  0  0
    4.2048   -0.6467   -2.4568 N   0  0  0  0  0  0  0  0  0  0  0  0
    4.1794   -1.4570   -1.3286 C   0  0  0  0  0  0  0  0  0  0  0  0
    4.7626   -1.1595   -0.0662 C   0  0  0  0  0  0  0  0  0  0  0  0
    4.6989   -2.1097    0.9646 C   0  0  0  0  0  0  0  0  0  0  0  0
    4.0891   -3.3392    0.7813 C   0  0  0  0  0  0  0  0  0  0  0  0
    3.4901   -3.6640   -0.4442 C   0  0  0  0  0  0  0  0  0  0  0  0
    3.5269   -2.7179   -1.4902 C   0  0  0  0  0  0  0  0  0  0  0  0
    2.8456   -2.8142   -3.1167 S   0  0  0  0  0  0  0  0  0  0  0  0
    4.1757   -4.1491    1.8754 O   0  0  0  0  0  0  0  0  0  0  0  0
    4.8917   -3.4453    2.9006 C   0  0  2  0  0  0  0  0  0  0  0  0
    3.9923   -3.3678    4.1459 C   0  0  0  0  0  0  0  0  0  0  0  0
    4.6060   -2.4200    5.1902 C   0  0  0  0  0  0  0  0  0  0  0  0
    4.9948   -1.0414    4.6038 C   0  0  0  0  0  0  0  0  0  0  0  0
    4.7070   -0.9336    3.1522 N   0  0  0  0  0  0  0  0  0  0  0  0
    5.2772   -2.0373    2.3412 C   0  0  2  0  0  0  0  0  0  0  0  0
    3.7034    0.5015   -4.6951 H   0  0  0  0  0  0  0  0  0  0  0  0
    2.1902   -0.3943   -4.9459 H   0  0  0  0  0  0  0  0  0  0  0  0
    3.7373   -1.0527   -5.5319 H   0  0  0  0  0  0  0  0  0  0  0  0
    5.2579   -0.2179    0.0938 H   0  0  0  0  0  0  0  0  0  0  0  0
    3.0286   -4.6252   -0.5932 H   0  0  0  0  0  0  0  0  0  0  0  0
    5.8005   -4.0054    3.1370 H   0  0  0  0  0  0  0  0  0  0  0  0
    3.0016   -3.0052    3.8659 H   0  0  0  0  0  0  0  0  0  0  0  0
    3.8440   -4.3649    4.5661 H   0  0  0  0  0  0  0  0  0  0  0  0
    3.9073   -2.2866    6.0185 H   0  0  0  0  0  0  0  0  0  0  0  0
    5.4938   -2.8941    5.6181 H   0  0  0  0  0  0  0  0  0  0  0  0
    4.4732   -0.2463    5.1403 H   0  0  0  0  0  0  0  0  0  0  0  0
    6.0535   -0.8524    4.7766 H   0  0  0  0  0  0  0  0  0  0  0  0
    3.7044   -0.9457    3.0271 H   0  0  0  0  0  0  0  0  0  0  0  0
    6.3589   -1.9353    2.2808 H   0  0  0  0  0  0  0  0  0  0  0  0
    5.0658   -0.0547    2.8160 H   0  0  0  0  0  0  0  0  0  0  0  0
  1  2  1  0
  1 18  1  0
  1 19  1  0
  1 20  1  0
  2 10  1  0
  2  3  2  0
  3  4  1  0
  4  9  2  0
  4  5  1  0
  5  6  2  0
  5 21  1  0
  6 17  1  0
  6  7  1  0
  7  8  2  0
  7 11  1  0
  8  9  1  0
  8 22  1  0
  9 10  1  0
 11 12  1  0
 12 17  1  0
 12 13  1  0
 12 23  1  1
 13 14  1  0
 13 24  1  0
 13 25  1  0
 14 15  1  0
 14 26  1  0
 14 27  1  0
 15 16  1  0
 15 28  1  0
 15 29  1  0
 16 17  1  0
 16 30  1  0
 16 32  1  0
 17 31  1  6
M  CHG  1  16   1
M  END
>  <i_m_ct_stereo_status>  (339) 
1

>  <s_m_source_file>  (339) 
/var/tmp/pbs.5076255.sched01/tmp0i_w_vt9/132llf9lao3.sdf

>  <i_m_source_file_index>  (339) 
9

>  <i_lp_mmshare_version>  (339) 
48012

>  <i_f3d_flags>  (339) 
0

>  <s_epik_input>  (339) 
W0NIM11jKG4xKXNjKGMxMilbY0hdYzNjKFtjSF0yKVtDQEBIXTRbQ0BIXShPMylbQ0gyXVtDSDJdW0NIMl1bTkhdNA==

>  <s_epik_cmdline>  (339) 
J2VwaWtfcHl0aG9uJywgJy1waHQnLCAnMi4wJywgJy1waCcsICc3LjAnLCAnLXRuJywgJzgnLCAnLW1hJywgJzIwMCcsICctaW1hZScsICc8aW5maWxlLm1hZT4nLCAnLW9tYWUnLCAnPG91dGZpbGUubWFlPic=

>  <r_epik_Ionization_Penalty>  (339) 
0.0704974

>  <r_epik_Ionization_Penalty_Charging>  (339) 
0.0704972

>  <r_epik_Ionization_Penalty_Neutral>  (339) 
2.51101e-07

>  <r_epik_State_Penalty>  (339) 
0.0618222

>  <r_epik_Charging_Adjusted_Penalty>  (339) 
0.132319

>  <i_epik_Tot_Q>  (339) 
1

>  <i_epik_Tot_abs_Q>  (339) 
1

>  <s_lp_Force_Field>  (339) 
OPLS3e

>  <r_lp_Energy>  (339) 
21.037

>  <b_lp_Chiralities_Consistent>  (339) 
1

>  <s_lp_Variant>  (339) 
95:0-1

>  <s_i_glide_gridfile>  (339) 
pfpi4k_grid

>  <i_i_glide_lignum>  (339) 
9

>  <i_i_glide_rotatable_bonds>  (339) 
0

>  <r_i_docking_score>  (339) 
-3.68752

>  <r_i_glide_ligand_efficiency>  (339) 
-0.216913

>  <r_i_glide_ligand_efficiency_sa>  (339) 
-0.557745

>  <r_i_glide_ligand_efficiency_ln>  (339) 
-0.961993

>  <r_i_glide_gscore>  (339) 
-3.68752

>  <r_i_glide_lipo>  (339) 
-0.701904

>  <r_i_glide_hbond>  (339) 
0

>  <r_i_glide_metal>  (339) 
-0

>  <r_i_glide_rewards>  (339) 
-1.7227

>  <r_i_glide_evdw>  (339) 
-22.3987

>  <r_i_glide_ecoul>  (339) 
-0.953231

>  <r_i_glide_erotb>  (339) 
0

>  <r_i_glide_esite>  (339) 
0

>  <r_i_glide_emodel>  (339) 
-30.2623

>  <r_i_glide_energy>  (339) 
-23.3519

>  <r_i_glide_einternal>  (339) 
0

>  <r_i_glide_intrahb_reward>  (339) 
-0

>  <i_i_glide_confnum>  (339) 
2

>  <i_i_glide_posenum>  (339) 
26

>  <r_i_glide_eff_state_penalty>  (339) 
0

>  <ligand_id>  (339) 
95

>  <original_smiles>  (339) 
Cc1nc2cc3c(cc2s1)OC1CCCNC31

>  <smiles>  (339) 
[H]c1c2c(c([H])c3sc(C([H])([H])[H])nc13)OC1([H])C([H])([H])C([H])([H])C([H])([H])[N+]([H])([H])C21[H]

$$$$
95:1:0
     RDKit          3D

 31 34  0  0  1  0  0  0  0  0999 V2000
   -6.6840   -3.9528   -4.1207 C   0  0  0  0  0  0  0  0  0  0  0  0
   -6.7477   -5.1510   -4.9902 C   0  0  0  0  0  0  0  0  0  0  0  0
   -5.8146   -6.1006   -4.9639 N   0  0  0  0  0  0  0  0  0  0  0  0
   -6.1527   -7.1147   -5.8463 C   0  0  0  0  0  0  0  0  0  0  0  0
   -5.4056   -8.2870   -6.0953 C   0  0  0  0  0  0  0  0  0  0  0  0
   -5.8800   -9.2218   -7.0285 C   0  0  0  0  0  0  0  0  0  0  0  0
   -7.0624   -9.0280   -7.7200 C   0  0  0  0  0  0  0  0  0  0  0  0
   -7.8336   -7.8784   -7.5104 C   0  0  0  0  0  0  0  0  0  0  0  0
   -7.3739   -6.9246   -6.5758 C   0  0  0  0  0  0  0  0  0  0  0  0
   -8.0999   -5.3907   -6.1051 S   0  0  0  0  0  0  0  0  0  0  0  0
   -7.3475  -10.0507   -8.5826 O   0  0  0  0  0  0  0  0  0  0  0  0
   -6.3689  -11.0839   -8.3817 C   0  0  2  0  0  0  0  0  0  0  0  0
   -7.0543  -12.3038   -7.7477 C   0  0  0  0  0  0  0  0  0  0  0  0
   -6.0191  -13.3656   -7.3310 C   0  0  0  0  0  0  0  0  0  0  0  0
   -4.6944  -12.7588   -6.8180 C   0  0  0  0  0  0  0  0  0  0  0  0
   -4.8708  -11.3869   -6.3563 N   0  0  0  0  0  0  0  0  0  0  0  0
   -5.2539  -10.5043   -7.4634 C   0  0  2  0  0  0  0  0  0  0  0  0
   -5.7864   -3.9634   -3.5122 H   0  0  0  0  0  0  0  0  0  0  0  0
   -7.5690   -3.9188   -3.4855 H   0  0  0  0  0  0  0  0  0  0  0  0
   -6.6726   -3.0544   -4.7267 H   0  0  0  0  0  0  0  0  0  0  0  0
   -4.4786   -8.4566   -5.5703 H   0  0  0  0  0  0  0  0  0  0  0  0
   -8.7576   -7.7285   -8.0448 H   0  0  0  0  0  0  0  0  0  0  0  0
   -5.9508  -11.3768   -9.3460 H   0  0  0  0  0  0  0  0  0  0  0  0
   -7.6090  -11.9831   -6.8642 H   0  0  0  0  0  0  0  0  0  0  0  0
   -7.7885  -12.7291   -8.4295 H   0  0  0  0  0  0  0  0  0  0  0  0
   -6.4544  -13.9940   -6.5564 H   0  0  0  0  0  0  0  0  0  0  0  0
   -5.8029  -14.0237   -8.1750 H   0  0  0  0  0  0  0  0  0  0  0  0
   -4.2979  -13.3704   -6.0050 H   0  0  0  0  0  0  0  0  0  0  0  0
   -3.9428  -12.7706   -7.6075 H   0  0  0  0  0  0  0  0  0  0  0  0
   -3.9756  -11.0894   -5.9965 H   0  0  0  0  0  0  0  0  0  0  0  0
   -4.3740  -10.2664   -8.0583 H   0  0  0  0  0  0  0  0  0  0  0  0
  1  2  1  0
  1 18  1  0
  1 19  1  0
  1 20  1  0
  2 10  1  0
  2  3  2  0
  3  4  1  0
  4  9  2  0
  4  5  1  0
  5  6  2  0
  5 21  1  0
  6 17  1  0
  6  7  1  0
  7  8  2  0
  7 11  1  0
  8  9  1  0
  8 22  1  0
  9 10  1  0
 11 12  1  0
 12 17  1  0
 12 13  1  0
 12 23  1  6
 13 14  1  0
 13 24  1  0
 13 25  1  0
 14 15  1  0
 14 26  1  0
 14 27  1  0
 15 16  1  0
 15 28  1  0
 15 29  1  0
 16 17  1  0
 16 30  1  0
 17 31  1  6
M  END
>  <i_m_ct_stereo_status>  (340) 
1

>  <s_m_source_file>  (340) 
/var/tmp/pbs.5076255.sched01/tmp0i_w_vt9/132llf9lao3.sdf

>  <i_m_source_file_index>  (340) 
10

>  <i_lp_mmshare_version>  (340) 
48012

>  <i_f3d_flags>  (340) 
0

>  <s_epik_input>  (340) 
W0NIM11jKG4xKXNjKGMxMilbY0hdYzNjKFtjSF0yKVtDQEBIXTRbQ0BIXShPMylbQ0gyXVtDSDJdW0NIMl1bTkhdNA==

>  <s_epik_cmdline>  (340) 
J2VwaWtfcHl0aG9uJywgJy1waHQnLCAnMi4wJywgJy1waCcsICc3LjAnLCAnLXRuJywgJzgnLCAnLW1hJywgJzIwMCcsICctaW1hZScsICc8aW5maWxlLm1hZT4nLCAnLW9tYWUnLCAnPG91dGZpbGUubWFlPic=

>  <r_epik_Ionization_Penalty>  (340) 
1.2963

>  <r_epik_Ionization_Penalty_Charging>  (340) 
0

>  <r_epik_Ionization_Penalty_Neutral>  (340) 
1.2963

>  <r_epik_State_Penalty>  (340) 
1.3697

>  <r_epik_Charging_Adjusted_Penalty>  (340) 
1.3697

>  <i_epik_Tot_Q>  (340) 
0

>  <i_epik_Tot_abs_Q>  (340) 
0

>  <s_lp_Force_Field>  (340) 
OPLS3e

>  <r_lp_Energy>  (340) 
26.8786

>  <b_lp_Chiralities_Consistent>  (340) 
1

>  <s_lp_Variant>  (340) 
95:0-2

>  <s_i_glide_gridfile>  (340) 
pfpi4k_grid

>  <i_i_glide_lignum>  (340) 
10

>  <i_i_glide_rotatable_bonds>  (340) 
0

>  <r_i_docking_score>  (340) 
-6.0375

>  <r_i_glide_ligand_efficiency>  (340) 
-0.355147

>  <r_i_glide_ligand_efficiency_sa>  (340) 
-0.913183

>  <r_i_glide_ligand_efficiency_ln>  (340) 
-1.57505

>  <r_i_glide_gscore>  (340) 
-6.0375

>  <r_i_glide_lipo>  (340) 
-2.37578

>  <r_i_glide_hbond>  (340) 
0

>  <r_i_glide_metal>  (340) 
-0

>  <r_i_glide_rewards>  (340) 
-2.24624

>  <r_i_glide_evdw>  (340) 
-25.4534

>  <r_i_glide_ecoul>  (340) 
-0.952023

>  <r_i_glide_erotb>  (340) 
0

>  <r_i_glide_esite>  (340) 
0

>  <r_i_glide_emodel>  (340) 
-35.0479

>  <r_i_glide_energy>  (340) 
-26.4054

>  <r_i_glide_einternal>  (340) 
0

>  <r_i_glide_intrahb_reward>  (340) 
-0

>  <i_i_glide_confnum>  (340) 
1

>  <i_i_glide_posenum>  (340) 
1

>  <r_i_glide_eff_state_penalty>  (340) 
0

>  <ligand_id>  (340) 
95

>  <original_smiles>  (340) 
Cc1nc2cc3c(cc2s1)OC1CCCNC31

>  <smiles>  (340) 
[H]c1c2c(c([H])c3sc(C([H])([H])[H])nc13)OC1([H])C2([H])N([H])C([H])([H])C([H])([H])C1([H])[H]

$$$$
95:1:1
     RDKit          3D

 31 34  0  0  1  0  0  0  0  0999 V2000
    1.8194   -6.2194    4.6258 C   0  0  0  0  0  0  0  0  0  0  0  0
    2.5423   -5.4702    3.5579 C   0  0  0  0  0  0  0  0  0  0  0  0
    2.1538   -5.5049    2.2754 N   0  0  0  0  0  0  0  0  0  0  0  0
    3.0092   -4.7270    1.4989 C   0  0  0  0  0  0  0  0  0  0  0  0
    2.9284   -4.5346    0.1010 C   0  0  0  0  0  0  0  0  0  0  0  0
    3.8637   -3.7023   -0.5407 C   0  0  0  0  0  0  0  0  0  0  0  0
    4.8689   -3.0586    0.1617 C   0  0  0  0  0  0  0  0  0  0  0  0
    4.9908   -3.2295    1.5488 C   0  0  0  0  0  0  0  0  0  0  0  0
    4.0619   -4.0624    2.2109 C   0  0  0  0  0  0  0  0  0  0  0  0
    3.9607   -4.4738    3.9231 S   0  0  0  0  0  0  0  0  0  0  0  0
    5.6739   -2.2989   -0.6395 O   0  0  0  0  0  0  0  0  0  0  0  0
    5.1166   -2.3051   -1.9652 C   0  0  2  0  0  0  0  0  0  0  0  0
    4.5824   -0.9034   -2.2803 C   0  0  0  0  0  0  0  0  0  0  0  0
    3.7956   -0.8889   -3.6004 C   0  0  0  0  0  0  0  0  0  0  0  0
    2.9986   -2.1897   -3.8482 C   0  0  0  0  0  0  0  0  0  0  0  0
    2.7408   -2.9222   -2.6146 N   0  0  0  0  0  0  0  0  0  0  0  0
    3.9876   -3.3790   -1.9958 C   0  0  2  0  0  0  0  0  0  0  0  0
    0.9838   -6.7648    4.1916 H   0  0  0  0  0  0  0  0  0  0  0  0
    1.4358   -5.5250    5.3753 H   0  0  0  0  0  0  0  0  0  0  0  0
    2.4908   -6.9321    5.1087 H   0  0  0  0  0  0  0  0  0  0  0  0
    2.1638   -5.0286   -0.4729 H   0  0  0  0  0  0  0  0  0  0  0  0
    5.7772   -2.7307    2.0928 H   0  0  0  0  0  0  0  0  0  0  0  0
    5.8950   -2.5678   -2.6837 H   0  0  0  0  0  0  0  0  0  0  0  0
    3.9180   -0.5972   -1.4707 H   0  0  0  0  0  0  0  0  0  0  0  0
    5.3936   -0.1765   -2.3112 H   0  0  0  0  0  0  0  0  0  0  0  0
    3.1132   -0.0373   -3.5912 H   0  0  0  0  0  0  0  0  0  0  0  0
    4.4764   -0.7213   -4.4383 H   0  0  0  0  0  0  0  0  0  0  0  0
    2.0468   -1.9490   -4.3175 H   0  0  0  0  0  0  0  0  0  0  0  0
    3.5379   -2.8413   -4.5360 H   0  0  0  0  0  0  0  0  0  0  0  0
    2.1881   -3.7353   -2.8554 H   0  0  0  0  0  0  0  0  0  0  0  0
    4.3503   -4.2561   -2.5234 H   0  0  0  0  0  0  0  0  0  0  0  0
  1  2  1  0
  1 18  1  0
  1 19  1  0
  1 20  1  0
  2 10  1  0
  2  3  2  0
  3  4  1  0
  4  9  2  0
  4  5  1  0
  5  6  2  0
  5 21  1  0
  6 17  1  0
  6  7  1  0
  7  8  2  0
  7 11  1  0
  8  9  1  0
  8 22  1  0
  9 10  1  0
 11 12  1  0
 12 17  1  0
 12 13  1  0
 12 23  1  6
 13 14  1  0
 13 24  1  0
 13 25  1  0
 14 15  1  0
 14 26  1  0
 14 27  1  0
 15 16  1  0
 15 28  1  0
 15 29  1  0
 16 17  1  0
 16 30  1  0
 17 31  1  6
M  END
>  <i_m_ct_stereo_status>  (341) 
1

>  <s_m_source_file>  (341) 
/var/tmp/pbs.5076255.sched01/tmp0i_w_vt9/132llf9lao3.sdf

>  <i_m_source_file_index>  (341) 
10

>  <i_lp_mmshare_version>  (341) 
48012

>  <i_f3d_flags>  (341) 
0

>  <s_epik_input>  (341) 
W0NIM11jKG4xKXNjKGMxMilbY0hdYzNjKFtjSF0yKVtDQEBIXTRbQ0BIXShPMylbQ0gyXVtDSDJdW0NIMl1bTkhdNA==

>  <s_epik_cmdline>  (341) 
J2VwaWtfcHl0aG9uJywgJy1waHQnLCAnMi4wJywgJy1waCcsICc3LjAnLCAnLXRuJywgJzgnLCAnLW1hJywgJzIwMCcsICctaW1hZScsICc8aW5maWxlLm1hZT4nLCAnLW9tYWUnLCAnPG91dGZpbGUubWFlPic=

>  <r_epik_Ionization_Penalty>  (341) 
1.2963

>  <r_epik_Ionization_Penalty_Charging>  (341) 
0

>  <r_epik_Ionization_Penalty_Neutral>  (341) 
1.2963

>  <r_epik_State_Penalty>  (341) 
1.3697

>  <r_epik_Charging_Adjusted_Penalty>  (341) 
1.3697

>  <i_epik_Tot_Q>  (341) 
0

>  <i_epik_Tot_abs_Q>  (341) 
0

>  <s_lp_Force_Field>  (341) 
OPLS3e

>  <r_lp_Energy>  (341) 
26.8786

>  <b_lp_Chiralities_Consistent>  (341) 
1

>  <s_lp_Variant>  (341) 
95:0-2

>  <s_i_glide_gridfile>  (341) 
pfpi4k_grid

>  <i_i_glide_lignum>  (341) 
10

>  <i_i_glide_rotatable_bonds>  (341) 
0

>  <r_i_docking_score>  (341) 
-3.35874

>  <r_i_glide_ligand_efficiency>  (341) 
-0.197573

>  <r_i_glide_ligand_efficiency_sa>  (341) 
-0.508015

>  <r_i_glide_ligand_efficiency_ln>  (341) 
-0.87622

>  <r_i_glide_gscore>  (341) 
-3.35874

>  <r_i_glide_lipo>  (341) 
-0.457001

>  <r_i_glide_hbond>  (341) 
0

>  <r_i_glide_metal>  (341) 
-0

>  <r_i_glide_rewards>  (341) 
-1.72957

>  <r_i_glide_evdw>  (341) 
-19.6999

>  <r_i_glide_ecoul>  (341) 
-1.24779

>  <r_i_glide_erotb>  (341) 
0

>  <r_i_glide_esite>  (341) 
0

>  <r_i_glide_emodel>  (341) 
-25.7259

>  <r_i_glide_energy>  (341) 
-20.9477

>  <r_i_glide_einternal>  (341) 
0

>  <r_i_glide_intrahb_reward>  (341) 
-0

>  <i_i_glide_confnum>  (341) 
2

>  <i_i_glide_posenum>  (341) 
20

>  <r_i_glide_eff_state_penalty>  (341) 
0

>  <ligand_id>  (341) 
95

>  <original_smiles>  (341) 
Cc1nc2cc3c(cc2s1)OC1CCCNC31

>  <smiles>  (341) 
[H]c1c2c(c([H])c3sc(C([H])([H])[H])nc13)OC1([H])C2([H])N([H])C([H])([H])C([H])([H])C1([H])[H]

$$$$
95:1:2
     RDKit          3D

 31 34  0  0  1  0  0  0  0  0999 V2000
   -3.3819    3.9528    9.8666 C   0  0  0  0  0  0  0  0  0  0  0  0
   -2.5362    3.1070    8.9826 C   0  0  0  0  0  0  0  0  0  0  0  0
   -2.7670    3.0092    7.6669 N   0  0  0  0  0  0  0  0  0  0  0  0
   -1.8276    2.1676    7.0839 C   0  0  0  0  0  0  0  0  0  0  0  0
   -1.7433    1.8214    5.7132 C   0  0  0  0  0  0  0  0  0  0  0  0
   -0.7393    0.9370    5.2863 C   0  0  0  0  0  0  0  0  0  0  0  0
    0.1743    0.3894    6.1711 C   0  0  0  0  0  0  0  0  0  0  0  0
    0.1259    0.7001    7.5366 C   0  0  0  0  0  0  0  0  0  0  0  0
   -0.8741    1.5880    7.9850 C   0  0  0  0  0  0  0  0  0  0  0  0
   -1.1798    2.1657    9.6200 S   0  0  0  0  0  0  0  0  0  0  0  0
    1.0711   -0.4400    5.5644 O   0  0  0  0  0  0  0  0  0  0  0  0
    0.8617   -0.3637    4.1446 C   0  0  2  0  0  0  0  0  0  0  0  0
    2.0693    0.3318    3.4959 C   0  0  0  0  0  0  0  0  0  0  0  0
    1.8087    0.6235    2.0092 C   0  0  0  0  0  0  0  0  0  0  0  0
    0.3374    0.9831    1.7067 C   0  0  0  0  0  0  0  0  0  0  0  0
   -0.3647    1.4691    2.8909 N   0  0  0  0  0  0  0  0  0  0  0  0
   -0.4697    0.4211    3.9100 C   0  0  2  0  0  0  0  0  0  0  0  0
   -4.1454    4.4537    9.2718 H   0  0  0  0  0  0  0  0  0  0  0  0
   -2.7717    4.7079   10.3624 H   0  0  0  0  0  0  0  0  0  0  0  0
   -3.8645    3.3323   10.6195 H   0  0  0  0  0  0  0  0  0  0  0  0
   -2.4377    2.2417    5.0025 H   0  0  0  0  0  0  0  0  0  0  0  0
    0.8425    0.2765    8.2224 H   0  0  0  0  0  0  0  0  0  0  0  0
    0.7711   -1.3733    3.7414 H   0  0  0  0  0  0  0  0  0  0  0  0
    2.2581    1.2781    4.0088 H   0  0  0  0  0  0  0  0  0  0  0  0
    2.9753   -0.2666    3.6175 H   0  0  0  0  0  0  0  0  0  0  0  0
    2.4608    1.4370    1.6858 H   0  0  0  0  0  0  0  0  0  0  0  0
    2.0875   -0.2418    1.4037 H   0  0  0  0  0  0  0  0  0  0  0  0
    0.2884    1.7332    0.9177 H   0  0  0  0  0  0  0  0  0  0  0  0
   -0.1856    0.1109    1.3196 H   0  0  0  0  0  0  0  0  0  0  0  0
   -1.2910    1.7213    2.5803 H   0  0  0  0  0  0  0  0  0  0  0  0
   -1.2641   -0.2718    3.6460 H   0  0  0  0  0  0  0  0  0  0  0  0
  1  2  1  0
  1 18  1  0
  1 19  1  0
  1 20  1  0
  2 10  1  0
  2  3  2  0
  3  4  1  0
  4  9  2  0
  4  5  1  0
  5  6  2  0
  5 21  1  0
  6 17  1  0
  6  7  1  0
  7  8  2  0
  7 11  1  0
  8  9  1  0
  8 22  1  0
  9 10  1  0
 11 12  1  0
 12 17  1  0
 12 13  1  0
 12 23  1  6
 13 14  1  0
 13 24  1  0
 13 25  1  0
 14 15  1  0
 14 26  1  0
 14 27  1  0
 15 16  1  0
 15 28  1  0
 15 29  1  0
 16 17  1  0
 16 30  1  0
 17 31  1  6
M  END
>  <i_m_ct_stereo_status>  (342) 
1

>  <s_m_source_file>  (342) 
/var/tmp/pbs.5076255.sched01/tmp0i_w_vt9/132llf9lao3.sdf

>  <i_m_source_file_index>  (342) 
10

>  <i_lp_mmshare_version>  (342) 
48012

>  <i_f3d_flags>  (342) 
0

>  <s_epik_input>  (342) 
W0NIM11jKG4xKXNjKGMxMilbY0hdYzNjKFtjSF0yKVtDQEBIXTRbQ0BIXShPMylbQ0gyXVtDSDJdW0NIMl1bTkhdNA==

>  <s_epik_cmdline>  (342) 
J2VwaWtfcHl0aG9uJywgJy1waHQnLCAnMi4wJywgJy1waCcsICc3LjAnLCAnLXRuJywgJzgnLCAnLW1hJywgJzIwMCcsICctaW1hZScsICc8aW5maWxlLm1hZT4nLCAnLW9tYWUnLCAnPG91dGZpbGUubWFlPic=

>  <r_epik_Ionization_Penalty>  (342) 
1.2963

>  <r_epik_Ionization_Penalty_Charging>  (342) 
0

>  <r_epik_Ionization_Penalty_Neutral>  (342) 
1.2963

>  <r_epik_State_Penalty>  (342) 
1.3697

>  <r_epik_Charging_Adjusted_Penalty>  (342) 
1.3697

>  <i_epik_Tot_Q>  (342) 
0

>  <i_epik_Tot_abs_Q>  (342) 
0

>  <s_lp_Force_Field>  (342) 
OPLS3e

>  <r_lp_Energy>  (342) 
26.8786

>  <b_lp_Chiralities_Consistent>  (342) 
1

>  <s_lp_Variant>  (342) 
95:0-2

>  <s_i_glide_gridfile>  (342) 
pfpi4k_grid

>  <i_i_glide_lignum>  (342) 
10

>  <i_i_glide_rotatable_bonds>  (342) 
0

>  <r_i_docking_score>  (342) 
-2.99126

>  <r_i_glide_ligand_efficiency>  (342) 
-0.175957

>  <r_i_glide_ligand_efficiency_sa>  (342) 
-0.452434

>  <r_i_glide_ligand_efficiency_ln>  (342) 
-0.780354

>  <r_i_glide_gscore>  (342) 
-2.99126

>  <r_i_glide_lipo>  (342) 
0

>  <r_i_glide_hbond>  (342) 
0

>  <r_i_glide_metal>  (342) 
-0

>  <r_i_glide_rewards>  (342) 
-1.72957

>  <r_i_glide_evdw>  (342) 
-18.4898

>  <r_i_glide_ecoul>  (342) 
-2.24798

>  <r_i_glide_erotb>  (342) 
0

>  <r_i_glide_esite>  (342) 
0

>  <r_i_glide_emodel>  (342) 
-25.0013

>  <r_i_glide_energy>  (342) 
-20.7378

>  <r_i_glide_einternal>  (342) 
0

>  <r_i_glide_intrahb_reward>  (342) 
-0

>  <i_i_glide_confnum>  (342) 
2

>  <i_i_glide_posenum>  (342) 
40

>  <r_i_glide_eff_state_penalty>  (342) 
0

>  <ligand_id>  (342) 
95

>  <original_smiles>  (342) 
Cc1nc2cc3c(cc2s1)OC1CCCNC31

>  <smiles>  (342) 
[H]c1c2c(c([H])c3sc(C([H])([H])[H])nc13)OC1([H])C2([H])N([H])C([H])([H])C([H])([H])C1([H])[H]

$$$$
96:0:0
     RDKit          3D

 34 39  0  0  1  0  0  0  0  0999 V2000
    5.5139   -4.4158    2.8876 O   0  0  0  0  0  0  0  0  0  0  0  0
    5.1201   -3.8614    1.8479 C   0  0  0  0  0  0  0  0  0  0  0  0
    3.5331   -3.5199    1.6239 C   0  0  1  0  0  0  0  0  0  0  0  0
    3.8179   -2.3000    2.6098 C   0  0  0  0  0  0  0  0  0  0  0  0
    4.5435   -1.1835    2.2441 C   0  0  0  0  0  0  0  0  0  0  0  0
    4.6637   -0.7264    0.7842 C   0  0  2  0  0  0  0  0  0  0  0  0
    3.6316   -1.5370    0.2581 C   0  0  0  0  0  0  0  0  0  0  0  0
    4.1857   -3.1217   -0.3280 C   0  0  2  0  0  0  0  0  0  0  0  0
    5.1426   -4.3946    0.0344 C   0  0  0  0  0  0  0  0  0  0  0  0
    5.9453   -3.5808    0.7686 N   0  0  0  0  0  0  0  0  0  0  0  0
    5.9774   -2.6533   -0.5311 C   0  0  2  0  0  0  0  0  0  0  0  0
    7.2688   -2.7100   -1.1269 O   0  0  0  0  0  0  0  0  0  0  0  0
    5.6963   -1.1046   -0.3306 C   0  0  1  0  0  0  0  0  0  0  0  0
    5.0711   -0.6612   -1.6341 O   0  0  0  0  0  0  0  0  0  0  0  0
    3.9212   -1.3511   -2.3584 C   0  0  0  0  0  0  0  0  0  0  0  0
    3.4193   -2.7812   -1.7675 C   0  0  1  0  0  0  0  0  0  0  0  0
    4.8296   -3.1539   -1.5716 C   0  0  2  0  0  0  0  0  0  0  0  0
    2.9560   -3.4660   -0.1667 C   0  0  2  0  0  0  0  0  0  0  0  0
    2.4325   -4.7725   -0.3295 O   0  0  0  0  0  0  0  0  0  0  0  0
    2.9159   -4.2226    2.1818 H   0  0  0  0  0  0  0  0  0  0  0  0
    3.6869   -2.5141    3.6639 H   0  0  0  0  0  0  0  0  0  0  0  0
    4.8628   -0.4637    2.9863 H   0  0  0  0  0  0  0  0  0  0  0  0
    4.3919    0.3232    0.7319 H   0  0  0  0  0  0  0  0  0  0  0  0
    2.6724   -1.4881    0.7965 H   0  0  0  0  0  0  0  0  0  0  0  0
    3.0665   -0.8701   -0.3713 H   0  0  0  0  0  0  0  0  0  0  0  0
    4.6556   -5.3507    0.3331 H   0  0  0  0  0  0  0  0  0  0  0  0
    5.8089   -4.9151   -0.6654 H   0  0  0  0  0  0  0  0  0  0  0  0
    7.7235   -3.4644   -0.7888 H   0  0  0  0  0  0  0  0  0  0  0  0
    6.6197   -0.5613   -0.1214 H   0  0  0  0  0  0  0  0  0  0  0  0
    3.0860   -0.6617   -2.4901 H   0  0  0  0  0  0  0  0  0  0  0  0
    4.2837   -1.5162   -3.3715 H   0  0  0  0  0  0  0  0  0  0  0  0
    2.9671   -3.4072   -2.5388 H   0  0  0  0  0  0  0  0  0  0  0  0
    4.9734   -4.0413   -2.1890 H   0  0  0  0  0  0  0  0  0  0  0  0
    2.6175   -5.0412   -1.2140 H   0  0  0  0  0  0  0  0  0  0  0  0
  1  2  2  0
  2 10  1  0
  2  3  1  0
  3 18  1  0
  3  4  1  0
  3 20  1  1
  4  5  2  0
  4 21  1  0
  5  6  1  0
  5 22  1  0
  6 13  1  0
  6  7  1  0
  6 23  1  1
  8  7  1  1
  7 24  1  0
  7 25  1  0
  8 17  1  0
  8 18  1  0
  8  9  1  0
  9 10  1  0
  9 26  1  0
  9 27  1  0
 10 11  1  0
 11 17  1  0
 11 12  1  6
 11 13  1  0
 12 28  1  0
 13 14  1  0
 13 29  1  1
 14 15  1  0
 15 16  1  0
 15 30  1  0
 15 31  1  0
 16 17  1  0
 16 18  1  0
 16 32  1  6
 17 33  1  6
 18 19  1  6
 19 34  1  0
M  END
>  <i_m_ct_stereo_status>  (343) 
1

>  <s_m_source_file>  (343) 
/var/tmp/pbs.5076255.sched01/tmp0i_w_vt9/132llf9lao3.sdf

>  <i_m_source_file_index>  (343) 
11

>  <i_lp_mmshare_version>  (343) 
48012

>  <i_f3d_flags>  (343) 
0

>  <s_epik_input>  (343) 
W0NAQF0xMjNbQ0hdNFtDQF01KFtPSF0pTihbQ0gyXTIpQyg9TylbQ0BASF02W0NAQF0zKFtPSF0pW0NASF00W0NIMl1PW0NASF01W0NAQEhdKFtDSDJdMSlbQ0hdPVtDSF02

>  <s_epik_cmdline>  (343) 
J2VwaWtfcHl0aG9uJywgJy1waHQnLCAnMi4wJywgJy1waCcsICc3LjAnLCAnLXRuJywgJzgnLCAnLW1hJywgJzIwMCcsICctaW1hZScsICc8aW5maWxlLm1hZT4nLCAnLW9tYWUnLCAnPG91dGZpbGUubWFlPic=

>  <r_lp_tautomer_probability>  (343) 
1

>  <r_epik_Ionization_Penalty>  (343) 
3.91483e-06

>  <r_epik_Ionization_Penalty_Charging>  (343) 
0

>  <r_epik_Ionization_Penalty_Neutral>  (343) 
3.91483e-06

>  <r_epik_State_Penalty>  (343) 
-0

>  <r_epik_Charging_Adjusted_Penalty>  (343) 
0

>  <i_epik_Tot_Q>  (343) 
0

>  <i_epik_Tot_abs_Q>  (343) 
0

>  <s_lp_Force_Field>  (343) 
OPLS3e

>  <r_lp_Energy>  (343) 
591.655

>  <b_lp_Chiralities_Consistent>  (343) 
1

>  <s_lp_Variant>  (343) 
96:0-1

>  <s_i_glide_gridfile>  (343) 
pfpi4k_grid

>  <i_i_glide_lignum>  (343) 
11

>  <i_i_glide_rotatable_bonds>  (343) 
2

>  <r_i_docking_score>  (343) 
-4.47308

>  <r_i_glide_ligand_efficiency>  (343) 
-0.235425

>  <r_i_glide_ligand_efficiency_sa>  (343) 
-0.62821

>  <r_i_glide_ligand_efficiency_ln>  (343) 
-1.13402

>  <r_i_glide_gscore>  (343) 
-4.47308

>  <r_i_glide_lipo>  (343) 
-0.26451

>  <r_i_glide_hbond>  (343) 
-0.32

>  <r_i_glide_metal>  (343) 
-0

>  <r_i_glide_rewards>  (343) 
-1.77961

>  <r_i_glide_evdw>  (343) 
-22.8918

>  <r_i_glide_ecoul>  (343) 
-6.38776

>  <r_i_glide_erotb>  (343) 
0

>  <r_i_glide_esite>  (343) 
-0.00621511

>  <r_i_glide_emodel>  (343) 
-37.1016

>  <r_i_glide_energy>  (343) 
-29.2795

>  <r_i_glide_einternal>  (343) 
1.77825

>  <r_i_glide_intrahb_reward>  (343) 
-0

>  <i_i_glide_confnum>  (343) 
1

>  <i_i_glide_posenum>  (343) 
1

>  <r_i_glide_eff_state_penalty>  (343) 
0

>  <ligand_id>  (343) 
96

>  <original_smiles>  (343) 
O=C1C2C=CC3CC45CN1C1(O)C3OCC(C14)C25O

>  <smiles>  (343) 
[H]OC12N3C(=O)C4([H])C([H])=C([H])C5([H])C([H])([H])C6(C3([H])[H])C1([H])C([H])(C([H])([H])OC52[H])C46O[H]

$$$$
96:0:1
     RDKit          3D

 34 39  0  0  1  0  0  0  0  0999 V2000
    4.9275   -3.4993    3.9047 O   0  0  0  0  0  0  0  0  0  0  0  0
    4.8658   -3.3479    2.6875 C   0  0  0  0  0  0  0  0  0  0  0  0
    3.6095   -3.9255    1.8074 C   0  0  1  0  0  0  0  0  0  0  0  0
    2.8293   -2.6579    2.3796 C   0  0  0  0  0  0  0  0  0  0  0  0
    3.0724   -1.3631    1.9532 C   0  0  0  0  0  0  0  0  0  0  0  0
    3.6590   -1.0457    0.5716 C   0  0  2  0  0  0  0  0  0  0  0  0
    3.4604   -2.3272   -0.0018 C   0  0  0  0  0  0  0  0  0  0  0  0
    4.8560   -3.4133    0.1877 C   0  0  2  0  0  0  0  0  0  0  0  0
    5.9718   -3.9357    1.2627 C   0  0  0  0  0  0  0  0  0  0  0  0
    5.8767   -2.7536    1.9303 N   0  0  0  0  0  0  0  0  0  0  0  0
    6.1189   -2.0764    0.5150 C   0  0  2  0  0  0  0  0  0  0  0  0
    7.4107   -1.4821    0.4792 O   0  0  0  0  0  0  0  0  0  0  0  0
    5.1400   -0.9072    0.0797 C   0  0  1  0  0  0  0  0  0  0  0  0
    5.0945   -0.9957   -1.4286 O   0  0  0  0  0  0  0  0  0  0  0  0
    4.8526   -2.2589   -2.2448 C   0  0  0  0  0  0  0  0  0  0  0  0
    4.8114   -3.6719   -1.4419 C   0  0  1  0  0  0  0  0  0  0  0  0
    5.9609   -3.1985   -0.6514 C   0  0  2  0  0  0  0  0  0  0  0  0
    3.9903   -4.3511    0.0144 C   0  0  2  0  0  0  0  0  0  0  0  0
    4.2770   -5.7299    0.0566 O   0  0  0  0  0  0  0  0  0  0  0  0
    3.1849   -4.7948    2.3098 H   0  0  0  0  0  0  0  0  0  0  0  0
    2.3208   -2.7977    3.3215 H   0  0  0  0  0  0  0  0  0  0  0  0
    2.6493   -0.5223    2.4857 H   0  0  0  0  0  0  0  0  0  0  0  0
    3.0111   -0.3130    0.0943 H   0  0  0  0  0  0  0  0  0  0  0  0
    2.4466   -2.7447    0.1186 H   0  0  0  0  0  0  0  0  0  0  0  0
    3.0383   -2.1177   -0.9746 H   0  0  0  0  0  0  0  0  0  0  0  0
    5.8756   -4.9771    1.6522 H   0  0  0  0  0  0  0  0  0  0  0  0
    7.0458   -4.0714    1.0667 H   0  0  0  0  0  0  0  0  0  0  0  0
    7.4139   -0.7503    1.0889 H   0  0  0  0  0  0  0  0  0  0  0  0
    5.5085    0.0677    0.4023 H   0  0  0  0  0  0  0  0  0  0  0  0
    3.9763   -2.1377   -2.8820 H   0  0  0  0  0  0  0  0  0  0  0  0
    5.6798   -2.3045   -2.9520 H   0  0  0  0  0  0  0  0  0  0  0  0
    5.0957   -4.5053   -2.0849 H   0  0  0  0  0  0  0  0  0  0  0  0
    6.7662   -3.9070   -0.8483 H   0  0  0  0  0  0  0  0  0  0  0  0
    3.9995   -6.0682   -0.7855 H   0  0  0  0  0  0  0  0  0  0  0  0
  1  2  2  0
  2 10  1  0
  2  3  1  0
  3 18  1  0
  3  4  1  0
  3 20  1  1
  4  5  2  0
  4 21  1  0
  5  6  1  0
  5 22  1  0
  6 13  1  0
  6  7  1  0
  6 23  1  6
  8  7  1  1
  7 24  1  0
  7 25  1  0
  8 17  1  0
  8 18  1  0
  8  9  1  0
  9 10  1  0
  9 26  1  0
  9 27  1  0
 10 11  1  0
 11 17  1  0
 11 12  1  1
 11 13  1  0
 12 28  1  0
 13 14  1  0
 13 29  1  6
 14 15  1  0
 15 16  1  0
 15 30  1  0
 15 31  1  0
 16 17  1  0
 16 18  1  0
 16 32  1  6
 17 33  1  1
 18 19  1  1
 19 34  1  0
M  END
>  <i_m_ct_stereo_status>  (344) 
1

>  <s_m_source_file>  (344) 
/var/tmp/pbs.5076255.sched01/tmp0i_w_vt9/132llf9lao3.sdf

>  <i_m_source_file_index>  (344) 
11

>  <i_lp_mmshare_version>  (344) 
48012

>  <i_f3d_flags>  (344) 
0

>  <s_epik_input>  (344) 
W0NAQF0xMjNbQ0hdNFtDQF01KFtPSF0pTihbQ0gyXTIpQyg9TylbQ0BASF02W0NAQF0zKFtPSF0pW0NASF00W0NIMl1PW0NASF01W0NAQEhdKFtDSDJdMSlbQ0hdPVtDSF02

>  <s_epik_cmdline>  (344) 
J2VwaWtfcHl0aG9uJywgJy1waHQnLCAnMi4wJywgJy1waCcsICc3LjAnLCAnLXRuJywgJzgnLCAnLW1hJywgJzIwMCcsICctaW1hZScsICc8aW5maWxlLm1hZT4nLCAnLW9tYWUnLCAnPG91dGZpbGUubWFlPic=

>  <r_lp_tautomer_probability>  (344) 
1

>  <r_epik_Ionization_Penalty>  (344) 
3.91483e-06

>  <r_epik_Ionization_Penalty_Charging>  (344) 
0

>  <r_epik_Ionization_Penalty_Neutral>  (344) 
3.91483e-06

>  <r_epik_State_Penalty>  (344) 
-0

>  <r_epik_Charging_Adjusted_Penalty>  (344) 
0

>  <i_epik_Tot_Q>  (344) 
0

>  <i_epik_Tot_abs_Q>  (344) 
0

>  <s_lp_Force_Field>  (344) 
OPLS3e

>  <r_lp_Energy>  (344) 
591.655

>  <b_lp_Chiralities_Consistent>  (344) 
1

>  <s_lp_Variant>  (344) 
96:0-1

>  <s_i_glide_gridfile>  (344) 
pfpi4k_grid

>  <i_i_glide_lignum>  (344) 
11

>  <i_i_glide_rotatable_bonds>  (344) 
2

>  <r_i_docking_score>  (344) 
-4.37527

>  <r_i_glide_ligand_efficiency>  (344) 
-0.230277

>  <r_i_glide_ligand_efficiency_sa>  (344) 
-0.614472

>  <r_i_glide_ligand_efficiency_ln>  (344) 
-1.10922

>  <r_i_glide_gscore>  (344) 
-4.37527

>  <r_i_glide_lipo>  (344) 
-0.278245

>  <r_i_glide_hbond>  (344) 
-0.28834

>  <r_i_glide_metal>  (344) 
-0

>  <r_i_glide_rewards>  (344) 
-1.86023

>  <r_i_glide_evdw>  (344) 
-21.629

>  <r_i_glide_ecoul>  (344) 
-5.77996

>  <r_i_glide_erotb>  (344) 
0

>  <r_i_glide_esite>  (344) 
0

>  <r_i_glide_emodel>  (344) 
-35.318

>  <r_i_glide_energy>  (344) 
-27.409

>  <r_i_glide_einternal>  (344) 
1.20234

>  <r_i_glide_intrahb_reward>  (344) 
-0

>  <i_i_glide_confnum>  (344) 
2

>  <i_i_glide_posenum>  (344) 
15

>  <r_i_glide_eff_state_penalty>  (344) 
0

>  <ligand_id>  (344) 
96

>  <original_smiles>  (344) 
O=C1C2C=CC3CC45CN1C1(O)C3OCC(C14)C25O

>  <smiles>  (344) 
[H]OC12N3C(=O)C4([H])C([H])=C([H])C5([H])C([H])([H])C6(C3([H])[H])C1([H])C([H])(C([H])([H])OC52[H])C46O[H]

$$$$
96:0:2
     RDKit          3D

 34 39  0  0  1  0  0  0  0  0999 V2000
    5.6997   -3.4617   -3.5145 O   0  0  0  0  0  0  0  0  0  0  0  0
    5.3801   -3.2702   -2.3366 C   0  0  0  0  0  0  0  0  0  0  0  0
    4.9692   -1.7925   -1.7476 C   0  0  1  0  0  0  0  0  0  0  0  0
    3.5854   -2.0248   -2.5099 C   0  0  0  0  0  0  0  0  0  0  0  0
    2.6485   -2.9479   -2.0917 C   0  0  0  0  0  0  0  0  0  0  0  0
    2.5184   -3.3687   -0.6158 C   0  0  2  0  0  0  0  0  0  0  0  0
    3.3228   -2.3406   -0.0371 C   0  0  0  0  0  0  0  0  0  0  0  0
    5.0302   -2.8056    0.1213 C   0  0  2  0  0  0  0  0  0  0  0  0
    6.2814   -3.5298   -0.6599 C   0  0  0  0  0  0  0  0  0  0  0  0
    5.3748   -4.2745   -1.3788 N   0  0  0  0  0  0  0  0  0  0  0  0
    4.7403   -4.6572    0.0291 C   0  0  2  0  0  0  0  0  0  0  0  0
    5.0285   -6.0126    0.3081 O   0  0  0  0  0  0  0  0  0  0  0  0
    3.1715   -4.5337    0.2016 C   0  0  1  0  0  0  0  0  0  0  0  0
    2.9515   -4.2050    1.6621 O   0  0  0  0  0  0  0  0  0  0  0  0
    3.7174   -3.1306    2.4452 C   0  0  0  0  0  0  0  0  0  0  0  0
    4.9672   -2.3672    1.6987 C   0  0  1  0  0  0  0  0  0  0  0  0
    5.3709   -3.6891    1.1772 C   0  0  2  0  0  0  0  0  0  0  0  0
    5.2608   -1.5335    0.1122 C   0  0  2  0  0  0  0  0  0  0  0  0
    6.5457   -0.9507    0.1793 O   0  0  0  0  0  0  0  0  0  0  0  0
    5.4912   -1.0033   -2.2853 H   0  0  0  0  0  0  0  0  0  0  0  0
    3.5457   -1.6795   -3.5375 H   0  0  0  0  0  0  0  0  0  0  0  0
    1.8073   -3.2027   -2.7225 H   0  0  0  0  0  0  0  0  0  0  0  0
    1.4825   -3.2214   -0.3358 H   0  0  0  0  0  0  0  0  0  0  0  0
    3.0773   -1.3207   -0.3767 H   0  0  0  0  0  0  0  0  0  0  0  0
    2.7449   -1.9795    0.8145 H   0  0  0  0  0  0  0  0  0  0  0  0
    7.1127   -2.8829   -1.0627 H   0  0  0  0  0  0  0  0  0  0  0  0
    6.9826   -4.2776   -0.2225 H   0  0  0  0  0  0  0  0  0  0  0  0
    4.2318   -6.5010    0.1717 H   0  0  0  0  0  0  0  0  0  0  0  0
    2.6575   -5.4589   -0.0628 H   0  0  0  0  0  0  0  0  0  0  0  0
    3.0155   -2.4080    2.8733 H   0  0  0  0  0  0  0  0  0  0  0  0
    4.1180   -3.6459    3.3194 H   0  0  0  0  0  0  0  0  0  0  0  0
    5.6909   -1.9907    2.4440 H   0  0  0  0  0  0  0  0  0  0  0  0
    6.3840   -3.8746    1.5661 H   0  0  0  0  0  0  0  0  0  0  0  0
    6.5653   -0.4426    0.9783 H   0  0  0  0  0  0  0  0  0  0  0  0
  1  2  2  0
  2 10  1  0
  2  3  1  0
  3 18  1  0
  3  4  1  0
  3 20  1  6
  4  5  2  0
  4 21  1  0
  5  6  1  0
  5 22  1  0
  6 13  1  0
  6  7  1  0
  6 23  1  1
  8  7  1  6
  7 24  1  0
  7 25  1  0
  8 17  1  0
  8 18  1  0
  8  9  1  0
  9 10  1  0
  9 26  1  0
  9 27  1  0
 10 11  1  0
 11 17  1  0
 11 12  1  1
 11 13  1  0
 12 28  1  0
 13 14  1  0
 13 29  1  6
 14 15  1  0
 15 16  1  0
 15 30  1  0
 15 31  1  0
 16 17  1  0
 16 18  1  0
 16 32  1  1
 17 33  1  6
 18 19  1  1
 19 34  1  0
M  END
>  <i_m_ct_stereo_status>  (345) 
1

>  <s_m_source_file>  (345) 
/var/tmp/pbs.5076255.sched01/tmp0i_w_vt9/132llf9lao3.sdf

>  <i_m_source_file_index>  (345) 
11

>  <i_lp_mmshare_version>  (345) 
48012

>  <i_f3d_flags>  (345) 
0

>  <s_epik_input>  (345) 
W0NAQF0xMjNbQ0hdNFtDQF01KFtPSF0pTihbQ0gyXTIpQyg9TylbQ0BASF02W0NAQF0zKFtPSF0pW0NASF00W0NIMl1PW0NASF01W0NAQEhdKFtDSDJdMSlbQ0hdPVtDSF02

>  <s_epik_cmdline>  (345) 
J2VwaWtfcHl0aG9uJywgJy1waHQnLCAnMi4wJywgJy1waCcsICc3LjAnLCAnLXRuJywgJzgnLCAnLW1hJywgJzIwMCcsICctaW1hZScsICc8aW5maWxlLm1hZT4nLCAnLW9tYWUnLCAnPG91dGZpbGUubWFlPic=

>  <r_lp_tautomer_probability>  (345) 
1

>  <r_epik_Ionization_Penalty>  (345) 
3.91483e-06

>  <r_epik_Ionization_Penalty_Charging>  (345) 
0

>  <r_epik_Ionization_Penalty_Neutral>  (345) 
3.91483e-06

>  <r_epik_State_Penalty>  (345) 
-0

>  <r_epik_Charging_Adjusted_Penalty>  (345) 
0

>  <i_epik_Tot_Q>  (345) 
0

>  <i_epik_Tot_abs_Q>  (345) 
0

>  <s_lp_Force_Field>  (345) 
OPLS3e

>  <r_lp_Energy>  (345) 
591.655

>  <b_lp_Chiralities_Consistent>  (345) 
1

>  <s_lp_Variant>  (345) 
96:0-1

>  <s_i_glide_gridfile>  (345) 
pfpi4k_grid

>  <i_i_glide_lignum>  (345) 
11

>  <i_i_glide_rotatable_bonds>  (345) 
2

>  <r_i_docking_score>  (345) 
-3.75228

>  <r_i_glide_ligand_efficiency>  (345) 
-0.197488

>  <r_i_glide_ligand_efficiency_sa>  (345) 
-0.526978

>  <r_i_glide_ligand_efficiency_ln>  (345) 
-0.951284

>  <r_i_glide_gscore>  (345) 
-3.75228

>  <r_i_glide_lipo>  (345) 
-0.217006

>  <r_i_glide_hbond>  (345) 
-0.0811395

>  <r_i_glide_metal>  (345) 
-0

>  <r_i_glide_rewards>  (345) 
-1.92674

>  <r_i_glide_evdw>  (345) 
-20.7671

>  <r_i_glide_ecoul>  (345) 
-3.16656

>  <r_i_glide_erotb>  (345) 
0

>  <r_i_glide_esite>  (345) 
-0.014057

>  <r_i_glide_emodel>  (345) 
-30.8187

>  <r_i_glide_energy>  (345) 
-23.9337

>  <r_i_glide_einternal>  (345) 
0.765147

>  <r_i_glide_intrahb_reward>  (345) 
-0

>  <i_i_glide_confnum>  (345) 
1

>  <i_i_glide_posenum>  (345) 
40

>  <r_i_glide_eff_state_penalty>  (345) 
0

>  <ligand_id>  (345) 
96

>  <original_smiles>  (345) 
O=C1C2C=CC3CC45CN1C1(O)C3OCC(C14)C25O

>  <smiles>  (345) 
[H]OC12N3C(=O)C4([H])C([H])=C([H])C5([H])C([H])([H])C6(C3([H])[H])C1([H])C([H])(C([H])([H])OC52[H])C46O[H]

$$$$
97:0:0
     RDKit          3D

 79 85  0  0  1  0  0  0  0  0999 V2000
    8.5975   -5.6676    0.9486 C   0  0  0  0  0  0  0  0  0  0  0  0
    7.7010   -4.6115    1.2705 O   0  0  0  0  0  0  0  0  0  0  0  0
    6.7803   -4.2686    0.2399 C   0  0  2  0  0  0  0  0  0  0  0  0
    7.4818   -3.3029   -0.7321 C   0  0  0  0  0  0  0  0  0  0  0  0
    6.5794   -2.9508   -1.9175 C   0  0  0  0  0  0  0  0  0  0  0  0
    5.1934   -2.3734   -1.5319 C   0  0  0  0  0  0  0  0  0  0  0  0
    5.3158   -0.8988   -1.1093 C   0  0  0  0  0  0  0  0  0  0  0  0
    4.3689   -2.4099   -2.8494 C   0  0  0  0  0  0  0  0  0  0  0  0
    4.5394   -3.2910   -0.4313 C   0  0  2  0  0  0  0  0  0  0  0  0
    3.0048   -3.0377   -0.1809 C   0  0  1  0  0  0  0  0  0  0  0  0
    2.3066   -4.2375   -0.4797 O   0  0  0  0  0  0  0  0  0  0  0  0
    2.4913   -2.4371    1.1550 C   0  0  0  0  0  0  0  0  0  0  0  0
    3.2989   -2.7096    2.4327 C   0  0  2  0  0  0  0  0  0  0  0  0
    4.5536   -1.7967    2.3799 C   0  0  1  0  0  0  0  0  0  0  0  0
    4.8958   -1.1563    3.7393 C   0  0  0  0  0  0  0  0  0  0  0  0
    5.7667   -2.4845    1.7350 C   0  0  0  0  0  0  0  0  0  0  0  0
    5.4438   -3.6950    0.8223 C   0  0  2  0  0  0  0  0  0  0  0  0
    4.7161   -4.7793    1.7066 C   0  0  1  0  0  0  0  0  0  0  0  0
    4.3405   -5.7974    0.8172 O   0  0  0  0  0  0  0  0  0  0  0  0
    5.3549   -5.2480    3.0526 C   0  0  1  0  0  0  0  0  0  0  0  0
    4.5383   -4.2681    3.7479 O   0  0  0  0  0  0  0  0  0  0  0  0
    3.5993   -4.2238    2.6374 C   0  0  1  0  0  0  0  0  0  0  0  0
    2.3727   -5.0969    3.1736 C   0  0  1  0  0  0  0  0  0  0  0  0
    1.2395   -4.2986    3.4493 O   0  0  0  0  0  0  0  0  0  0  0  0
    1.8794   -6.2621    2.2993 C   0  0  1  0  0  0  0  0  0  0  0  0
    2.3198   -7.7328    2.3850 C   0  0  1  0  0  0  0  0  0  0  0  0
    3.3435   -8.3393    3.3666 C   0  0  1  0  0  0  0  0  0  0  0  0
    3.2838   -9.7503    3.2745 O   0  0  0  0  0  0  0  0  0  0  0  0
    4.7499   -7.8258    3.0695 C   0  0  2  0  0  0  0  0  0  0  0  0
    5.3746   -8.3157    1.7672 C   0  0  0  0  0  0  0  0  0  0  0  0
    5.7980   -7.6367    4.0258 O   0  0  0  0  0  0  0  0  0  0  0  0
    4.9580   -6.5176    3.8018 C   0  0  1  0  0  0  0  0  0  0  0  0
    0.9099   -7.3310    2.7861 C   0  0  0  0  0  0  0  0  0  0  0  0
    0.4380   -7.3860    4.2327 C   0  0  0  0  0  0  0  0  0  0  0  0
   -0.2297   -7.7404    1.8744 C   0  0  0  0  0  0  0  0  0  0  0  0
    9.1765   -5.9279    1.8373 H   0  0  0  0  0  0  0  0  0  0  0  0
    9.2988   -5.3811    0.1649 H   0  0  0  0  0  0  0  0  0  0  0  0
    8.0710   -6.5666    0.6250 H   0  0  0  0  0  0  0  0  0  0  0  0
    6.5324   -5.1765   -0.3104 H   0  0  0  0  0  0  0  0  0  0  0  0
    7.8134   -2.4037   -0.2210 H   0  0  0  0  0  0  0  0  0  0  0  0
    8.3904   -3.7564   -1.1270 H   0  0  0  0  0  0  0  0  0  0  0  0
    7.1116   -2.2598   -2.5668 H   0  0  0  0  0  0  0  0  0  0  0  0
    6.4278   -3.8544   -2.5153 H   0  0  0  0  0  0  0  0  0  0  0  0
    4.4380   -0.5616   -0.5554 H   0  0  0  0  0  0  0  0  0  0  0  0
    5.4037   -0.2625   -1.9901 H   0  0  0  0  0  0  0  0  0  0  0  0
    6.1966   -0.7013   -0.5062 H   0  0  0  0  0  0  0  0  0  0  0  0
    3.4613   -1.8048   -2.8030 H   0  0  0  0  0  0  0  0  0  0  0  0
    4.0798   -3.4264   -3.1181 H   0  0  0  0  0  0  0  0  0  0  0  0
    4.9485   -2.0117   -3.6843 H   0  0  0  0  0  0  0  0  0  0  0  0
    4.5327   -4.2114   -1.0188 H   0  0  0  0  0  0  0  0  0  0  0  0
    2.6377   -2.3314   -0.9200 H   0  0  0  0  0  0  0  0  0  0  0  0
    2.4804   -4.4699   -1.3901 H   0  0  0  0  0  0  0  0  0  0  0  0
    2.3827   -1.3580    1.0224 H   0  0  0  0  0  0  0  0  0  0  0  0
    1.4705   -2.7548    1.3337 H   0  0  0  0  0  0  0  0  0  0  0  0
    2.7078   -2.3324    3.2656 H   0  0  0  0  0  0  0  0  0  0  0  0
    4.3253   -0.9346    1.7517 H   0  0  0  0  0  0  0  0  0  0  0  0
    5.1622   -1.9085    4.4859 H   0  0  0  0  0  0  0  0  0  0  0  0
    4.0519   -0.5851    4.1336 H   0  0  0  0  0  0  0  0  0  0  0  0
    5.7369   -0.4661    3.6474 H   0  0  0  0  0  0  0  0  0  0  0  0
    6.3903   -1.7386    1.2662 H   0  0  0  0  0  0  0  0  0  0  0  0
    6.3929   -2.8424    2.5428 H   0  0  0  0  0  0  0  0  0  0  0  0
    3.7908   -5.3824    0.1530 H   0  0  0  0  0  0  0  0  0  0  0  0
    6.3974   -5.0000    3.1833 H   0  0  0  0  0  0  0  0  0  0  0  0
    2.6083   -5.4951    4.1537 H   0  0  0  0  0  0  0  0  0  0  0  0
    1.4942   -3.6823    4.1218 H   0  0  0  0  0  0  0  0  0  0  0  0
    1.6583   -5.9117    1.2958 H   0  0  0  0  0  0  0  0  0  0  0  0
    2.4001   -8.1936    1.4025 H   0  0  0  0  0  0  0  0  0  0  0  0
    3.0877   -8.0593    4.3880 H   0  0  0  0  0  0  0  0  0  0  0  0
    3.5357  -10.0263    2.4031 H   0  0  0  0  0  0  0  0  0  0  0  0
    4.6623   -8.3132    0.9454 H   0  0  0  0  0  0  0  0  0  0  0  0
    5.7426   -9.3335    1.8982 H   0  0  0  0  0  0  0  0  0  0  0  0
    6.2199   -7.6809    1.5101 H   0  0  0  0  0  0  0  0  0  0  0  0
    4.4465   -6.3228    4.7409 H   0  0  0  0  0  0  0  0  0  0  0  0
    0.1515   -8.4078    4.4924 H   0  0  0  0  0  0  0  0  0  0  0  0
   -0.4307   -6.7389    4.3650 H   0  0  0  0  0  0  0  0  0  0  0  0
    1.2106   -7.0582    4.9251 H   0  0  0  0  0  0  0  0  0  0  0  0
   -0.5528   -8.7583    2.1000 H   0  0  0  0  0  0  0  0  0  0  0  0
    0.0915   -7.7107    0.8323 H   0  0  0  0  0  0  0  0  0  0  0  0
   -1.0787   -7.0681    1.9947 H   0  0  0  0  0  0  0  0  0  0  0  0
  1  2  1  0
  1 36  1  0
  1 37  1  0
  1 38  1  0
  2  3  1  0
  3 17  1  0
  3  4  1  0
  3 39  1  6
  4  5  1  0
  4 40  1  0
  4 41  1  0
  5  6  1  0
  5 42  1  0
  5 43  1  0
  6  7  1  0
  6  8  1  0
  6  9  1  0
  7 44  1  0
  7 45  1  0
  7 46  1  0
  8 47  1  0
  8 48  1  0
  8 49  1  0
  9 17  1  0
  9 10  1  0
  9 50  1  6
 10 11  1  0
 10 12  1  0
 10 51  1  6
 11 52  1  0
 12 13  1  0
 12 53  1  0
 12 54  1  0
 13 22  1  0
 13 14  1  0
 13 55  1  1
 14 15  1  0
 14 16  1  0
 14 56  1  6
 15 57  1  0
 15 58  1  0
 15 59  1  0
 17 16  1  1
 16 60  1  0
 16 61  1  0
 17 18  1  0
 18 22  1  0
 18 19  1  6
 18 20  1  0
 19 62  1  0
 20 32  1  0
 20 21  1  0
 20 63  1  6
 22 21  1  1
 22 23  1  0
 23 24  1  0
 23 25  1  0
 23 64  1  1
 24 65  1  0
 25 33  1  0
 25 26  1  0
 25 66  1  6
 26 27  1  0
 26 33  1  0
 26 67  1  6
 27 28  1  0
 27 29  1  0
 27 68  1  1
 28 69  1  0
 29 32  1  0
 29 30  1  6
 29 31  1  0
 30 70  1  0
 30 71  1  0
 30 72  1  0
 31 32  1  0
 32 73  1  1
 33 34  1  0
 33 35  1  0
 34 74  1  0
 34 75  1  0
 34 76  1  0
 35 77  1  0
 35 78  1  0
 35 79  1  0
M  END
>  <i_m_ct_stereo_status>  (346) 
1

>  <s_m_source_file>  (346) 
/var/tmp/pbs.5076255.sched01/tmp0i_w_vt9/132llf9lao3.sdf

>  <i_m_source_file_index>  (346) 
12

>  <i_lp_mmshare_version>  (346) 
48012

>  <i_f3d_flags>  (346) 
0

>  <s_epik_input>  (346) 
W0NIM11PW0NAQEhdMVtDSDJdW0NIMl1DKFtDSDNdKShbQ0gzXSlbQ0BASF0oW0NAQF0xMjMpW0NAQEhdKFtPSF0pW0NIMl1bQ0BIXShbQ0BASF0oW0NIM10pW0NIMl0yKVtDQEBdNDVbQ0BdMyhbT0hdKVtDQEBIXShPNClbQ0BIXTZbQ0BdKE82KShbQ0gzXSlbQ0BIXShbT0hdKVtDQEBIXTdbQ0BIXShbQ0BASF01W09IXSlDNyhbQ0gzXSlbQ0gzXQ==

>  <s_epik_cmdline>  (346) 
J2VwaWtfcHl0aG9uJywgJy1waHQnLCAnMi4wJywgJy1waCcsICc3LjAnLCAnLXRuJywgJzgnLCAnLW1hJywgJzIwMCcsICctaW1hZScsICc8aW5maWxlLm1hZT4nLCAnLW9tYWUnLCAnPG91dGZpbGUubWFlPic=

>  <r_lp_tautomer_probability>  (346) 
1

>  <r_epik_Ionization_Penalty>  (346) 
1.31447e-06

>  <r_epik_Ionization_Penalty_Charging>  (346) 
0

>  <r_epik_Ionization_Penalty_Neutral>  (346) 
1.31447e-06

>  <r_epik_State_Penalty>  (346) 
-0

>  <r_epik_Charging_Adjusted_Penalty>  (346) 
0

>  <i_epik_Tot_Q>  (346) 
0

>  <i_epik_Tot_abs_Q>  (346) 
0

>  <s_lp_Force_Field>  (346) 
OPLS3e

>  <r_lp_Energy>  (346) 
114.678

>  <b_lp_Chiralities_Consistent>  (346) 
1

>  <s_lp_Variant>  (346) 
97:0-1

>  <s_i_glide_gridfile>  (346) 
pfpi4k_grid

>  <i_i_glide_lignum>  (346) 
12

>  <i_i_glide_rotatable_bonds>  (346) 
5

>  <r_i_docking_score>  (346) 
-3.08495

>  <r_i_glide_ligand_efficiency>  (346) 
-0.0881414

>  <r_i_glide_ligand_efficiency_sa>  (346) 
-0.288316

>  <r_i_glide_ligand_efficiency_ln>  (346) 
-0.677215

>  <r_i_glide_gscore>  (346) 
-3.08495

>  <r_i_glide_lipo>  (346) 
-0.747557

>  <r_i_glide_hbond>  (346) 
0

>  <r_i_glide_metal>  (346) 
-0

>  <r_i_glide_rewards>  (346) 
-0.550149

>  <r_i_glide_evdw>  (346) 
-26.4882

>  <r_i_glide_ecoul>  (346) 
-3.08555

>  <r_i_glide_erotb>  (346) 
0

>  <r_i_glide_esite>  (346) 
0

>  <r_i_glide_emodel>  (346) 
-39.6222

>  <r_i_glide_energy>  (346) 
-29.5738

>  <r_i_glide_einternal>  (346) 
1.70759

>  <r_i_glide_intrahb_reward>  (346) 
-0.5

>  <i_i_glide_confnum>  (346) 
1

>  <i_i_glide_posenum>  (346) 
7

>  <r_i_glide_eff_state_penalty>  (346) 
0

>  <ligand_id>  (346) 
97

>  <original_smiles>  (346) 
COC1CCC(C)(C)C2C(O)CC3C(C)CC12C1(O)C2OC31C(O)C1C(C(O)C3(C)OC23)C1(C)C

>  <smiles>  (346) 
[H]OC1([H])C([H])([H])C2([H])C([H])(C([H])([H])[H])C([H])([H])C3(C([H])(OC([H])([H])[H])C([H])([H])C([H])([H])C(C([H])([H])[H])(C([H])([H])[H])C13[H])C1(O[H])C3([H])OC21C([H])(O[H])C1([H])C([H])(C([H])(O[H])C2(C([H])([H])[H])OC32[H])C1(C([H])([H])[H])C([H])([H])[H]

$$$$
97:0:1
     RDKit          3D

 79 85  0  0  1  0  0  0  0  0999 V2000
    8.6082   -5.7047    0.9224 C   0  0  0  0  0  0  0  0  0  0  0  0
    7.7223   -4.6415    1.2531 O   0  0  0  0  0  0  0  0  0  0  0  0
    6.7876   -4.3000    0.2348 C   0  0  2  0  0  0  0  0  0  0  0  0
    7.4772   -3.3380   -0.7482 C   0  0  0  0  0  0  0  0  0  0  0  0
    6.5605   -2.9763   -1.9196 C   0  0  0  0  0  0  0  0  0  0  0  0
    5.1796   -2.3994   -1.5195 C   0  0  0  0  0  0  0  0  0  0  0  0
    5.3161   -0.9210   -1.1002 C   0  0  0  0  0  0  0  0  0  0  0  0
    4.3390   -2.4373   -2.8258 C   0  0  0  0  0  0  0  0  0  0  0  0
    4.5340   -3.3180   -0.4099 C   0  0  2  0  0  0  0  0  0  0  0  0
    3.0031   -3.0462   -0.1369 C   0  0  1  0  0  0  0  0  0  0  0  0
    2.2410   -4.2041   -0.4528 O   0  0  0  0  0  0  0  0  0  0  0  0
    2.5136   -2.4510    1.2084 C   0  0  0  0  0  0  0  0  0  0  0  0
    3.3414   -2.7193    2.4741 C   0  0  2  0  0  0  0  0  0  0  0  0
    4.5992   -1.8132    2.4003 C   0  0  1  0  0  0  0  0  0  0  0  0
    4.9645   -1.1722    3.7547 C   0  0  0  0  0  0  0  0  0  0  0  0
    5.8002   -2.5070    1.7381 C   0  0  0  0  0  0  0  0  0  0  0  0
    5.4562   -3.7221    0.8293 C   0  0  2  0  0  0  0  0  0  0  0  0
    4.7448   -4.7939    1.7399 C   0  0  1  0  0  0  0  0  0  0  0  0
    4.3609   -5.8268    0.8655 O   0  0  0  0  0  0  0  0  0  0  0  0
    5.4029   -5.2678    3.0673 C   0  0  1  0  0  0  0  0  0  0  0  0
    4.5974   -4.2875    3.7744 O   0  0  0  0  0  0  0  0  0  0  0  0
    3.6423   -4.2353    2.6771 C   0  0  1  0  0  0  0  0  0  0  0  0
    2.4206   -5.1035    3.2305 C   0  0  1  0  0  0  0  0  0  0  0  0
    1.2925   -4.3029    3.5194 O   0  0  0  0  0  0  0  0  0  0  0  0
    1.9146   -6.2705    2.3643 C   0  0  1  0  0  0  0  0  0  0  0  0
    2.3524   -7.7430    2.4489 C   0  0  1  0  0  0  0  0  0  0  0  0
    3.3882   -8.3518    3.4182 C   0  0  1  0  0  0  0  0  0  0  0  0
    3.3219   -9.7629    3.3315 O   0  0  0  0  0  0  0  0  0  0  0  0
    4.7915   -7.8457    3.1019 C   0  0  2  0  0  0  0  0  0  0  0  0
    5.3964   -8.3370    1.7913 C   0  0  0  0  0  0  0  0  0  0  0  0
    5.8535   -7.6589    4.0447 O   0  0  0  0  0  0  0  0  0  0  0  0
    5.0163   -6.5319    3.8291 C   0  0  1  0  0  0  0  0  0  0  0  0
    0.9491   -7.3383    2.8666 C   0  0  0  0  0  0  0  0  0  0  0  0
    0.4977   -7.3890    4.3196 C   0  0  0  0  0  0  0  0  0  0  0  0
   -0.2053   -7.7464    1.9688 C   0  0  0  0  0  0  0  0  0  0  0  0
    9.1990   -5.9648    1.8023 H   0  0  0  0  0  0  0  0  0  0  0  0
    9.2973   -5.4282    0.1244 H   0  0  0  0  0  0  0  0  0  0  0  0
    8.0723   -6.6020    0.6109 H   0  0  0  0  0  0  0  0  0  0  0  0
    6.5256   -5.2072   -0.3105 H   0  0  0  0  0  0  0  0  0  0  0  0
    7.8245   -2.4400   -0.2453 H   0  0  0  0  0  0  0  0  0  0  0  0
    8.3762   -3.7932   -1.1583 H   0  0  0  0  0  0  0  0  0  0  0  0
    7.0845   -2.2871   -2.5799 H   0  0  0  0  0  0  0  0  0  0  0  0
    6.3923   -3.8664   -2.5260 H   0  0  0  0  0  0  0  0  0  0  0  0
    4.4481   -0.5822   -0.5346 H   0  0  0  0  0  0  0  0  0  0  0  0
    5.4004   -0.2743   -1.9749 H   0  0  0  0  0  0  0  0  0  0  0  0
    6.2040   -0.7334   -0.5042 H   0  0  0  0  0  0  0  0  0  0  0  0
    3.4337   -1.8332   -2.7680 H   0  0  0  0  0  0  0  0  0  0  0  0
    4.0467   -3.4564   -3.0853 H   0  0  0  0  0  0  0  0  0  0  0  0
    4.9088   -2.0438   -3.6683 H   0  0  0  0  0  0  0  0  0  0  0  0
    4.5015   -4.2491   -0.9799 H   0  0  0  0  0  0  0  0  0  0  0  0
    2.6501   -2.3227   -0.8662 H   0  0  0  0  0  0  0  0  0  0  0  0
    2.5248   -4.5307   -1.2993 H   0  0  0  0  0  0  0  0  0  0  0  0
    2.4018   -1.3735    1.0739 H   0  0  0  0  0  0  0  0  0  0  0  0
    1.4966   -2.7743    1.4024 H   0  0  0  0  0  0  0  0  0  0  0  0
    2.7627   -2.3410    3.3138 H   0  0  0  0  0  0  0  0  0  0  0  0
    4.3636   -0.9539    1.7747 H   0  0  0  0  0  0  0  0  0  0  0  0
    5.2397   -1.9211    4.4999 H   0  0  0  0  0  0  0  0  0  0  0  0
    4.1277   -0.5976    4.1576 H   0  0  0  0  0  0  0  0  0  0  0  0
    5.8052   -0.4836    3.6481 H   0  0  0  0  0  0  0  0  0  0  0  0
    6.4194   -1.7638    1.2567 H   0  0  0  0  0  0  0  0  0  0  0  0
    6.4453   -2.8676    2.5272 H   0  0  0  0  0  0  0  0  0  0  0  0
    3.8993   -6.4661    1.3816 H   0  0  0  0  0  0  0  0  0  0  0  0
    6.4499   -5.0209    3.1873 H   0  0  0  0  0  0  0  0  0  0  0  0
    2.6675   -5.5047    4.2097 H   0  0  0  0  0  0  0  0  0  0  0  0
    1.5570   -3.6762    4.1752 H   0  0  0  0  0  0  0  0  0  0  0  0
    1.6767   -5.9197    1.3648 H   0  0  0  0  0  0  0  0  0  0  0  0
    2.4099   -8.2142    1.4693 H   0  0  0  0  0  0  0  0  0  0  0  0
    3.1455   -8.0710    4.4437 H   0  0  0  0  0  0  0  0  0  0  0  0
    3.5527  -10.0458    2.4573 H   0  0  0  0  0  0  0  0  0  0  0  0
    4.6748   -8.3389    0.9763 H   0  0  0  0  0  0  0  0  0  0  0  0
    5.7663   -9.3541    1.9176 H   0  0  0  0  0  0  0  0  0  0  0  0
    6.2404   -7.7047    1.5193 H   0  0  0  0  0  0  0  0  0  0  0  0
    4.5175   -6.3372    4.7757 H   0  0  0  0  0  0  0  0  0  0  0  0
    0.2135   -8.4088    4.5902 H   0  0  0  0  0  0  0  0  0  0  0  0
   -0.3669   -6.7385    4.4629 H   0  0  0  0  0  0  0  0  0  0  0  0
    1.2803   -7.0613    5.0007 H   0  0  0  0  0  0  0  0  0  0  0  0
   -0.5282   -8.7643    2.1984 H   0  0  0  0  0  0  0  0  0  0  0  0
    0.0957   -7.7195    0.9192 H   0  0  0  0  0  0  0  0  0  0  0  0
   -1.0546   -7.0746    2.1001 H   0  0  0  0  0  0  0  0  0  0  0  0
  1  2  1  0
  1 36  1  0
  1 37  1  0
  1 38  1  0
  2  3  1  0
  3 17  1  0
  3  4  1  0
  3 39  1  6
  4  5  1  0
  4 40  1  0
  4 41  1  0
  5  6  1  0
  5 42  1  0
  5 43  1  0
  6  7  1  0
  6  8  1  0
  6  9  1  0
  7 44  1  0
  7 45  1  0
  7 46  1  0
  8 47  1  0
  8 48  1  0
  8 49  1  0
  9 17  1  0
  9 10  1  0
  9 50  1  6
 10 11  1  0
 10 12  1  0
 10 51  1  6
 11 52  1  0
 12 13  1  0
 12 53  1  0
 12 54  1  0
 13 22  1  0
 13 14  1  0
 13 55  1  1
 14 15  1  0
 14 16  1  0
 14 56  1  6
 15 57  1  0
 15 58  1  0
 15 59  1  0
 17 16  1  1
 16 60  1  0
 16 61  1  0
 17 18  1  0
 18 22  1  0
 18 19  1  6
 18 20  1  0
 19 62  1  0
 20 32  1  0
 20 21  1  0
 20 63  1  6
 22 21  1  1
 22 23  1  0
 23 24  1  0
 23 25  1  0
 23 64  1  1
 24 65  1  0
 25 33  1  0
 25 26  1  0
 25 66  1  6
 26 27  1  0
 26 33  1  0
 26 67  1  6
 27 28  1  0
 27 29  1  0
 27 68  1  1
 28 69  1  0
 29 32  1  0
 29 30  1  6
 29 31  1  0
 30 70  1  0
 30 71  1  0
 30 72  1  0
 31 32  1  0
 32 73  1  1
 33 34  1  0
 33 35  1  0
 34 74  1  0
 34 75  1  0
 34 76  1  0
 35 77  1  0
 35 78  1  0
 35 79  1  0
M  END
>  <i_m_ct_stereo_status>  (347) 
1

>  <s_m_source_file>  (347) 
/var/tmp/pbs.5076255.sched01/tmp0i_w_vt9/132llf9lao3.sdf

>  <i_m_source_file_index>  (347) 
12

>  <i_lp_mmshare_version>  (347) 
48012

>  <i_f3d_flags>  (347) 
0

>  <s_epik_input>  (347) 
W0NIM11PW0NAQEhdMVtDSDJdW0NIMl1DKFtDSDNdKShbQ0gzXSlbQ0BASF0oW0NAQF0xMjMpW0NAQEhdKFtPSF0pW0NIMl1bQ0BIXShbQ0BASF0oW0NIM10pW0NIMl0yKVtDQEBdNDVbQ0BdMyhbT0hdKVtDQEBIXShPNClbQ0BIXTZbQ0BdKE82KShbQ0gzXSlbQ0BIXShbT0hdKVtDQEBIXTdbQ0BIXShbQ0BASF01W09IXSlDNyhbQ0gzXSlbQ0gzXQ==

>  <s_epik_cmdline>  (347) 
J2VwaWtfcHl0aG9uJywgJy1waHQnLCAnMi4wJywgJy1waCcsICc3LjAnLCAnLXRuJywgJzgnLCAnLW1hJywgJzIwMCcsICctaW1hZScsICc8aW5maWxlLm1hZT4nLCAnLW9tYWUnLCAnPG91dGZpbGUubWFlPic=

>  <r_lp_tautomer_probability>  (347) 
1

>  <r_epik_Ionization_Penalty>  (347) 
1.31447e-06

>  <r_epik_Ionization_Penalty_Charging>  (347) 
0

>  <r_epik_Ionization_Penalty_Neutral>  (347) 
1.31447e-06

>  <r_epik_State_Penalty>  (347) 
-0

>  <r_epik_Charging_Adjusted_Penalty>  (347) 
0

>  <i_epik_Tot_Q>  (347) 
0

>  <i_epik_Tot_abs_Q>  (347) 
0

>  <s_lp_Force_Field>  (347) 
OPLS3e

>  <r_lp_Energy>  (347) 
114.678

>  <b_lp_Chiralities_Consistent>  (347) 
1

>  <s_lp_Variant>  (347) 
97:0-1

>  <s_i_glide_gridfile>  (347) 
pfpi4k_grid

>  <i_i_glide_lignum>  (347) 
12

>  <i_i_glide_rotatable_bonds>  (347) 
5

>  <r_i_docking_score>  (347) 
-2.45448

>  <r_i_glide_ligand_efficiency>  (347) 
-0.0701279

>  <r_i_glide_ligand_efficiency_sa>  (347) 
-0.229393

>  <r_i_glide_ligand_efficiency_ln>  (347) 
-0.538812

>  <r_i_glide_gscore>  (347) 
-2.45448

>  <r_i_glide_lipo>  (347) 
-0.773258

>  <r_i_glide_hbond>  (347) 
0

>  <r_i_glide_metal>  (347) 
-0

>  <r_i_glide_rewards>  (347) 
-0.0501494

>  <r_i_glide_evdw>  (347) 
-26.4476

>  <r_i_glide_ecoul>  (347) 
-2.05791

>  <r_i_glide_erotb>  (347) 
0

>  <r_i_glide_esite>  (347) 
0

>  <r_i_glide_emodel>  (347) 
-32.7252

>  <r_i_glide_energy>  (347) 
-28.5055

>  <r_i_glide_einternal>  (347) 
0.943219

>  <r_i_glide_intrahb_reward>  (347) 
-0

>  <i_i_glide_confnum>  (347) 
2

>  <i_i_glide_posenum>  (347) 
10

>  <r_i_glide_eff_state_penalty>  (347) 
0

>  <ligand_id>  (347) 
97

>  <original_smiles>  (347) 
COC1CCC(C)(C)C2C(O)CC3C(C)CC12C1(O)C2OC31C(O)C1C(C(O)C3(C)OC23)C1(C)C

>  <smiles>  (347) 
[H]OC1([H])C([H])([H])C2([H])C([H])(C([H])([H])[H])C([H])([H])C3(C([H])(OC([H])([H])[H])C([H])([H])C([H])([H])C(C([H])([H])[H])(C([H])([H])[H])C13[H])C1(O[H])C3([H])OC21C([H])(O[H])C1([H])C([H])(C([H])(O[H])C2(C([H])([H])[H])OC32[H])C1(C([H])([H])[H])C([H])([H])[H]

$$$$
97:0:2
     RDKit          3D

 79 85  0  0  1  0  0  0  0  0999 V2000
    8.6158   -5.6046    0.9364 C   0  0  0  0  0  0  0  0  0  0  0  0
    7.7114   -4.5512    1.2462 O   0  0  0  0  0  0  0  0  0  0  0  0
    6.7829   -4.2280    0.2160 C   0  0  2  0  0  0  0  0  0  0  0  0
    7.4782   -3.2848   -0.7853 C   0  0  0  0  0  0  0  0  0  0  0  0
    6.5667   -2.9528   -1.9684 C   0  0  0  0  0  0  0  0  0  0  0  0
    5.1835   -2.3713   -1.5862 C   0  0  0  0  0  0  0  0  0  0  0  0
    5.3148   -0.8868   -1.1968 C   0  0  0  0  0  0  0  0  0  0  0  0
    4.3508   -2.4385   -2.8955 C   0  0  0  0  0  0  0  0  0  0  0  0
    4.5328   -3.2653   -0.4604 C   0  0  2  0  0  0  0  0  0  0  0  0
    2.9991   -2.9899   -0.2039 C   0  0  1  0  0  0  0  0  0  0  0  0
    2.2380   -4.1516   -0.4997 O   0  0  0  0  0  0  0  0  0  0  0  0
    2.5020   -2.3647    1.1243 C   0  0  0  0  0  0  0  0  0  0  0  0
    3.3244   -2.6081    2.4015 C   0  0  2  0  0  0  0  0  0  0  0  0
    4.5838   -1.7041    2.3187 C   0  0  1  0  0  0  0  0  0  0  0  0
    4.9378   -1.0301    3.6587 C   0  0  0  0  0  0  0  0  0  0  0  0
    5.7910   -2.4088    1.6792 C   0  0  0  0  0  0  0  0  0  0  0  0
    5.4488   -3.6397    0.7931 C   0  0  2  0  0  0  0  0  0  0  0  0
    4.7312   -4.6961    1.7189 C   0  0  1  0  0  0  0  0  0  0  0  0
    4.3552   -5.7477    0.8624 O   0  0  0  0  0  0  0  0  0  0  0  0
    5.3835   -5.1398    3.0615 C   0  0  1  0  0  0  0  0  0  0  0  0
    4.5749   -4.1447    3.7431 O   0  0  0  0  0  0  0  0  0  0  0  0
    3.6238   -4.1187    2.6393 C   0  0  1  0  0  0  0  0  0  0  0  0
    2.4014   -4.9747    3.2075 C   0  0  1  0  0  0  0  0  0  0  0  0
    1.2719   -4.1689    3.4715 O   0  0  0  0  0  0  0  0  0  0  0  0
    1.8995   -6.1599    2.3629 C   0  0  1  0  0  0  0  0  0  0  0  0
    2.3399   -7.6273    2.4836 C   0  0  1  0  0  0  0  0  0  0  0  0
    3.3687   -8.2075    3.4729 C   0  0  1  0  0  0  0  0  0  0  0  0
    3.3119   -9.6122    3.3774 O   0  0  0  0  0  0  0  0  0  0  0  0
    4.7742   -7.7121    3.1523 C   0  0  2  0  0  0  0  0  0  0  0  0
    5.3876   -8.2315    1.8534 C   0  0  0  0  0  0  0  0  0  0  0  0
    5.8305   -7.5084    4.0973 O   0  0  0  0  0  0  0  0  0  0  0  0
    4.9948   -6.3877    3.8507 C   0  0  1  0  0  0  0  0  0  0  0  0
    0.9317   -7.2196    2.8807 C   0  0  0  0  0  0  0  0  0  0  0  0
    0.4726   -7.2387    4.3330 C   0  0  0  0  0  0  0  0  0  0  0  0
   -0.2135   -7.6525    1.9835 C   0  0  0  0  0  0  0  0  0  0  0  0
    9.2022   -5.8466    1.8252 H   0  0  0  0  0  0  0  0  0  0  0  0
    9.3115   -5.3225    0.1461 H   0  0  0  0  0  0  0  0  0  0  0  0
    8.0959   -6.5128    0.6282 H   0  0  0  0  0  0  0  0  0  0  0  0
    6.5290   -5.1525   -0.3053 H   0  0  0  0  0  0  0  0  0  0  0  0
    7.8191   -2.3768   -0.2942 H   0  0  0  0  0  0  0  0  0  0  0  0
    8.3822   -3.7487   -1.1787 H   0  0  0  0  0  0  0  0  0  0  0  0
    7.0952   -2.2805   -2.6395 H   0  0  0  0  0  0  0  0  0  0  0  0
    6.4059   -3.8566   -2.5516 H   0  0  0  0  0  0  0  0  0  0  0  0
    4.4411   -0.5324   -0.6470 H   0  0  0  0  0  0  0  0  0  0  0  0
    5.4018   -0.2694   -2.0914 H   0  0  0  0  0  0  0  0  0  0  0  0
    6.2005   -0.6810   -0.6029 H   0  0  0  0  0  0  0  0  0  0  0  0
    3.4441   -1.8319   -2.8579 H   0  0  0  0  0  0  0  0  0  0  0  0
    4.0587   -3.4623   -3.1353 H   0  0  0  0  0  0  0  0  0  0  0  0
    4.9244   -2.0627   -3.7441 H   0  0  0  0  0  0  0  0  0  0  0  0
    4.5047   -4.2078   -1.0115 H   0  0  0  0  0  0  0  0  0  0  0  0
    2.6508   -2.2841   -0.9489 H   0  0  0  0  0  0  0  0  0  0  0  0
    2.5353   -4.5051   -1.3311 H   0  0  0  0  0  0  0  0  0  0  0  0
    2.3970   -1.2884    0.9683 H   0  0  0  0  0  0  0  0  0  0  0  0
    1.4791   -2.6752    1.3158 H   0  0  0  0  0  0  0  0  0  0  0  0
    2.7417   -2.2115    3.2300 H   0  0  0  0  0  0  0  0  0  0  0  0
    4.3517   -0.8590    1.6708 H   0  0  0  0  0  0  0  0  0  0  0  0
    5.2090   -1.7634    4.4210 H   0  0  0  0  0  0  0  0  0  0  0  0
    4.0978   -0.4481    4.0439 H   0  0  0  0  0  0  0  0  0  0  0  0
    5.7780   -0.3434    3.5417 H   0  0  0  0  0  0  0  0  0  0  0  0
    6.4077   -1.6752    1.1828 H   0  0  0  0  0  0  0  0  0  0  0  0
    6.4373   -2.7494    2.4805 H   0  0  0  0  0  0  0  0  0  0  0  0
    3.9326   -6.4010    1.3967 H   0  0  0  0  0  0  0  0  0  0  0  0
    6.4304   -4.8915    3.1789 H   0  0  0  0  0  0  0  0  0  0  0  0
    2.6431   -5.3513    4.1949 H   0  0  0  0  0  0  0  0  0  0  0  0
    1.5434   -3.5049    4.0860 H   0  0  0  0  0  0  0  0  0  0  0  0
    1.6702   -5.8317    1.3526 H   0  0  0  0  0  0  0  0  0  0  0  0
    2.4114   -8.1226    1.5155 H   0  0  0  0  0  0  0  0  0  0  0  0
    3.1201   -7.9199    4.4952 H   0  0  0  0  0  0  0  0  0  0  0  0
    2.4691   -9.9044    3.6936 H   0  0  0  0  0  0  0  0  0  0  0  0
    4.6686   -8.2549    1.0367 H   0  0  0  0  0  0  0  0  0  0  0  0
    5.7533   -9.2476    2.0026 H   0  0  0  0  0  0  0  0  0  0  0  0
    6.2328   -7.6077    1.5721 H   0  0  0  0  0  0  0  0  0  0  0  0
    4.4899   -6.1725    4.7895 H   0  0  0  0  0  0  0  0  0  0  0  0
    0.1857   -8.2522    4.6217 H   0  0  0  0  0  0  0  0  0  0  0  0
   -0.3923   -6.5851    4.4572 H   0  0  0  0  0  0  0  0  0  0  0  0
    1.2512   -6.8946    5.0110 H   0  0  0  0  0  0  0  0  0  0  0  0
   -0.5360   -8.6642    2.2341 H   0  0  0  0  0  0  0  0  0  0  0  0
    0.0963   -7.6478    0.9363 H   0  0  0  0  0  0  0  0  0  0  0  0
   -1.0646   -6.9820    2.0942 H   0  0  0  0  0  0  0  0  0  0  0  0
  1  2  1  0
  1 36  1  0
  1 37  1  0
  1 38  1  0
  2  3  1  0
  3 17  1  0
  3  4  1  0
  3 39  1  6
  4  5  1  0
  4 40  1  0
  4 41  1  0
  5  6  1  0
  5 42  1  0
  5 43  1  0
  6  7  1  0
  6  8  1  0
  6  9  1  0
  7 44  1  0
  7 45  1  0
  7 46  1  0
  8 47  1  0
  8 48  1  0
  8 49  1  0
  9 17  1  0
  9 10  1  0
  9 50  1  6
 10 11  1  0
 10 12  1  0
 10 51  1  6
 11 52  1  0
 12 13  1  0
 12 53  1  0
 12 54  1  0
 13 22  1  0
 13 14  1  0
 13 55  1  1
 14 15  1  0
 14 16  1  0
 14 56  1  6
 15 57  1  0
 15 58  1  0
 15 59  1  0
 17 16  1  1
 16 60  1  0
 16 61  1  0
 17 18  1  0
 18 22  1  0
 18 19  1  6
 18 20  1  0
 19 62  1  0
 20 32  1  0
 20 21  1  0
 20 63  1  6
 22 21  1  1
 22 23  1  0
 23 24  1  0
 23 25  1  0
 23 64  1  1
 24 65  1  0
 25 33  1  0
 25 26  1  0
 25 66  1  6
 26 27  1  0
 26 33  1  0
 26 67  1  6
 27 28  1  0
 27 29  1  0
 27 68  1  1
 28 69  1  0
 29 32  1  0
 29 30  1  6
 29 31  1  0
 30 70  1  0
 30 71  1  0
 30 72  1  0
 31 32  1  0
 32 73  1  1
 33 34  1  0
 33 35  1  0
 34 74  1  0
 34 75  1  0
 34 76  1  0
 35 77  1  0
 35 78  1  0
 35 79  1  0
M  END
>  <i_m_ct_stereo_status>  (348) 
1

>  <s_m_source_file>  (348) 
/var/tmp/pbs.5076255.sched01/tmp0i_w_vt9/132llf9lao3.sdf

>  <i_m_source_file_index>  (348) 
12

>  <i_lp_mmshare_version>  (348) 
48012

>  <i_f3d_flags>  (348) 
0

>  <s_epik_input>  (348) 
W0NIM11PW0NAQEhdMVtDSDJdW0NIMl1DKFtDSDNdKShbQ0gzXSlbQ0BASF0oW0NAQF0xMjMpW0NAQEhdKFtPSF0pW0NIMl1bQ0BIXShbQ0BASF0oW0NIM10pW0NIMl0yKVtDQEBdNDVbQ0BdMyhbT0hdKVtDQEBIXShPNClbQ0BIXTZbQ0BdKE82KShbQ0gzXSlbQ0BIXShbT0hdKVtDQEBIXTdbQ0BIXShbQ0BASF01W09IXSlDNyhbQ0gzXSlbQ0gzXQ==

>  <s_epik_cmdline>  (348) 
J2VwaWtfcHl0aG9uJywgJy1waHQnLCAnMi4wJywgJy1waCcsICc3LjAnLCAnLXRuJywgJzgnLCAnLW1hJywgJzIwMCcsICctaW1hZScsICc8aW5maWxlLm1hZT4nLCAnLW9tYWUnLCAnPG91dGZpbGUubWFlPic=

>  <r_lp_tautomer_probability>  (348) 
1

>  <r_epik_Ionization_Penalty>  (348) 
1.31447e-06

>  <r_epik_Ionization_Penalty_Charging>  (348) 
0

>  <r_epik_Ionization_Penalty_Neutral>  (348) 
1.31447e-06

>  <r_epik_State_Penalty>  (348) 
-0

>  <r_epik_Charging_Adjusted_Penalty>  (348) 
0

>  <i_epik_Tot_Q>  (348) 
0

>  <i_epik_Tot_abs_Q>  (348) 
0

>  <s_lp_Force_Field>  (348) 
OPLS3e

>  <r_lp_Energy>  (348) 
114.678

>  <b_lp_Chiralities_Consistent>  (348) 
1

>  <s_lp_Variant>  (348) 
97:0-1

>  <s_i_glide_gridfile>  (348) 
pfpi4k_grid

>  <i_i_glide_lignum>  (348) 
12

>  <i_i_glide_rotatable_bonds>  (348) 
5

>  <r_i_docking_score>  (348) 
-2.37774

>  <r_i_glide_ligand_efficiency>  (348) 
-0.0679354

>  <r_i_glide_ligand_efficiency_sa>  (348) 
-0.222221

>  <r_i_glide_ligand_efficiency_ln>  (348) 
-0.521966

>  <r_i_glide_gscore>  (348) 
-2.37774

>  <r_i_glide_lipo>  (348) 
-0.741798

>  <r_i_glide_hbond>  (348) 
0

>  <r_i_glide_metal>  (348) 
-0

>  <r_i_glide_rewards>  (348) 
-0.0501494

>  <r_i_glide_evdw>  (348) 
-26.8035

>  <r_i_glide_ecoul>  (348) 
-1.63744

>  <r_i_glide_erotb>  (348) 
0

>  <r_i_glide_esite>  (348) 
0

>  <r_i_glide_emodel>  (348) 
-32.334

>  <r_i_glide_energy>  (348) 
-28.4409

>  <r_i_glide_einternal>  (348) 
1.27262

>  <r_i_glide_intrahb_reward>  (348) 
-0

>  <i_i_glide_confnum>  (348) 
1

>  <i_i_glide_posenum>  (348) 
16

>  <r_i_glide_eff_state_penalty>  (348) 
0

>  <ligand_id>  (348) 
97

>  <original_smiles>  (348) 
COC1CCC(C)(C)C2C(O)CC3C(C)CC12C1(O)C2OC31C(O)C1C(C(O)C3(C)OC23)C1(C)C

>  <smiles>  (348) 
[H]OC1([H])C([H])([H])C2([H])C([H])(C([H])([H])[H])C([H])([H])C3(C([H])(OC([H])([H])[H])C([H])([H])C([H])([H])C(C([H])([H])[H])(C([H])([H])[H])C13[H])C1(O[H])C3([H])OC21C([H])(O[H])C1([H])C([H])(C([H])(O[H])C2(C([H])([H])[H])OC32[H])C1(C([H])([H])[H])C([H])([H])[H]

$$$$
98:0:0
     RDKit          3D

 62 65  0  0  1  0  0  0  0  0999 V2000
    1.6389   -1.2820    2.7688 C   0  0  0  0  0  0  0  0  0  0  0  0
    2.8023   -2.1968    3.1977 C   0  0  2  0  0  0  0  0  0  0  0  0
    4.0972   -1.3956    3.5017 C   0  0  0  0  0  0  0  0  0  0  0  0
    5.2452   -2.3218    2.9993 C   0  0  1  0  0  0  0  0  0  0  0  0
    4.6903   -3.7200    2.8444 C   0  0  2  0  0  0  0  0  0  0  0  0
    4.4035   -4.3317    4.0809 O   0  0  0  0  0  0  0  0  0  0  0  0
    5.8379   -4.4917    2.1547 C   0  0  1  0  0  0  0  0  0  0  0  0
    5.6406   -5.9123    1.6197 C   0  0  0  0  0  0  0  0  0  0  0  0
    6.6834   -3.4592    1.3891 C   0  0  1  0  0  0  0  0  0  0  0  0
    7.2392   -3.7624    0.1182 O   0  0  0  0  0  0  0  0  0  0  0  0
    5.9271   -2.1054    1.5893 C   0  0  2  0  0  0  0  0  0  0  0  0
    6.7723   -1.0850    1.9879 O   0  0  0  0  0  0  0  0  0  0  0  0
    5.2829   -1.4532    0.2951 C   0  0  1  0  0  0  0  0  0  0  0  0
    6.4184   -1.2899   -0.5245 O   0  0  0  0  0  0  0  0  0  0  0  0
    4.0618   -1.9484   -0.6144 C   0  0  1  0  0  0  0  0  0  0  0  0
    3.0866   -1.0514   -0.1025 O   0  0  0  0  0  0  0  0  0  0  0  0
    4.2619   -1.5119   -2.1241 C   0  0  1  0  0  0  0  0  0  0  0  0
    5.2498   -2.2680   -2.8087 O   0  0  0  0  0  0  0  0  0  0  0  0
    2.9895   -1.5854   -2.9607 C   0  0  1  0  0  0  0  0  0  0  0  0
    3.1523   -1.0342   -4.3659 C   0  0  0  0  0  0  0  0  0  0  0  0
    2.3611   -2.9941   -2.9357 C   0  0  0  0  0  0  0  0  0  0  0  0
    2.1644   -3.4541   -1.4735 C   0  0  1  0  0  0  0  0  0  0  0  0
    1.4021   -4.6481   -1.4500 O   0  0  0  0  0  0  0  0  0  0  0  0
    3.3861   -3.4020   -0.4883 C   0  0  1  0  0  0  0  0  0  0  0  0
    4.3388   -4.4520   -0.9954 C   0  0  0  0  0  0  0  0  0  0  0  0
    2.7733   -3.7943    0.9488 C   0  0  1  0  0  0  0  0  0  0  0  0
    2.4633   -5.1612    1.1574 O   0  0  0  0  0  0  0  0  0  0  0  0
    3.3850   -3.2376    2.2137 C   0  0  1  0  0  0  0  0  0  0  0  0
    1.9090   -0.6005    1.9659 H   0  0  0  0  0  0  0  0  0  0  0  0
    1.3239   -0.6555    3.6039 H   0  0  0  0  0  0  0  0  0  0  0  0
    0.7736   -1.8596    2.4528 H   0  0  0  0  0  0  0  0  0  0  0  0
    2.4835   -2.7265    4.0933 H   0  0  0  0  0  0  0  0  0  0  0  0
    4.1470   -0.4224    3.0090 H   0  0  0  0  0  0  0  0  0  0  0  0
    4.1739   -1.2206    4.5743 H   0  0  0  0  0  0  0  0  0  0  0  0
    5.9863   -2.3639    3.7865 H   0  0  0  0  0  0  0  0  0  0  0  0
    3.8553   -5.0790    3.8903 H   0  0  0  0  0  0  0  0  0  0  0  0
    6.4787   -4.7207    3.0120 H   0  0  0  0  0  0  0  0  0  0  0  0
    4.8439   -5.9916    0.9117 H   0  0  0  0  0  0  0  0  0  0  0  0
    5.3844   -6.5842    2.4365 H   0  0  0  0  0  0  0  0  0  0  0  0
    6.5553   -6.2741    1.1500 H   0  0  0  0  0  0  0  0  0  0  0  0
    7.5942   -3.5262    1.9420 H   0  0  0  0  0  0  0  0  0  0  0  0
    6.5676   -4.2143   -0.3880 H   0  0  0  0  0  0  0  0  0  0  0  0
    6.9231   -0.5095    1.2150 H   0  0  0  0  0  0  0  0  0  0  0  0
    5.0279   -0.4267    0.5693 H   0  0  0  0  0  0  0  0  0  0  0  0
    6.8219   -2.1534   -0.5573 H   0  0  0  0  0  0  0  0  0  0  0  0
    2.2863   -1.0413   -0.6194 H   0  0  0  0  0  0  0  0  0  0  0  0
    4.5585   -0.4608   -2.1371 H   0  0  0  0  0  0  0  0  0  0  0  0
    5.0319   -3.1860   -2.6908 H   0  0  0  0  0  0  0  0  0  0  0  0
    2.2872   -0.8782   -2.5120 H   0  0  0  0  0  0  0  0  0  0  0  0
    3.7455   -1.6994   -4.9897 H   0  0  0  0  0  0  0  0  0  0  0  0
    3.5632   -0.0222   -4.3991 H   0  0  0  0  0  0  0  0  0  0  0  0
    2.1540   -0.9633   -4.7786 H   0  0  0  0  0  0  0  0  0  0  0  0
    1.3824   -2.9459   -3.4246 H   0  0  0  0  0  0  0  0  0  0  0  0
    2.9305   -3.7242   -3.5216 H   0  0  0  0  0  0  0  0  0  0  0  0
    1.4245   -2.8274   -1.0329 H   0  0  0  0  0  0  0  0  0  0  0  0
    1.9296   -5.2810   -1.9636 H   0  0  0  0  0  0  0  0  0  0  0  0
    3.9135   -5.4126   -0.7532 H   0  0  0  0  0  0  0  0  0  0  0  0
    5.2876   -4.4207   -0.5417 H   0  0  0  0  0  0  0  0  0  0  0  0
    4.4588   -4.4126   -2.0699 H   0  0  0  0  0  0  0  0  0  0  0  0
    1.8325   -3.2730    0.9980 H   0  0  0  0  0  0  0  0  0  0  0  0
    3.2475   -5.6743    1.0056 H   0  0  0  0  0  0  0  0  0  0  0  0
    3.5828   -2.4127    1.6115 H   0  0  0  0  0  0  0  0  0  0  0  0
  1  2  1  0
  1 29  1  0
  1 30  1  0
  1 31  1  0
  2 28  1  0
  2  3  1  0
  2 32  1  1
  3  4  1  0
  3 33  1  0
  3 34  1  0
  4 11  1  0
  4  5  1  0
  4 35  1  1
  5 28  1  0
  5  6  1  1
  5  7  1  0
  6 36  1  0
  7  8  1  0
  7  9  1  0
  7 37  1  1
  8 38  1  0
  8 39  1  0
  8 40  1  0
  9 10  1  0
  9 11  1  0
  9 41  1  1
 10 42  1  0
 11 12  1  1
 11 13  1  0
 12 43  1  0
 13 14  1  0
 13 15  1  0
 13 44  1  1
 14 45  1  0
 15 24  1  0
 15 16  1  1
 15 17  1  0
 16 46  1  0
 17 18  1  0
 17 19  1  0
 17 47  1  1
 18 48  1  0
 19 20  1  0
 19 21  1  0
 19 49  1  1
 20 50  1  0
 20 51  1  0
 20 52  1  0
 21 22  1  0
 21 53  1  0
 21 54  1  0
 22 23  1  0
 22 24  1  0
 22 55  1  1
 23 56  1  0
 24 25  1  6
 24 26  1  0
 25 57  1  0
 25 58  1  0
 25 59  1  0
 26 27  1  0
 26 28  1  0
 26 60  1  6
 27 61  1  0
 28 62  1  6
M  END
>  <i_m_ct_stereo_status>  (349) 
1

>  <s_m_source_file>  (349) 
/var/tmp/pbs.5076255.sched01/tmp0i_w_vt9/132llf9lao3.sdf

>  <i_m_source_file_index>  (349) 
13

>  <i_lp_mmshare_version>  (349) 
48012

>  <i_f3d_flags>  (349) 
0

>  <s_epik_input>  (349) 
W09IXVtDQEhdMVtDQEBIXShbQ0gzXSlbQ0gyXVtDQEBIXShbT0hdKVtDQF0oW0NIM10pKFtDQEBIXShbT0hdKVtDQEhdMltDQEhdKFtDSDNdKVtDSDJdMylbQ0BAXTEoW09IXSlbQ0BIXShbT0hdKVtDQEBdKFtPSF0pKFtDSF0zW0NAQF0yNFtPSF0pW0NASF0oW09IXSlbQ0BASF00W0NIM10=

>  <s_epik_cmdline>  (349) 
J2VwaWtfcHl0aG9uJywgJy1waHQnLCAnMi4wJywgJy1waCcsICc3LjAnLCAnLXRuJywgJzgnLCAnLW1hJywgJzIwMCcsICctaW1hZScsICc8aW5maWxlLm1hZT4nLCAnLW9tYWUnLCAnPG91dGZpbGUubWFlPic=

>  <r_lp_tautomer_probability>  (349) 
1

>  <r_epik_Ionization_Penalty>  (349) 
3.40664e-06

>  <r_epik_Ionization_Penalty_Charging>  (349) 
0

>  <r_epik_Ionization_Penalty_Neutral>  (349) 
3.40664e-06

>  <r_epik_State_Penalty>  (349) 
-0

>  <r_epik_Charging_Adjusted_Penalty>  (349) 
0

>  <i_epik_Tot_Q>  (349) 
0

>  <i_epik_Tot_abs_Q>  (349) 
0

>  <s_lp_Force_Field>  (349) 
OPLS3e

>  <r_lp_Energy>  (349) 
149.715

>  <b_lp_Chiralities_Consistent>  (349) 
1

>  <s_lp_Variant>  (349) 
98:0-1

>  <s_i_glide_gridfile>  (349) 
pfpi4k_grid

>  <i_i_glide_lignum>  (349) 
13

>  <i_i_glide_rotatable_bonds>  (349) 
8

>  <r_i_docking_score>  (349) 
-4.49984

>  <r_i_glide_ligand_efficiency>  (349) 
-0.160709

>  <r_i_glide_ligand_efficiency_sa>  (349) 
-0.488006

>  <r_i_glide_ligand_efficiency_ln>  (349) 
-1.03869

>  <r_i_glide_gscore>  (349) 
-4.49984

>  <r_i_glide_lipo>  (349) 
-0.710537

>  <r_i_glide_hbond>  (349) 
0

>  <r_i_glide_metal>  (349) 
-0

>  <r_i_glide_rewards>  (349) 
-1.16491

>  <r_i_glide_evdw>  (349) 
2.8761

>  <r_i_glide_ecoul>  (349) 
-18.4546

>  <r_i_glide_erotb>  (349) 
0

>  <r_i_glide_esite>  (349) 
0

>  <r_i_glide_emodel>  (349) 
-19.2281

>  <r_i_glide_energy>  (349) 
-15.5785

>  <r_i_glide_einternal>  (349) 
2.31178

>  <r_i_glide_intrahb_reward>  (349) 
-0.5

>  <i_i_glide_confnum>  (349) 
1

>  <i_i_glide_posenum>  (349) 
32

>  <r_i_glide_eff_state_penalty>  (349) 
0

>  <ligand_id>  (349) 
98

>  <original_smiles>  (349) 
CC1CC2C3(O)C(C)C(O)C2(O)C(O)C2(O)C(O)C(C)CC(O)C2(C)C(O)C13

>  <smiles>  (349) 
[H]OC1([H])C([H])(C([H])([H])[H])C2(O[H])C3([H])C([H])(O[H])C4(C([H])([H])[H])C([H])(O[H])C([H])([H])C([H])(C([H])([H])[H])C([H])(O[H])C4(O[H])C([H])(O[H])C1(O[H])C2([H])C([H])([H])C3([H])C([H])([H])[H]

$$$$
98:0:1
     RDKit          3D

 62 65  0  0  1  0  0  0  0  0999 V2000
    1.6338   -1.4143    2.8696 C   0  0  0  0  0  0  0  0  0  0  0  0
    2.8199   -2.3165    3.2620 C   0  0  2  0  0  0  0  0  0  0  0  0
    4.0997   -1.4964    3.5877 C   0  0  0  0  0  0  0  0  0  0  0  0
    5.2751   -2.3688    3.0528 C   0  0  1  0  0  0  0  0  0  0  0  0
    4.7359   -3.7799    2.8491 C   0  0  2  0  0  0  0  0  0  0  0  0
    4.4796   -4.4631    4.0710 O   0  0  0  0  0  0  0  0  0  0  0  0
    5.8900   -4.5153    2.1441 C   0  0  1  0  0  0  0  0  0  0  0  0
    5.7145   -5.9173    1.5511 C   0  0  0  0  0  0  0  0  0  0  0  0
    6.6952   -3.4337    1.3961 C   0  0  1  0  0  0  0  0  0  0  0  0
    7.2568   -3.7418    0.1363 O   0  0  0  0  0  0  0  0  0  0  0  0
    5.9568   -2.0755    1.6372 C   0  0  2  0  0  0  0  0  0  0  0  0
    6.8445   -1.0661    2.0018 O   0  0  0  0  0  0  0  0  0  0  0  0
    5.2567   -1.4279    0.3647 C   0  0  1  0  0  0  0  0  0  0  0  0
    6.3394   -1.1957   -0.4870 O   0  0  0  0  0  0  0  0  0  0  0  0
    4.0180   -1.9219   -0.5532 C   0  0  1  0  0  0  0  0  0  0  0  0
    3.0276   -1.0615    0.0020 O   0  0  0  0  0  0  0  0  0  0  0  0
    4.1979   -1.4279   -2.0481 C   0  0  1  0  0  0  0  0  0  0  0  0
    5.2030   -2.1497   -2.7482 O   0  0  0  0  0  0  0  0  0  0  0  0
    2.9370   -1.5207   -2.8964 C   0  0  1  0  0  0  0  0  0  0  0  0
    3.0827   -0.9436   -4.3109 C   0  0  0  0  0  0  0  0  0  0  0  0
    2.3364   -2.9366   -2.8924 C   0  0  0  0  0  0  0  0  0  0  0  0
    2.1471   -3.4624   -1.4510 C   0  0  1  0  0  0  0  0  0  0  0  0
    1.4026   -4.6557   -1.4524 O   0  0  0  0  0  0  0  0  0  0  0  0
    3.3704   -3.3952   -0.4714 C   0  0  1  0  0  0  0  0  0  0  0  0
    4.3533   -4.4055   -1.0374 C   0  0  0  0  0  0  0  0  0  0  0  0
    2.7892   -3.8483    0.9688 C   0  0  1  0  0  0  0  0  0  0  0  0
    2.5426   -5.2317    1.1418 O   0  0  0  0  0  0  0  0  0  0  0  0
    3.4093   -3.3089    2.2446 C   0  0  1  0  0  0  0  0  0  0  0  0
    1.8811   -0.6959    2.0884 H   0  0  0  0  0  0  0  0  0  0  0  0
    1.3034   -0.8192    3.7241 H   0  0  0  0  0  0  0  0  0  0  0  0
    0.7801   -1.9983    2.5318 H   0  0  0  0  0  0  0  0  0  0  0  0
    2.5146   -2.8786    4.1401 H   0  0  0  0  0  0  0  0  0  0  0  0
    4.1229   -0.5062    3.1263 H   0  0  0  0  0  0  0  0  0  0  0  0
    4.1792   -1.3475    4.6705 H   0  0  0  0  0  0  0  0  0  0  0  0
    6.0174   -2.4308    3.8422 H   0  0  0  0  0  0  0  0  0  0  0  0
    4.1251   -5.2976    3.8545 H   0  0  0  0  0  0  0  0  0  0  0  0
    6.5517   -4.7652    2.9825 H   0  0  0  0  0  0  0  0  0  0  0  0
    4.9208   -5.9827    0.8371 H   0  0  0  0  0  0  0  0  0  0  0  0
    5.4780   -6.6223    2.3439 H   0  0  0  0  0  0  0  0  0  0  0  0
    6.6282   -6.2517    1.0674 H   0  0  0  0  0  0  0  0  0  0  0  0
    7.6243   -3.4890    1.9371 H   0  0  0  0  0  0  0  0  0  0  0  0
    7.7763   -4.5147    0.2525 H   0  0  0  0  0  0  0  0  0  0  0  0
    6.4134   -0.2199    2.0804 H   0  0  0  0  0  0  0  0  0  0  0  0
    4.9948   -0.4173    0.6708 H   0  0  0  0  0  0  0  0  0  0  0  0
    6.6954   -2.0399   -0.7104 H   0  0  0  0  0  0  0  0  0  0  0  0
    2.1086   -1.1884   -0.3276 H   0  0  0  0  0  0  0  0  0  0  0  0
    4.4853   -0.3793   -2.0318 H   0  0  0  0  0  0  0  0  0  0  0  0
    4.9684   -3.0484   -2.7696 H   0  0  0  0  0  0  0  0  0  0  0  0
    2.2261   -0.8414   -2.4238 H   0  0  0  0  0  0  0  0  0  0  0  0
    3.7076   -1.5722   -4.9447 H   0  0  0  0  0  0  0  0  0  0  0  0
    3.4660    0.0802   -4.3090 H   0  0  0  0  0  0  0  0  0  0  0  0
    2.0867   -0.8918   -4.7440 H   0  0  0  0  0  0  0  0  0  0  0  0
    1.3639   -2.8940   -3.3841 H   0  0  0  0  0  0  0  0  0  0  0  0
    2.9272   -3.6253   -3.4946 H   0  0  0  0  0  0  0  0  0  0  0  0
    1.4341   -2.8413   -0.9897 H   0  0  0  0  0  0  0  0  0  0  0  0
    1.9490   -5.2598   -1.9574 H   0  0  0  0  0  0  0  0  0  0  0  0
    3.9713   -5.3985   -0.8640 H   0  0  0  0  0  0  0  0  0  0  0  0
    5.3109   -4.3819   -0.5962 H   0  0  0  0  0  0  0  0  0  0  0  0
    4.4819   -4.3271   -2.1150 H   0  0  0  0  0  0  0  0  0  0  0  0
    1.8305   -3.3808    1.0297 H   0  0  0  0  0  0  0  0  0  0  0  0
    3.3612   -5.6856    1.1048 H   0  0  0  0  0  0  0  0  0  0  0  0
    3.6079   -2.4669    1.6653 H   0  0  0  0  0  0  0  0  0  0  0  0
  1  2  1  0
  1 29  1  0
  1 30  1  0
  1 31  1  0
  2 28  1  0
  2  3  1  0
  2 32  1  1
  3  4  1  0
  3 33  1  0
  3 34  1  0
  4 11  1  0
  4  5  1  0
  4 35  1  1
  5 28  1  0
  5  6  1  1
  5  7  1  0
  6 36  1  0
  7  8  1  0
  7  9  1  0
  7 37  1  1
  8 38  1  0
  8 39  1  0
  8 40  1  0
  9 10  1  0
  9 11  1  0
  9 41  1  1
 10 42  1  0
 11 12  1  1
 11 13  1  0
 12 43  1  0
 13 14  1  0
 13 15  1  0
 13 44  1  1
 14 45  1  0
 15 24  1  0
 15 16  1  1
 15 17  1  0
 16 46  1  0
 17 18  1  0
 17 19  1  0
 17 47  1  1
 18 48  1  0
 19 20  1  0
 19 21  1  0
 19 49  1  1
 20 50  1  0
 20 51  1  0
 20 52  1  0
 21 22  1  0
 21 53  1  0
 21 54  1  0
 22 23  1  0
 22 24  1  0
 22 55  1  1
 23 56  1  0
 24 25  1  6
 24 26  1  0
 25 57  1  0
 25 58  1  0
 25 59  1  0
 26 27  1  0
 26 28  1  0
 26 60  1  6
 27 61  1  0
 28 62  1  6
M  END
>  <i_m_ct_stereo_status>  (350) 
1

>  <s_m_source_file>  (350) 
/var/tmp/pbs.5076255.sched01/tmp0i_w_vt9/132llf9lao3.sdf

>  <i_m_source_file_index>  (350) 
13

>  <i_lp_mmshare_version>  (350) 
48012

>  <i_f3d_flags>  (350) 
0

>  <s_epik_input>  (350) 
W09IXVtDQEhdMVtDQEBIXShbQ0gzXSlbQ0gyXVtDQEBIXShbT0hdKVtDQF0oW0NIM10pKFtDQEBIXShbT0hdKVtDQEhdMltDQEhdKFtDSDNdKVtDSDJdMylbQ0BAXTEoW09IXSlbQ0BIXShbT0hdKVtDQEBdKFtPSF0pKFtDSF0zW0NAQF0yNFtPSF0pW0NASF0oW09IXSlbQ0BASF00W0NIM10=

>  <s_epik_cmdline>  (350) 
J2VwaWtfcHl0aG9uJywgJy1waHQnLCAnMi4wJywgJy1waCcsICc3LjAnLCAnLXRuJywgJzgnLCAnLW1hJywgJzIwMCcsICctaW1hZScsICc8aW5maWxlLm1hZT4nLCAnLW9tYWUnLCAnPG91dGZpbGUubWFlPic=

>  <r_lp_tautomer_probability>  (350) 
1

>  <r_epik_Ionization_Penalty>  (350) 
3.40664e-06

>  <r_epik_Ionization_Penalty_Charging>  (350) 
0

>  <r_epik_Ionization_Penalty_Neutral>  (350) 
3.40664e-06

>  <r_epik_State_Penalty>  (350) 
-0

>  <r_epik_Charging_Adjusted_Penalty>  (350) 
0

>  <i_epik_Tot_Q>  (350) 
0

>  <i_epik_Tot_abs_Q>  (350) 
0

>  <s_lp_Force_Field>  (350) 
OPLS3e

>  <r_lp_Energy>  (350) 
149.715

>  <b_lp_Chiralities_Consistent>  (350) 
1

>  <s_lp_Variant>  (350) 
98:0-1

>  <s_i_glide_gridfile>  (350) 
pfpi4k_grid

>  <i_i_glide_lignum>  (350) 
13

>  <i_i_glide_rotatable_bonds>  (350) 
8

>  <r_i_docking_score>  (350) 
-4.41386

>  <r_i_glide_ligand_efficiency>  (350) 
-0.157638

>  <r_i_glide_ligand_efficiency_sa>  (350) 
-0.478681

>  <r_i_glide_ligand_efficiency_ln>  (350) 
-1.01885

>  <r_i_glide_gscore>  (350) 
-4.41386

>  <r_i_glide_lipo>  (350) 
-0.743542

>  <r_i_glide_hbond>  (350) 
0

>  <r_i_glide_metal>  (350) 
-0

>  <r_i_glide_rewards>  (350) 
-1.16491

>  <r_i_glide_evdw>  (350) 
4.62875

>  <r_i_glide_ecoul>  (350) 
-18.2456

>  <r_i_glide_erotb>  (350) 
0

>  <r_i_glide_esite>  (350) 
0

>  <r_i_glide_emodel>  (350) 
-19.76

>  <r_i_glide_energy>  (350) 
-13.6168

>  <r_i_glide_einternal>  (350) 
0.782444

>  <r_i_glide_intrahb_reward>  (350) 
-0.5

>  <i_i_glide_confnum>  (350) 
2

>  <i_i_glide_posenum>  (350) 
17

>  <r_i_glide_eff_state_penalty>  (350) 
0

>  <ligand_id>  (350) 
98

>  <original_smiles>  (350) 
CC1CC2C3(O)C(C)C(O)C2(O)C(O)C2(O)C(O)C(C)CC(O)C2(C)C(O)C13

>  <smiles>  (350) 
[H]OC1([H])C([H])(C([H])([H])[H])C2(O[H])C3([H])C([H])(O[H])C4(C([H])([H])[H])C([H])(O[H])C([H])([H])C([H])(C([H])([H])[H])C([H])(O[H])C4(O[H])C([H])(O[H])C1(O[H])C2([H])C([H])([H])C3([H])C([H])([H])[H]

$$$$
98:0:2
     RDKit          3D

 62 65  0  0  1  0  0  0  0  0999 V2000
    0.5682   -2.5303    3.9895 C   0  0  0  0  0  0  0  0  0  0  0  0
    1.4095   -3.6633    4.5961 C   0  0  2  0  0  0  0  0  0  0  0  0
    2.5666   -3.1095    5.4710 C   0  0  0  0  0  0  0  0  0  0  0  0
    3.7637   -4.0901    5.2502 C   0  0  1  0  0  0  0  0  0  0  0  0
    3.1779   -5.3494    4.6360 C   0  0  2  0  0  0  0  0  0  0  0  0
    2.4197   -6.1156    5.5490 O   0  0  0  0  0  0  0  0  0  0  0  0
    4.4387   -6.1695    4.2827 C   0  0  1  0  0  0  0  0  0  0  0  0
    4.3092   -7.4344    3.4037 C   0  0  0  0  0  0  0  0  0  0  0  0
    5.5958   -5.1690    4.1096 C   0  0  1  0  0  0  0  0  0  0  0  0
    6.4107   -5.4577    2.9997 O   0  0  0  0  0  0  0  0  0  0  0  0
    4.9506   -3.7494    4.2461 C   0  0  2  0  0  0  0  0  0  0  0  0
    5.7617   -2.9832    5.1344 O   0  0  0  0  0  0  0  0  0  0  0  0
    4.7889   -2.8511    2.8790 C   0  0  1  0  0  0  0  0  0  0  0  0
    6.1062   -2.6164    2.4687 O   0  0  0  0  0  0  0  0  0  0  0  0
    3.9044   -3.0286    1.4983 C   0  0  1  0  0  0  0  0  0  0  0  0
    2.8993   -2.0486    1.7257 O   0  0  0  0  0  0  0  0  0  0  0  0
    4.6260   -2.3849    0.2299 C   0  0  1  0  0  0  0  0  0  0  0  0
    5.7599   -3.0886   -0.2439 O   0  0  0  0  0  0  0  0  0  0  0  0
    3.7263   -2.1581   -0.9979 C   0  0  1  0  0  0  0  0  0  0  0  0
    4.4289   -1.4912   -2.1864 C   0  0  0  0  0  0  0  0  0  0  0  0
    3.0141   -3.4517   -1.4009 C   0  0  0  0  0  0  0  0  0  0  0  0
    2.2225   -4.0296   -0.2190 C   0  0  1  0  0  0  0  0  0  0  0  0
    1.4380   -5.0943   -0.7184 O   0  0  0  0  0  0  0  0  0  0  0  0
    3.0567   -4.3735    1.0958 C   0  0  1  0  0  0  0  0  0  0  0  0
    4.0232   -5.5000    0.6707 C   0  0  0  0  0  0  0  0  0  0  0  0
    2.0039   -4.9130    2.2052 C   0  0  1  0  0  0  0  0  0  0  0  0
    1.5543   -6.2481    2.0537 O   0  0  0  0  0  0  0  0  0  0  0  0
    2.2358   -4.5920    3.6770 C   0  0  1  0  0  0  0  0  0  0  0  0
    1.1586   -1.7790    3.4743 H   0  0  0  0  0  0  0  0  0  0  0  0
   -0.0002   -2.0107    4.7582 H   0  0  0  0  0  0  0  0  0  0  0  0
   -0.1709   -2.9197    3.2836 H   0  0  0  0  0  0  0  0  0  0  0  0
    0.7432   -4.2751    5.2026 H   0  0  0  0  0  0  0  0  0  0  0  0
    2.8533   -2.0938    5.1942 H   0  0  0  0  0  0  0  0  0  0  0  0
    2.2538   -3.0946    6.5132 H   0  0  0  0  0  0  0  0  0  0  0  0
    4.1641   -4.3619    6.2298 H   0  0  0  0  0  0  0  0  0  0  0  0
    2.1072   -6.8908    5.0947 H   0  0  0  0  0  0  0  0  0  0  0  0
    4.7026   -6.6330    5.2361 H   0  0  0  0  0  0  0  0  0  0  0  0
    3.8149   -7.2900    2.4564 H   0  0  0  0  0  0  0  0  0  0  0  0
    3.7238   -8.1927    3.9236 H   0  0  0  0  0  0  0  0  0  0  0  0
    5.2837   -7.8764    3.1920 H   0  0  0  0  0  0  0  0  0  0  0  0
    6.2554   -5.3099    4.9748 H   0  0  0  0  0  0  0  0  0  0  0  0
    6.8590   -6.2861    3.1606 H   0  0  0  0  0  0  0  0  0  0  0  0
    5.9163   -3.4953    5.9227 H   0  0  0  0  0  0  0  0  0  0  0  0
    4.5205   -1.8648    3.2692 H   0  0  0  0  0  0  0  0  0  0  0  0
    6.1149   -1.8823    1.8724 H   0  0  0  0  0  0  0  0  0  0  0  0
    2.4519   -1.8399    0.9137 H   0  0  0  0  0  0  0  0  0  0  0  0
    4.9941   -1.3932    0.5105 H   0  0  0  0  0  0  0  0  0  0  0  0
    5.4918   -3.9764   -0.4566 H   0  0  0  0  0  0  0  0  0  0  0  0
    2.9780   -1.4286   -0.7097 H   0  0  0  0  0  0  0  0  0  0  0  0
    5.1900   -2.1374   -2.6271 H   0  0  0  0  0  0  0  0  0  0  0  0
    4.9003   -0.5566   -1.8762 H   0  0  0  0  0  0  0  0  0  0  0  0
    3.7008   -1.2493   -2.9619 H   0  0  0  0  0  0  0  0  0  0  0  0
    2.3042   -3.2252   -2.2001 H   0  0  0  0  0  0  0  0  0  0  0  0
    3.7293   -4.1600   -1.8241 H   0  0  0  0  0  0  0  0  0  0  0  0
    1.5415   -3.2162    0.0024 H   0  0  0  0  0  0  0  0  0  0  0  0
    2.0071   -5.5714   -1.3485 H   0  0  0  0  0  0  0  0  0  0  0  0
    3.5152   -6.4432    0.4568 H   0  0  0  0  0  0  0  0  0  0  0  0
    4.7581   -5.6801    1.4263 H   0  0  0  0  0  0  0  0  0  0  0  0
    4.5946   -5.2892   -0.2230 H   0  0  0  0  0  0  0  0  0  0  0  0
    1.0909   -4.3593    2.0722 H   0  0  0  0  0  0  0  0  0  0  0  0
    2.2815   -6.8325    2.2461 H   0  0  0  0  0  0  0  0  0  0  0  0
    2.7085   -3.7257    3.3394 H   0  0  0  0  0  0  0  0  0  0  0  0
  1  2  1  0
  1 29  1  0
  1 30  1  0
  1 31  1  0
  2 28  1  0
  2  3  1  0
  2 32  1  1
  3  4  1  0
  3 33  1  0
  3 34  1  0
  4 11  1  0
  4  5  1  0
  4 35  1  1
  5 28  1  0
  5  6  1  1
  5  7  1  0
  6 36  1  0
  7  8  1  0
  7  9  1  0
  7 37  1  1
  8 38  1  0
  8 39  1  0
  8 40  1  0
  9 10  1  0
  9 11  1  0
  9 41  1  1
 10 42  1  0
 11 12  1  1
 11 13  1  0
 12 43  1  0
 13 14  1  0
 13 15  1  0
 13 44  1  1
 14 45  1  0
 15 24  1  0
 15 16  1  1
 15 17  1  0
 16 46  1  0
 17 18  1  0
 17 19  1  0
 17 47  1  1
 18 48  1  0
 19 20  1  0
 19 21  1  0
 19 49  1  1
 20 50  1  0
 20 51  1  0
 20 52  1  0
 21 22  1  0
 21 53  1  0
 21 54  1  0
 22 23  1  0
 22 24  1  0
 22 55  1  1
 23 56  1  0
 24 25  1  6
 24 26  1  0
 25 57  1  0
 25 58  1  0
 25 59  1  0
 26 27  1  0
 26 28  1  0
 26 60  1  6
 27 61  1  0
 28 62  1  6
M  END
>  <i_m_ct_stereo_status>  (351) 
1

>  <s_m_source_file>  (351) 
/var/tmp/pbs.5076255.sched01/tmp0i_w_vt9/132llf9lao3.sdf

>  <i_m_source_file_index>  (351) 
13

>  <i_lp_mmshare_version>  (351) 
48012

>  <i_f3d_flags>  (351) 
0

>  <s_epik_input>  (351) 
W09IXVtDQEhdMVtDQEBIXShbQ0gzXSlbQ0gyXVtDQEBIXShbT0hdKVtDQF0oW0NIM10pKFtDQEBIXShbT0hdKVtDQEhdMltDQEhdKFtDSDNdKVtDSDJdMylbQ0BAXTEoW09IXSlbQ0BIXShbT0hdKVtDQEBdKFtPSF0pKFtDSF0zW0NAQF0yNFtPSF0pW0NASF0oW09IXSlbQ0BASF00W0NIM10=

>  <s_epik_cmdline>  (351) 
J2VwaWtfcHl0aG9uJywgJy1waHQnLCAnMi4wJywgJy1waCcsICc3LjAnLCAnLXRuJywgJzgnLCAnLW1hJywgJzIwMCcsICctaW1hZScsICc8aW5maWxlLm1hZT4nLCAnLW9tYWUnLCAnPG91dGZpbGUubWFlPic=

>  <r_lp_tautomer_probability>  (351) 
1

>  <r_epik_Ionization_Penalty>  (351) 
3.40664e-06

>  <r_epik_Ionization_Penalty_Charging>  (351) 
0

>  <r_epik_Ionization_Penalty_Neutral>  (351) 
3.40664e-06

>  <r_epik_State_Penalty>  (351) 
-0

>  <r_epik_Charging_Adjusted_Penalty>  (351) 
0

>  <i_epik_Tot_Q>  (351) 
0

>  <i_epik_Tot_abs_Q>  (351) 
0

>  <s_lp_Force_Field>  (351) 
OPLS3e

>  <r_lp_Energy>  (351) 
149.715

>  <b_lp_Chiralities_Consistent>  (351) 
1

>  <s_lp_Variant>  (351) 
98:0-1

>  <s_i_glide_gridfile>  (351) 
pfpi4k_grid

>  <i_i_glide_lignum>  (351) 
13

>  <i_i_glide_rotatable_bonds>  (351) 
8

>  <r_i_docking_score>  (351) 
-2.98733

>  <r_i_glide_ligand_efficiency>  (351) 
-0.10669

>  <r_i_glide_ligand_efficiency_sa>  (351) 
-0.323975

>  <r_i_glide_ligand_efficiency_ln>  (351) 
-0.689563

>  <r_i_glide_gscore>  (351) 
-2.98733

>  <r_i_glide_lipo>  (351) 
-0.25016

>  <r_i_glide_hbond>  (351) 
0

>  <r_i_glide_metal>  (351) 
-0

>  <r_i_glide_rewards>  (351) 
-0.664915

>  <r_i_glide_evdw>  (351) 
-7.03746

>  <r_i_glide_ecoul>  (351) 
-11.4692

>  <r_i_glide_erotb>  (351) 
0

>  <r_i_glide_esite>  (351) 
0

>  <r_i_glide_emodel>  (351) 
-19.1658

>  <r_i_glide_energy>  (351) 
-18.5067

>  <r_i_glide_einternal>  (351) 
1.46069

>  <r_i_glide_intrahb_reward>  (351) 
-0

>  <i_i_glide_confnum>  (351) 
1

>  <i_i_glide_posenum>  (351) 
28

>  <r_i_glide_eff_state_penalty>  (351) 
0

>  <ligand_id>  (351) 
98

>  <original_smiles>  (351) 
CC1CC2C3(O)C(C)C(O)C2(O)C(O)C2(O)C(O)C(C)CC(O)C2(C)C(O)C13

>  <smiles>  (351) 
[H]OC1([H])C([H])(C([H])([H])[H])C2(O[H])C3([H])C([H])(O[H])C4(C([H])([H])[H])C([H])(O[H])C([H])([H])C([H])(C([H])([H])[H])C([H])(O[H])C4(O[H])C([H])(O[H])C1(O[H])C2([H])C([H])([H])C3([H])C([H])([H])[H]

$$$$
99:0:0
     RDKit          3D

 72 78  0  0  1  0  0  0  0  0999 V2000
    2.6501   -5.2284    0.4875 C   0  0  0  0  0  0  0  0  0  0  0  0
    2.7761   -5.3330    2.0204 C   0  0  0  0  0  0  0  0  0  0  0  0
    1.5494   -6.0792    2.5956 C   0  0  0  0  0  0  0  0  0  0  0  0
    3.0623   -4.0428    2.8102 C   0  0  2  0  0  0  0  0  0  0  0  0
    2.2913   -2.7846    2.4599 C   0  0  1  0  0  0  0  0  0  0  0  0
    1.0401   -2.6165    3.3141 C   0  0  0  0  0  0  0  0  0  0  0  0
    3.5713   -1.9330    2.6931 C   0  0  2  0  0  0  0  0  0  0  0  0
    4.3474   -3.2256    2.8541 C   0  0  1  0  0  0  0  0  0  0  0  0
    3.9742   -4.1025    4.0194 C   0  0  1  0  0  0  0  0  0  0  0  0
    3.5038   -3.3176    5.0907 O   0  0  0  0  0  0  0  0  0  0  0  0
    4.1168   -2.0236    5.1937 C   0  0  2  0  0  0  0  0  0  0  0  0
    3.8537   -1.5253    6.6058 C   0  0  0  0  0  0  0  0  0  0  0  0
    3.4531   -0.0650    6.6842 C   0  0  0  0  0  0  0  0  0  0  0  0
    2.2685    0.2666    5.7510 C   0  0  2  0  0  0  0  0  0  0  0  0
    2.6265   -0.0240    4.2480 C   0  0  0  0  0  0  0  0  0  0  0  0
    2.0552    0.5241    3.1234 C   0  0  0  0  0  0  0  0  0  0  0  0
    0.9207    1.4971    2.7508 C   0  0  0  0  0  0  0  0  0  0  0  0
   -0.3034    1.7631    3.6671 C   0  0  1  0  0  0  0  0  0  0  0  0
   -1.4818    1.9488    2.7089 C   0  0  0  0  0  0  0  0  0  0  0  0
   -0.5531    0.7540    4.7638 C   0  0  0  0  0  0  0  0  0  0  0  0
    0.0735    1.6974    5.8039 C   0  0  1  0  0  0  0  0  0  0  0  0
   -0.8160    1.7283    7.0379 C   0  0  0  0  0  0  0  0  0  0  0  0
   -1.7170    0.9498    7.3391 O   0  0  0  0  0  0  0  0  0  0  0  0
    1.6147    1.6622    6.1229 C   0  0  1  0  0  0  0  0  0  0  0  0
    1.9333    2.1478    7.5763 C   0  0  0  0  0  0  0  0  0  0  0  0
    2.1666    2.8277    5.2808 C   0  0  0  0  0  0  0  0  0  0  0  0
    3.3466    3.0193    5.0854 O   0  0  0  0  0  0  0  0  0  0  0  0
    1.0599    3.7445    4.7670 C   0  0  0  0  0  0  0  0  0  0  0  0
   -0.1747    2.8493    4.7953 C   0  0  1  0  0  0  0  0  0  0  0  0
   -1.3756    3.7987    4.9899 C   0  0  0  0  0  0  0  0  0  0  0  0
    3.7890   -1.0506    3.9881 C   0  0  2  0  0  0  0  0  0  0  0  0
    5.0559   -0.1843    3.7501 C   0  0  0  0  0  0  0  0  0  0  0  0
    1.8135   -4.6105    0.1694 H   0  0  0  0  0  0  0  0  0  0  0  0
    2.4821   -6.2176    0.0585 H   0  0  0  0  0  0  0  0  0  0  0  0
    3.5631   -4.8443    0.0351 H   0  0  0  0  0  0  0  0  0  0  0  0
    3.6225   -6.0032    2.1948 H   0  0  0  0  0  0  0  0  0  0  0  0
    0.6200   -5.5327    2.4302 H   0  0  0  0  0  0  0  0  0  0  0  0
    1.6538   -6.2443    3.6719 H   0  0  0  0  0  0  0  0  0  0  0  0
    1.4224   -7.0639    2.1372 H   0  0  0  0  0  0  0  0  0  0  0  0
    2.0720   -2.7154    1.3931 H   0  0  0  0  0  0  0  0  0  0  0  0
    1.2820   -2.5321    4.3700 H   0  0  0  0  0  0  0  0  0  0  0  0
    0.3600   -3.4489    3.2245 H   0  0  0  0  0  0  0  0  0  0  0  0
    0.4982   -1.7201    3.0278 H   0  0  0  0  0  0  0  0  0  0  0  0
    3.8527   -1.4305    1.7569 H   0  0  0  0  0  0  0  0  0  0  0  0
    5.1404   -3.4645    2.1554 H   0  0  0  0  0  0  0  0  0  0  0  0
    4.5774   -4.9765    4.2511 H   0  0  0  0  0  0  0  0  0  0  0  0
    5.1873   -2.2284    5.1476 H   0  0  0  0  0  0  0  0  0  0  0  0
    3.0612   -2.1336    7.0433 H   0  0  0  0  0  0  0  0  0  0  0  0
    4.7403   -1.7002    7.2178 H   0  0  0  0  0  0  0  0  0  0  0  0
    3.1907    0.0455    7.7336 H   0  0  0  0  0  0  0  0  0  0  0  0
    4.3007    0.5935    6.5124 H   0  0  0  0  0  0  0  0  0  0  0  0
    1.5358   -0.5010    6.0125 H   0  0  0  0  0  0  0  0  0  0  0  0
    2.5275    0.2452    2.1950 H   0  0  0  0  0  0  0  0  0  0  0  0
    1.3740    2.4352    2.4299 H   0  0  0  0  0  0  0  0  0  0  0  0
    0.5646    1.0751    1.8077 H   0  0  0  0  0  0  0  0  0  0  0  0
   -2.4285    2.0580    3.2435 H   0  0  0  0  0  0  0  0  0  0  0  0
   -1.6260    1.0948    2.0452 H   0  0  0  0  0  0  0  0  0  0  0  0
   -1.3671    2.8403    2.0879 H   0  0  0  0  0  0  0  0  0  0  0  0
   -1.6282    0.6067    4.8887 H   0  0  0  0  0  0  0  0  0  0  0  0
   -0.0767   -0.2086    4.6200 H   0  0  0  0  0  0  0  0  0  0  0  0
   -0.6306    2.5514    7.7370 H   0  0  0  0  0  0  0  0  0  0  0  0
    1.5852    1.4627    8.3491 H   0  0  0  0  0  0  0  0  0  0  0  0
    1.4939    3.1244    7.7842 H   0  0  0  0  0  0  0  0  0  0  0  0
    3.0000    2.3010    7.7319 H   0  0  0  0  0  0  0  0  0  0  0  0
    0.9933    4.5881    5.4516 H   0  0  0  0  0  0  0  0  0  0  0  0
    1.3091    4.1318    3.7786 H   0  0  0  0  0  0  0  0  0  0  0  0
   -1.2509    4.4473    5.8584 H   0  0  0  0  0  0  0  0  0  0  0  0
   -2.3100    3.2586    5.1304 H   0  0  0  0  0  0  0  0  0  0  0  0
   -1.5015    4.4463    4.1230 H   0  0  0  0  0  0  0  0  0  0  0  0
    5.9374   -0.7804    3.5099 H   0  0  0  0  0  0  0  0  0  0  0  0
    5.3144    0.4225    4.6177 H   0  0  0  0  0  0  0  0  0  0  0  0
    4.9142    0.5206    2.9276 H   0  0  0  0  0  0  0  0  0  0  0  0
  1  2  1  0
  1 33  1  0
  1 34  1  0
  1 35  1  0
  2  3  1  0
  4  2  1  6
  2 36  1  0
  3 37  1  0
  3 38  1  0
  3 39  1  0
  4  8  1  0
  4  9  1  0
  4  5  1  0
  5  6  1  0
  5  7  1  0
  5 40  1  6
  6 41  1  0
  6 42  1  0
  6 43  1  0
  7 31  1  0
  7  8  1  0
  7 44  1  6
  8  9  1  0
  8 45  1  6
  9 10  1  0
  9 46  1  1
 10 11  1  0
 11 31  1  0
 11 12  1  0
 11 47  1  1
 12 13  1  0
 12 48  1  0
 12 49  1  0
 13 14  1  0
 13 50  1  0
 13 51  1  0
 14 24  1  0
 14 15  1  0
 14 52  1  1
 15 16  2  3
 15 31  1  0
 16 17  1  0
 16 53  1  0
 17 18  1  0
 17 54  1  0
 17 55  1  0
 18 29  1  0
 18 19  1  6
 18 20  1  0
 19 56  1  0
 19 57  1  0
 19 58  1  0
 20 21  1  0
 20 59  1  0
 20 60  1  0
 21 29  1  0
 21 22  1  1
 21 24  1  0
 22 23  2  0
 22 61  1  0
 24 25  1  1
 24 26  1  0
 25 62  1  0
 25 63  1  0
 25 64  1  0
 26 27  2  0
 26 28  1  0
 28 29  1  0
 28 65  1  0
 28 66  1  0
 29 30  1  1
 30 67  1  0
 30 68  1  0
 30 69  1  0
 31 32  1  6
 32 70  1  0
 32 71  1  0
 32 72  1  0
M  END
>  <i_m_ct_stereo_status>  (352) 
1

>  <s_m_source_file>  (352) 
/var/tmp/pbs.5076255.sched01/tmp0i_w_vt9/132llf9lao3.sdf

>  <i_m_source_file_index>  (352) 
14

>  <i_lp_mmshare_version>  (352) 
48012

>  <i_f3d_flags>  (352) 
0

>  <s_epik_input>  (352) 
W0NIM11bQ0hdKFtDSDNdKVtDQEBdMTJbQ0BIXTNbQ0BASF0oW0NAQEhdMVtDSDNdKVtDQF00KFtDSDNdKVtDQEhdKE9bQ0BASF0yMylbQ0gyXVtDSDJdW0NAQEhdNS9DND1bQ0hdXFtDSDJdW0NAXTYoW0NIM10pW0NAQF03KFtDSDNdKVtDQF0oW0NIMl02KShbQ0hdPU8pW0NAXTUoW0NIM10pQyg9TylbQ0gyXTc=

>  <s_epik_cmdline>  (352) 
J2VwaWtfcHl0aG9uJywgJy1waHQnLCAnMi4wJywgJy1waCcsICc3LjAnLCAnLXRuJywgJzgnLCAnLW1hJywgJzIwMCcsICctaW1hZScsICc8aW5maWxlLm1hZT4nLCAnLW9tYWUnLCAnPG91dGZpbGUubWFlPic=

>  <r_lp_tautomer_probability>  (352) 
1

>  <r_epik_Ionization_Penalty>  (352) 
5.88605e-11

>  <r_epik_Ionization_Penalty_Charging>  (352) 
0

>  <r_epik_Ionization_Penalty_Neutral>  (352) 
5.88605e-11

>  <r_epik_State_Penalty>  (352) 
-0

>  <r_epik_Charging_Adjusted_Penalty>  (352) 
0

>  <i_epik_Tot_Q>  (352) 
0

>  <i_epik_Tot_abs_Q>  (352) 
0

>  <s_lp_Force_Field>  (352) 
OPLS3e

>  <r_lp_Energy>  (352) 
99.1735

>  <b_lp_Chiralities_Consistent>  (352) 
1

>  <s_lp_Variant>  (352) 
99:0-1

>  <s_i_glide_gridfile>  (352) 
pfpi4k_grid

>  <i_i_glide_lignum>  (352) 
14

>  <i_i_glide_rotatable_bonds>  (352) 
2

>  <r_i_docking_score>  (352) 
-2.23569

>  <r_i_glide_ligand_efficiency>  (352) 
-0.0698652

>  <r_i_glide_ligand_efficiency_sa>  (352) 
-0.221808

>  <r_i_glide_ligand_efficiency_ln>  (352) 
-0.500631

>  <r_i_glide_gscore>  (352) 
-2.23569

>  <r_i_glide_lipo>  (352) 
-0.180567

>  <r_i_glide_hbond>  (352) 
-0.16

>  <r_i_glide_metal>  (352) 
-0

>  <r_i_glide_rewards>  (352) 
-0.432095

>  <r_i_glide_evdw>  (352) 
-19.2201

>  <r_i_glide_ecoul>  (352) 
-3.23794

>  <r_i_glide_erotb>  (352) 
0

>  <r_i_glide_esite>  (352) 
-0.0163301

>  <r_i_glide_emodel>  (352) 
-25.0174

>  <r_i_glide_energy>  (352) 
-22.458

>  <r_i_glide_einternal>  (352) 
0.19787

>  <r_i_glide_intrahb_reward>  (352) 
-0

>  <i_i_glide_confnum>  (352) 
1

>  <i_i_glide_posenum>  (352) 
1

>  <r_i_glide_eff_state_penalty>  (352) 
0

>  <ligand_id>  (352) 
99

>  <original_smiles>  (352) 
CC(C)C12C(C)C3C1C2OC1CCC2C(=CCC4(C)CC5(C=O)C2(C)C(=O)CC45C)C13C

>  <smiles>  (352) 
[H]C(=O)C12C([H])([H])C3(C([H])([H])[H])C([H])([H])C([H])=C4C([H])(C([H])([H])C([H])([H])C5([H])OC6([H])C7([H])C([H])(C([H])(C([H])([H])[H])C67C([H])(C([H])([H])[H])C([H])([H])[H])C45C([H])([H])[H])C1(C([H])([H])[H])C(=O)C([H])([H])C23C([H])([H])[H]

$$$$
99:0:1
     RDKit          3D

 72 78  0  0  1  0  0  0  0  0999 V2000
    1.9308   -6.1833    2.1354 C   0  0  0  0  0  0  0  0  0  0  0  0
    3.0768   -5.3900    1.4681 C   0  0  0  0  0  0  0  0  0  0  0  0
    4.2552   -6.3740    1.2588 C   0  0  0  0  0  0  0  0  0  0  0  0
    3.4262   -4.1458    2.2916 C   0  0  2  0  0  0  0  0  0  0  0  0
    2.5829   -2.9170    2.0051 C   0  0  1  0  0  0  0  0  0  0  0  0
    1.3894   -2.7763    2.9515 C   0  0  0  0  0  0  0  0  0  0  0  0
    3.8353   -2.0150    2.1421 C   0  0  2  0  0  0  0  0  0  0  0  0
    4.6609   -3.2766    2.2115 C   0  0  1  0  0  0  0  0  0  0  0  0
    4.4395   -4.1915    3.4082 C   0  0  1  0  0  0  0  0  0  0  0  0
    4.0276   -3.4477    4.5360 O   0  0  0  0  0  0  0  0  0  0  0  0
    4.5908   -2.1300    4.5823 C   0  0  2  0  0  0  0  0  0  0  0  0
    4.4546   -1.6703    6.0180 C   0  0  0  0  0  0  0  0  0  0  0  0
    4.0296   -0.2237    6.1627 C   0  0  0  0  0  0  0  0  0  0  0  0
    2.7547    0.0934    5.3483 C   0  0  2  0  0  0  0  0  0  0  0  0
    2.9850   -0.1593    3.8134 C   0  0  0  0  0  0  0  0  0  0  0  0
    2.2985    0.3956    2.7519 C   0  0  0  0  0  0  0  0  0  0  0  0
    1.1114    1.3344    2.5048 C   0  0  0  0  0  0  0  0  0  0  0  0
   -0.0247    1.5550    3.5333 C   0  0  1  0  0  0  0  0  0  0  0  0
   -1.2837    1.7303    2.6864 C   0  0  0  0  0  0  0  0  0  0  0  0
   -0.1552    0.5228    4.6273 C   0  0  0  0  0  0  0  0  0  0  0  0
    0.5393    1.4513    5.6196 C   0  0  1  0  0  0  0  0  0  0  0  0
   -0.2259    1.4283    6.9289 C   0  0  0  0  0  0  0  0  0  0  0  0
   -0.9812    0.5392    7.3622 O   0  0  0  0  0  0  0  0  0  0  0  0
    2.0936    1.4514    5.8120 C   0  0  1  0  0  0  0  0  0  0  0  0
    2.5313    1.9085    7.2432 C   0  0  0  0  0  0  0  0  0  0  0  0
    2.5341    2.6570    4.9592 C   0  0  0  0  0  0  0  0  0  0  0  0
    3.6830    2.9144    4.6897 O   0  0  0  0  0  0  0  0  0  0  0  0
    1.3655    3.5525    4.5566 C   0  0  0  0  0  0  0  0  0  0  0  0
    0.1710    2.6193    4.6760 C   0  0  1  0  0  0  0  0  0  0  0  0
   -1.0271    3.5295    5.0037 C   0  0  0  0  0  0  0  0  0  0  0  0
    4.1424   -1.1522    3.4276 C   0  0  2  0  0  0  0  0  0  0  0  0
    5.3633   -0.2684    3.0944 C   0  0  0  0  0  0  0  0  0  0  0  0
    2.2070   -6.4573    3.1596 H   0  0  0  0  0  0  0  0  0  0  0  0
    1.6993   -7.1144    1.6128 H   0  0  0  0  0  0  0  0  0  0  0  0
    1.0030   -5.6239    2.1889 H   0  0  0  0  0  0  0  0  0  0  0  0
    2.7422   -5.0750    0.4792 H   0  0  0  0  0  0  0  0  0  0  0  0
    4.6376   -6.7524    2.2129 H   0  0  0  0  0  0  0  0  0  0  0  0
    5.0793   -5.9285    0.7027 H   0  0  0  0  0  0  0  0  0  0  0  0
    3.9380   -7.2628    0.7113 H   0  0  0  0  0  0  0  0  0  0  0  0
    2.3026   -2.8637    0.9508 H   0  0  0  0  0  0  0  0  0  0  0  0
    1.7234   -2.7084    3.9874 H   0  0  0  0  0  0  0  0  0  0  0  0
    0.6979   -3.6003    2.9004 H   0  0  0  0  0  0  0  0  0  0  0  0
    0.8082   -1.8783    2.7398 H   0  0  0  0  0  0  0  0  0  0  0  0
    4.0126   -1.5059    1.1835 H   0  0  0  0  0  0  0  0  0  0  0  0
    5.3263   -3.4680    1.3822 H   0  0  0  0  0  0  0  0  0  0  0  0
    5.1022   -5.0362    3.5765 H   0  0  0  0  0  0  0  0  0  0  0  0
    5.6527   -2.2997    4.4324 H   0  0  0  0  0  0  0  0  0  0  0  0
    3.7107   -2.3065    6.5082 H   0  0  0  0  0  0  0  0  0  0  0  0
    5.4013   -1.8357    6.5410 H   0  0  0  0  0  0  0  0  0  0  0  0
    3.8629   -0.1464    7.2335 H   0  0  0  0  0  0  0  0  0  0  0  0
    4.8453    0.4573    5.9217 H   0  0  0  0  0  0  0  0  0  0  0  0
    2.0854   -0.7094    5.6520 H   0  0  0  0  0  0  0  0  0  0  0  0
    2.6868    0.1444    1.7805 H   0  0  0  0  0  0  0  0  0  0  0  0
    1.5056    2.2952    2.1840 H   0  0  0  0  0  0  0  0  0  0  0  0
    0.6835    0.9441    1.5860 H   0  0  0  0  0  0  0  0  0  0  0  0
   -2.1782    1.7922    3.3078 H   0  0  0  0  0  0  0  0  0  0  0  0
   -1.4558    0.8859    2.0137 H   0  0  0  0  0  0  0  0  0  0  0  0
   -1.2380    2.6335    2.0813 H   0  0  0  0  0  0  0  0  0  0  0  0
   -1.2054    0.3806    4.8762 H   0  0  0  0  0  0  0  0  0  0  0  0
    0.3306   -0.4323    4.4268 H   0  0  0  0  0  0  0  0  0  0  0  0
   -0.0818    2.3324    7.5493 H   0  0  0  0  0  0  0  0  0  0  0  0
    2.2781    1.2017    8.0342 H   0  0  0  0  0  0  0  0  0  0  0  0
    2.0852    2.8688    7.4972 H   0  0  0  0  0  0  0  0  0  0  0  0
    3.6046    2.1017    7.3057 H   0  0  0  0  0  0  0  0  0  0  0  0
    1.3365    4.3845    5.2545 H   0  0  0  0  0  0  0  0  0  0  0  0
    1.5172    3.9671    3.5531 H   0  0  0  0  0  0  0  0  0  0  0  0
   -0.8414    4.1750    5.8711 H   0  0  0  0  0  0  0  0  0  0  0  0
   -1.9280    2.9666    5.2118 H   0  0  0  0  0  0  0  0  0  0  0  0
   -1.2407    4.1911    4.1634 H   0  0  0  0  0  0  0  0  0  0  0  0
    6.2378   -0.8310    2.7655 H   0  0  0  0  0  0  0  0  0  0  0  0
    5.6806    0.3455    3.9431 H   0  0  0  0  0  0  0  0  0  0  0  0
    5.1132    0.4389    2.2977 H   0  0  0  0  0  0  0  0  0  0  0  0
  1  2  1  0
  1 33  1  0
  1 34  1  0
  1 35  1  0
  2  3  1  0
  4  2  1  6
  2 36  1  0
  3 37  1  0
  3 38  1  0
  3 39  1  0
  4  8  1  0
  4  9  1  0
  4  5  1  0
  5  6  1  0
  5  7  1  0
  5 40  1  6
  6 41  1  0
  6 42  1  0
  6 43  1  0
  7 31  1  0
  7  8  1  0
  7 44  1  6
  8  9  1  0
  8 45  1  6
  9 10  1  0
  9 46  1  1
 10 11  1  0
 11 31  1  0
 11 12  1  0
 11 47  1  6
 12 13  1  0
 12 48  1  0
 12 49  1  0
 13 14  1  0
 13 50  1  0
 13 51  1  0
 14 24  1  0
 14 15  1  0
 14 52  1  1
 15 16  2  3
 15 31  1  0
 16 17  1  0
 16 53  1  0
 17 18  1  0
 17 54  1  0
 17 55  1  0
 18 29  1  0
 18 19  1  6
 18 20  1  0
 19 56  1  0
 19 57  1  0
 19 58  1  0
 20 21  1  0
 20 59  1  0
 20 60  1  0
 21 29  1  0
 21 22  1  1
 21 24  1  0
 22 23  2  0
 22 61  1  0
 24 25  1  1
 24 26  1  0
 25 62  1  0
 25 63  1  0
 25 64  1  0
 26 27  2  0
 26 28  1  0
 28 29  1  0
 28 65  1  0
 28 66  1  0
 29 30  1  1
 30 67  1  0
 30 68  1  0
 30 69  1  0
 31 32  1  6
 32 70  1  0
 32 71  1  0
 32 72  1  0
M  END
>  <i_m_ct_stereo_status>  (353) 
1

>  <s_m_source_file>  (353) 
/var/tmp/pbs.5076255.sched01/tmp0i_w_vt9/132llf9lao3.sdf

>  <i_m_source_file_index>  (353) 
14

>  <i_lp_mmshare_version>  (353) 
48012

>  <i_f3d_flags>  (353) 
0

>  <s_epik_input>  (353) 
W0NIM11bQ0hdKFtDSDNdKVtDQEBdMTJbQ0BIXTNbQ0BASF0oW0NAQEhdMVtDSDNdKVtDQF00KFtDSDNdKVtDQEhdKE9bQ0BASF0yMylbQ0gyXVtDSDJdW0NAQEhdNS9DND1bQ0hdXFtDSDJdW0NAXTYoW0NIM10pW0NAQF03KFtDSDNdKVtDQF0oW0NIMl02KShbQ0hdPU8pW0NAXTUoW0NIM10pQyg9TylbQ0gyXTc=

>  <s_epik_cmdline>  (353) 
J2VwaWtfcHl0aG9uJywgJy1waHQnLCAnMi4wJywgJy1waCcsICc3LjAnLCAnLXRuJywgJzgnLCAnLW1hJywgJzIwMCcsICctaW1hZScsICc8aW5maWxlLm1hZT4nLCAnLW9tYWUnLCAnPG91dGZpbGUubWFlPic=

>  <r_lp_tautomer_probability>  (353) 
1

>  <r_epik_Ionization_Penalty>  (353) 
5.88605e-11

>  <r_epik_Ionization_Penalty_Charging>  (353) 
0

>  <r_epik_Ionization_Penalty_Neutral>  (353) 
5.88605e-11

>  <r_epik_State_Penalty>  (353) 
-0

>  <r_epik_Charging_Adjusted_Penalty>  (353) 
0

>  <i_epik_Tot_Q>  (353) 
0

>  <i_epik_Tot_abs_Q>  (353) 
0

>  <s_lp_Force_Field>  (353) 
OPLS3e

>  <r_lp_Energy>  (353) 
99.1735

>  <b_lp_Chiralities_Consistent>  (353) 
1

>  <s_lp_Variant>  (353) 
99:0-1

>  <s_i_glide_gridfile>  (353) 
pfpi4k_grid

>  <i_i_glide_lignum>  (353) 
14

>  <i_i_glide_rotatable_bonds>  (353) 
2

>  <r_i_docking_score>  (353) 
-2.22292

>  <r_i_glide_ligand_efficiency>  (353) 
-0.0694661

>  <r_i_glide_ligand_efficiency_sa>  (353) 
-0.220541

>  <r_i_glide_ligand_efficiency_ln>  (353) 
-0.497771

>  <r_i_glide_gscore>  (353) 
-2.22292

>  <r_i_glide_lipo>  (353) 
-0.293285

>  <r_i_glide_hbond>  (353) 
-0.117803

>  <r_i_glide_metal>  (353) 
-0

>  <r_i_glide_rewards>  (353) 
-0.432095

>  <r_i_glide_evdw>  (353) 
-19.5866

>  <r_i_glide_ecoul>  (353) 
-2.57101

>  <r_i_glide_erotb>  (353) 
0

>  <r_i_glide_esite>  (353) 
-0.0147523

>  <r_i_glide_emodel>  (353) 
-24.6577

>  <r_i_glide_energy>  (353) 
-22.1576

>  <r_i_glide_einternal>  (353) 
0.342912

>  <r_i_glide_intrahb_reward>  (353) 
-0

>  <i_i_glide_confnum>  (353) 
2

>  <i_i_glide_posenum>  (353) 
22

>  <r_i_glide_eff_state_penalty>  (353) 
0

>  <ligand_id>  (353) 
99

>  <original_smiles>  (353) 
CC(C)C12C(C)C3C1C2OC1CCC2C(=CCC4(C)CC5(C=O)C2(C)C(=O)CC45C)C13C

>  <smiles>  (353) 
[H]C(=O)C12C([H])([H])C3(C([H])([H])[H])C([H])([H])C([H])=C4C([H])(C([H])([H])C([H])([H])C5([H])OC6([H])C7([H])C([H])(C([H])(C([H])([H])[H])C67C([H])(C([H])([H])[H])C([H])([H])[H])C45C([H])([H])[H])C1(C([H])([H])[H])C(=O)C([H])([H])C23C([H])([H])[H]

$$$$
99:0:2
     RDKit          3D

 72 78  0  0  1  0  0  0  0  0999 V2000
   -1.3259    0.5043    5.8082 C   0  0  0  0  0  0  0  0  0  0  0  0
   -0.3058    0.2711    6.9352 C   0  0  0  0  0  0  0  0  0  0  0  0
    0.3629    1.6284    7.2802 C   0  0  0  0  0  0  0  0  0  0  0  0
    0.7159   -0.8429    6.5696 C   0  0  2  0  0  0  0  0  0  0  0  0
    0.1919   -2.2735    6.5111 C   0  0  1  0  0  0  0  0  0  0  0  0
   -0.2454   -2.7018    5.1179 C   0  0  0  0  0  0  0  0  0  0  0  0
    1.5441   -2.7829    7.1372 C   0  0  2  0  0  0  0  0  0  0  0  0
    1.9118   -1.3253    7.3261 C   0  0  1  0  0  0  0  0  0  0  0  0
    2.0984   -0.4953    6.0978 C   0  0  1  0  0  0  0  0  0  0  0  0
    2.5265   -1.3026    5.0066 O   0  0  0  0  0  0  0  0  0  0  0  0
    3.3819   -2.3818    5.3915 C   0  0  2  0  0  0  0  0  0  0  0  0
    4.1068   -2.8132    4.1263 C   0  0  0  0  0  0  0  0  0  0  0  0
    4.1939   -4.3162    3.9487 C   0  0  0  0  0  0  0  0  0  0  0  0
    2.8108   -4.9999    4.0587 C   0  0  2  0  0  0  0  0  0  0  0  0
    2.1555   -4.7470    5.4718 C   0  0  0  0  0  0  0  0  0  0  0  0
    1.2088   -5.4951    6.1014 C   0  0  0  0  0  0  0  0  0  0  0  0
    0.3365   -6.7456    5.8351 C   0  0  0  0  0  0  0  0  0  0  0  0
   -0.0279   -7.2357    4.4157 C   0  0  1  0  0  0  0  0  0  0  0  0
   -1.4648   -7.7759    4.5135 C   0  0  0  0  0  0  0  0  0  0  0  0
    0.1615   -6.2485    3.2923 C   0  0  0  0  0  0  0  0  0  0  0  0
    1.4726   -6.9231    2.8818 C   0  0  1  0  0  0  0  0  0  0  0  0
    1.4971   -7.0465    1.3870 C   0  0  0  0  0  0  0  0  0  0  0  0
    0.9669   -6.2729    0.5664 O   0  0  0  0  0  0  0  0  0  0  0  0
    2.8556   -6.4835    3.5013 C   0  0  1  0  0  0  0  0  0  0  0  0
    4.0484   -6.7635    2.5254 C   0  0  0  0  0  0  0  0  0  0  0  0
    3.0836   -7.5368    4.5853 C   0  0  0  0  0  0  0  0  0  0  0  0
    3.9447   -7.4353    5.4681 O   0  0  0  0  0  0  0  0  0  0  0  0
    2.1619   -8.7328    4.4574 C   0  0  0  0  0  0  0  0  0  0  0  0
    0.9791   -8.1744    3.6547 C   0  0  1  0  0  0  0  0  0  0  0  0
    0.3820   -9.3645    2.8830 C   0  0  0  0  0  0  0  0  0  0  0  0
    2.6710   -3.4836    6.2649 C   0  0  2  0  0  0  0  0  0  0  0  0
    3.7352   -4.0271    7.2558 C   0  0  0  0  0  0  0  0  0  0  0  0
   -0.8160    0.7562    4.8703 H   0  0  0  0  0  0  0  0  0  0  0  0
   -2.0107    1.3248    6.0271 H   0  0  0  0  0  0  0  0  0  0  0  0
   -1.9504   -0.3674    5.6258 H   0  0  0  0  0  0  0  0  0  0  0  0
   -0.8498   -0.0261    7.8296 H   0  0  0  0  0  0  0  0  0  0  0  0
    0.9234    2.0241    6.4257 H   0  0  0  0  0  0  0  0  0  0  0  0
    1.0406    1.5472    8.1282 H   0  0  0  0  0  0  0  0  0  0  0  0
   -0.3780    2.3913    7.5249 H   0  0  0  0  0  0  0  0  0  0  0  0
   -0.5743   -2.4623    7.2573 H   0  0  0  0  0  0  0  0  0  0  0  0
    0.5667   -2.6353    4.3911 H   0  0  0  0  0  0  0  0  0  0  0  0
   -1.0574   -2.1057    4.7243 H   0  0  0  0  0  0  0  0  0  0  0  0
   -0.5871   -3.7357    5.1159 H   0  0  0  0  0  0  0  0  0  0  0  0
    1.3545   -3.2664    8.0850 H   0  0  0  0  0  0  0  0  0  0  0  0
    2.1382   -0.9538    8.3369 H   0  0  0  0  0  0  0  0  0  0  0  0
    2.5418    0.4818    6.1672 H   0  0  0  0  0  0  0  0  0  0  0  0
    4.1455   -1.9119    6.0188 H   0  0  0  0  0  0  0  0  0  0  0  0
    3.5896   -2.3864    3.2638 H   0  0  0  0  0  0  0  0  0  0  0  0
    5.1087   -2.3788    4.1166 H   0  0  0  0  0  0  0  0  0  0  0  0
    4.6141   -4.4077    2.9514 H   0  0  0  0  0  0  0  0  0  0  0  0
    4.9176   -4.7582    4.6291 H   0  0  0  0  0  0  0  0  0  0  0  0
    2.2062   -4.4169    3.3637 H   0  0  0  0  0  0  0  0  0  0  0  0
    0.9760   -5.1833    7.1085 H   0  0  0  0  0  0  0  0  0  0  0  0
    0.7439   -7.5625    6.4310 H   0  0  0  0  0  0  0  0  0  0  0  0
   -0.5782   -6.4899    6.3597 H   0  0  0  0  0  0  0  0  0  0  0  0
   -1.8658   -8.0787    3.5459 H   0  0  0  0  0  0  0  0  0  0  0  0
   -2.1581   -7.0133    4.8787 H   0  0  0  0  0  0  0  0  0  0  0  0
   -1.5246   -8.6441    5.1667 H   0  0  0  0  0  0  0  0  0  0  0  0
   -0.6109   -6.3753    2.5482 H   0  0  0  0  0  0  0  0  0  0  0  0
    0.2227   -5.2013    3.6015 H   0  0  0  0  0  0  0  0  0  0  0  0
    2.0456   -7.9183    1.0032 H   0  0  0  0  0  0  0  0  0  0  0  0
    4.0542   -6.1235    1.6447 H   0  0  0  0  0  0  0  0  0  0  0  0
    4.0546   -7.7957    2.1784 H   0  0  0  0  0  0  0  0  0  0  0  0
    5.0169   -6.6388    3.0211 H   0  0  0  0  0  0  0  0  0  0  0  0
    2.6953   -9.5142    3.9195 H   0  0  0  0  0  0  0  0  0  0  0  0
    1.8792   -9.1253    5.4304 H   0  0  0  0  0  0  0  0  0  0  0  0
    1.1356   -9.9031    2.2933 H   0  0  0  0  0  0  0  0  0  0  0  0
   -0.3958   -9.0646    2.1839 H   0  0  0  0  0  0  0  0  0  0  0  0
   -0.0600  -10.0962    3.5642 H   0  0  0  0  0  0  0  0  0  0  0  0
    4.1466   -3.2504    7.8975 H   0  0  0  0  0  0  0  0  0  0  0  0
    4.5864   -4.4861    6.7401 H   0  0  0  0  0  0  0  0  0  0  0  0
    3.3340   -4.8062    7.9092 H   0  0  0  0  0  0  0  0  0  0  0  0
  1  2  1  0
  1 33  1  0
  1 34  1  0
  1 35  1  0
  2  3  1  0
  4  2  1  1
  2 36  1  0
  3 37  1  0
  3 38  1  0
  3 39  1  0
  4  8  1  0
  4  9  1  0
  4  5  1  0
  5  6  1  0
  5  7  1  0
  5 40  1  1
  6 41  1  0
  6 42  1  0
  6 43  1  0
  7 31  1  0
  7  8  1  0
  7 44  1  1
  8  9  1  0
  8 45  1  1
  9 10  1  0
  9 46  1  1
 10 11  1  0
 11 31  1  0
 11 12  1  0
 11 47  1  1
 12 13  1  0
 12 48  1  0
 12 49  1  0
 13 14  1  0
 13 50  1  0
 13 51  1  0
 14 24  1  0
 14 15  1  0
 14 52  1  6
 15 16  2  3
 15 31  1  0
 16 17  1  0
 16 53  1  0
 17 18  1  0
 17 54  1  0
 17 55  1  0
 18 29  1  0
 18 19  1  1
 18 20  1  0
 19 56  1  0
 19 57  1  0
 19 58  1  0
 20 21  1  0
 20 59  1  0
 20 60  1  0
 21 29  1  0
 21 22  1  6
 21 24  1  0
 22 23  2  0
 22 61  1  0
 24 25  1  6
 24 26  1  0
 25 62  1  0
 25 63  1  0
 25 64  1  0
 26 27  2  0
 26 28  1  0
 28 29  1  0
 28 65  1  0
 28 66  1  0
 29 30  1  6
 30 67  1  0
 30 68  1  0
 30 69  1  0
 31 32  1  1
 32 70  1  0
 32 71  1  0
 32 72  1  0
M  END
>  <i_m_ct_stereo_status>  (354) 
1

>  <s_m_source_file>  (354) 
/var/tmp/pbs.5076255.sched01/tmp0i_w_vt9/132llf9lao3.sdf

>  <i_m_source_file_index>  (354) 
14

>  <i_lp_mmshare_version>  (354) 
48012

>  <i_f3d_flags>  (354) 
0

>  <s_epik_input>  (354) 
W0NIM11bQ0hdKFtDSDNdKVtDQEBdMTJbQ0BIXTNbQ0BASF0oW0NAQEhdMVtDSDNdKVtDQF00KFtDSDNdKVtDQEhdKE9bQ0BASF0yMylbQ0gyXVtDSDJdW0NAQEhdNS9DND1bQ0hdXFtDSDJdW0NAXTYoW0NIM10pW0NAQF03KFtDSDNdKVtDQF0oW0NIMl02KShbQ0hdPU8pW0NAXTUoW0NIM10pQyg9TylbQ0gyXTc=

>  <s_epik_cmdline>  (354) 
J2VwaWtfcHl0aG9uJywgJy1waHQnLCAnMi4wJywgJy1waCcsICc3LjAnLCAnLXRuJywgJzgnLCAnLW1hJywgJzIwMCcsICctaW1hZScsICc8aW5maWxlLm1hZT4nLCAnLW9tYWUnLCAnPG91dGZpbGUubWFlPic=

>  <r_lp_tautomer_probability>  (354) 
1

>  <r_epik_Ionization_Penalty>  (354) 
5.88605e-11

>  <r_epik_Ionization_Penalty_Charging>  (354) 
0

>  <r_epik_Ionization_Penalty_Neutral>  (354) 
5.88605e-11

>  <r_epik_State_Penalty>  (354) 
-0

>  <r_epik_Charging_Adjusted_Penalty>  (354) 
0

>  <i_epik_Tot_Q>  (354) 
0

>  <i_epik_Tot_abs_Q>  (354) 
0

>  <s_lp_Force_Field>  (354) 
OPLS3e

>  <r_lp_Energy>  (354) 
99.1735

>  <b_lp_Chiralities_Consistent>  (354) 
1

>  <s_lp_Variant>  (354) 
99:0-1

>  <s_i_glide_gridfile>  (354) 
pfpi4k_grid

>  <i_i_glide_lignum>  (354) 
14

>  <i_i_glide_rotatable_bonds>  (354) 
2

>  <r_i_docking_score>  (354) 
-1.95361

>  <r_i_glide_ligand_efficiency>  (354) 
-0.0610504

>  <r_i_glide_ligand_efficiency_sa>  (354) 
-0.193823

>  <r_i_glide_ligand_efficiency_ln>  (354) 
-0.437467

>  <r_i_glide_gscore>  (354) 
-1.95361

>  <r_i_glide_lipo>  (354) 
-0.000579048

>  <r_i_glide_hbond>  (354) 
-0.162681

>  <r_i_glide_metal>  (354) 
-0

>  <r_i_glide_rewards>  (354) 
-0.432095

>  <r_i_glide_evdw>  (354) 
-18.7787

>  <r_i_glide_ecoul>  (354) 
-2.49139

>  <r_i_glide_erotb>  (354) 
0

>  <r_i_glide_esite>  (354) 
-0.0456148

>  <r_i_glide_emodel>  (354) 
-23.3278

>  <r_i_glide_energy>  (354) 
-21.2701

>  <r_i_glide_einternal>  (354) 
0.497547

>  <r_i_glide_intrahb_reward>  (354) 
-0

>  <i_i_glide_confnum>  (354) 
2

>  <i_i_glide_posenum>  (354) 
2

>  <r_i_glide_eff_state_penalty>  (354) 
0

>  <ligand_id>  (354) 
99

>  <original_smiles>  (354) 
CC(C)C12C(C)C3C1C2OC1CCC2C(=CCC4(C)CC5(C=O)C2(C)C(=O)CC45C)C13C

>  <smiles>  (354) 
[H]C(=O)C12C([H])([H])C3(C([H])([H])[H])C([H])([H])C([H])=C4C([H])(C([H])([H])C([H])([H])C5([H])OC6([H])C7([H])C([H])(C([H])(C([H])([H])[H])C67C([H])(C([H])([H])[H])C([H])([H])[H])C45C([H])([H])[H])C1(C([H])([H])[H])C(=O)C([H])([H])C23C([H])([H])[H]

$$$$
99:1:0
     RDKit          3D

 72 78  0  0  1  0  0  0  0  0999 V2000
    9.0106   -3.2879    0.5793 C   0  0  0  0  0  0  0  0  0  0  0  0
    8.0443   -4.0870   -0.3145 C   0  0  0  0  0  0  0  0  0  0  0  0
    7.8002   -3.3099   -1.6278 C   0  0  0  0  0  0  0  0  0  0  0  0
    6.7377   -4.4159    0.4303 C   0  0  2  0  0  0  0  0  0  0  0  0
    6.5970   -5.6811    1.2711 C   0  0  1  0  0  0  0  0  0  0  0  0
    6.9698   -5.5025    2.7560 C   0  0  0  0  0  0  0  0  0  0  0  0
    5.1075   -5.8138    0.7974 C   0  0  2  0  0  0  0  0  0  0  0  0
    5.3447   -4.6599   -0.1337 C   0  0  1  0  0  0  0  0  0  0  0  0
    5.6495   -3.3565    0.5768 C   0  0  1  0  0  0  0  0  0  0  0  0
    5.1365   -3.2927    1.8997 O   0  0  0  0  0  0  0  0  0  0  0  0
    3.8941   -3.9617    2.1318 C   0  0  2  0  0  0  0  0  0  0  0  0
    3.5253   -3.7179    3.5942 C   0  0  0  0  0  0  0  0  0  0  0  0
    2.3299   -4.5776    4.0087 C   0  0  0  0  0  0  0  0  0  0  0  0
    2.6331   -6.1147    4.0289 C   0  0  2  0  0  0  0  0  0  0  0  0
    3.6234   -6.4614    2.8704 C   0  0  0  0  0  0  0  0  0  0  0  0
    4.5135   -7.4817    3.0270 C   0  0  0  0  0  0  0  0  0  0  0  0
    4.2087   -8.9220    2.7994 C   0  0  0  0  0  0  0  0  0  0  0  0
    3.2275   -9.6393    3.7251 C   0  0  1  0  0  0  0  0  0  0  0  0
    3.7454  -11.1052    3.7459 C   0  0  0  0  0  0  0  0  0  0  0  0
    2.9814   -9.0513    5.1173 C   0  0  0  0  0  0  0  0  0  0  0  0
    1.5786   -8.5517    4.7178 C   0  0  1  0  0  0  0  0  0  0  0  0
    0.5268   -9.0268    5.7321 C   0  0  0  0  0  0  0  0  0  0  0  0
    0.3890   -8.6214    6.8807 O   0  0  0  0  0  0  0  0  0  0  0  0
    1.3336   -7.0395    4.2439 C   0  0  1  0  0  0  0  0  0  0  0  0
    0.2934   -6.2634    5.1247 C   0  0  0  0  0  0  0  0  0  0  0  0
    0.6884   -7.3112    2.8733 C   0  0  0  0  0  0  0  0  0  0  0  0
   -0.1684   -6.6134    2.3545 O   0  0  0  0  0  0  0  0  0  0  0  0
    1.2189   -8.5956    2.2506 C   0  0  0  0  0  0  0  0  0  0  0  0
    1.6943   -9.4464    3.4443 C   0  0  1  0  0  0  0  0  0  0  0  0
    0.8753  -10.7505    3.3766 C   0  0  0  0  0  0  0  0  0  0  0  0
    3.8472   -5.4739    1.6786 C   0  0  2  0  0  0  0  0  0  0  0  0
    2.6127   -5.6210    0.7619 C   0  0  0  0  0  0  0  0  0  0  0  0
    8.5688   -2.3359    0.8735 H   0  0  0  0  0  0  0  0  0  0  0  0
    9.9460   -3.0578    0.0709 H   0  0  0  0  0  0  0  0  0  0  0  0
    9.2601   -3.8373    1.4858 H   0  0  0  0  0  0  0  0  0  0  0  0
    8.5731   -5.0084   -0.5766 H   0  0  0  0  0  0  0  0  0  0  0  0
    7.3556   -2.3319   -1.4479 H   0  0  0  0  0  0  0  0  0  0  0  0
    7.1321   -3.8485   -2.3021 H   0  0  0  0  0  0  0  0  0  0  0  0
    8.7252   -3.1354   -2.1741 H   0  0  0  0  0  0  0  0  0  0  0  0
    7.1775   -6.5130    0.8656 H   0  0  0  0  0  0  0  0  0  0  0  0
    6.2718   -4.8701    3.2984 H   0  0  0  0  0  0  0  0  0  0  0  0
    7.9579   -5.0672    2.8656 H   0  0  0  0  0  0  0  0  0  0  0  0
    6.9953   -6.4511    3.2944 H   0  0  0  0  0  0  0  0  0  0  0  0
    4.9725   -6.7599    0.2596 H   0  0  0  0  0  0  0  0  0  0  0  0
    5.1228   -4.7053   -1.1884 H   0  0  0  0  0  0  0  0  0  0  0  0
    5.6647   -2.4379    0.0098 H   0  0  0  0  0  0  0  0  0  0  0  0
    3.1837   -3.4050    1.5263 H   0  0  0  0  0  0  0  0  0  0  0  0
    4.3761   -3.9183    4.2467 H   0  0  0  0  0  0  0  0  0  0  0  0
    3.2885   -2.6535    3.7162 H   0  0  0  0  0  0  0  0  0  0  0  0
    2.0244   -4.2226    4.9940 H   0  0  0  0  0  0  0  0  0  0  0  0
    1.5041   -4.3435    3.3362 H   0  0  0  0  0  0  0  0  0  0  0  0
    3.2056   -6.2095    4.9570 H   0  0  0  0  0  0  0  0  0  0  0  0
    5.3046   -7.5437    2.3269 H   0  0  0  0  0  0  0  0  0  0  0  0
    3.9098   -9.0707    1.7487 H   0  0  0  0  0  0  0  0  0  0  0  0
    5.1864   -9.4225    2.8501 H   0  0  0  0  0  0  0  0  0  0  0  0
    3.1928  -11.7501    4.4422 H   0  0  0  0  0  0  0  0  0  0  0  0
    4.7887  -11.1625    4.0677 H   0  0  0  0  0  0  0  0  0  0  0  0
    3.6953  -11.5680    2.7547 H   0  0  0  0  0  0  0  0  0  0  0  0
    2.9559   -9.8493    5.8681 H   0  0  0  0  0  0  0  0  0  0  0  0
    3.6829   -8.2945    5.4609 H   0  0  0  0  0  0  0  0  0  0  0  0
   -0.1568   -9.8022    5.3694 H   0  0  0  0  0  0  0  0  0  0  0  0
    0.6631   -6.1355    6.1439 H   0  0  0  0  0  0  0  0  0  0  0  0
   -0.6699   -6.7695    5.1787 H   0  0  0  0  0  0  0  0  0  0  0  0
    0.0351   -5.2739    4.7510 H   0  0  0  0  0  0  0  0  0  0  0  0
    0.4197   -9.0553    1.6750 H   0  0  0  0  0  0  0  0  0  0  0  0
    2.0095   -8.3552    1.5445 H   0  0  0  0  0  0  0  0  0  0  0  0
   -0.1923  -10.5718    3.2663 H   0  0  0  0  0  0  0  0  0  0  0  0
    1.0294  -11.3947    4.2335 H   0  0  0  0  0  0  0  0  0  0  0  0
    1.1881  -11.3657    2.5464 H   0  0  0  0  0  0  0  0  0  0  0  0
    2.7049   -5.0195   -0.1353 H   0  0  0  0  0  0  0  0  0  0  0  0
    1.7003   -5.2961    1.2462 H   0  0  0  0  0  0  0  0  0  0  0  0
    2.4711   -6.6457    0.4318 H   0  0  0  0  0  0  0  0  0  0  0  0
  1  2  1  0
  1 33  1  0
  1 34  1  0
  1 35  1  0
  2  3  1  0
  4  2  1  6
  2 36  1  0
  3 37  1  0
  3 38  1  0
  3 39  1  0
  4  8  1  0
  4  9  1  0
  4  5  1  0
  5  6  1  0
  5  7  1  0
  5 40  1  6
  6 41  1  0
  6 42  1  0
  6 43  1  0
  7 31  1  0
  7  8  1  0
  7 44  1  6
  8  9  1  0
  8 45  1  6
  9 10  1  0
  9 46  1  6
 10 11  1  0
 11 31  1  0
 11 12  1  0
 11 47  1  6
 12 13  1  0
 12 48  1  0
 12 49  1  0
 13 14  1  0
 13 50  1  0
 13 51  1  0
 14 24  1  0
 14 15  1  0
 14 52  1  1
 15 16  2  3
 15 31  1  0
 16 17  1  0
 16 53  1  0
 17 18  1  0
 17 54  1  0
 17 55  1  0
 18 29  1  0
 18 19  1  1
 18 20  1  0
 19 56  1  0
 19 57  1  0
 19 58  1  0
 20 21  1  0
 20 59  1  0
 20 60  1  0
 21 29  1  0
 21 22  1  1
 21 24  1  0
 22 23  2  0
 22 61  1  0
 24 25  1  1
 24 26  1  0
 25 62  1  0
 25 63  1  0
 25 64  1  0
 26 27  2  0
 26 28  1  0
 28 29  1  0
 28 65  1  0
 28 66  1  0
 29 30  1  1
 30 67  1  0
 30 68  1  0
 30 69  1  0
 31 32  1  6
 32 70  1  0
 32 71  1  0
 32 72  1  0
M  END
>  <i_m_ct_stereo_status>  (355) 
1

>  <s_m_source_file>  (355) 
/var/tmp/pbs.5076255.sched01/tmp0i_w_vt9/132llf9lao3.sdf

>  <i_m_source_file_index>  (355) 
15

>  <i_lp_mmshare_version>  (355) 
48012

>  <i_f3d_flags>  (355) 
0

>  <s_epik_input>  (355) 
W0NIM11bQ0hdKFtDSDNdKVtDQEBdMTJbQ0BIXTNbQ0BASF0oW0NAQEhdMVtDSDNdKVtDQF00KFtDSDNdKVtDQEhdKE9bQ0BASF0yMylbQ0gyXVtDSDJdW0NAQEhdNS9DND1bQ0hdXFtDSDJdW0NAXTYoW0NIM10pW0NAQF03KFtDSDNdKVtDQF0oW0NIMl02KShbQ0hdPU8pW0NAXTUoW0NIM10pQyg9TylbQ0gyXTc=

>  <s_epik_cmdline>  (355) 
J2VwaWtfcHl0aG9uJywgJy1waHQnLCAnMi4wJywgJy1waCcsICc3LjAnLCAnLXRuJywgJzgnLCAnLW1hJywgJzIwMCcsICctaW1hZScsICc8aW5maWxlLm1hZT4nLCAnLW9tYWUnLCAnPG91dGZpbGUubWFlPic=

>  <r_lp_tautomer_probability>  (355) 
1

>  <r_epik_Ionization_Penalty>  (355) 
5.88605e-11

>  <r_epik_Ionization_Penalty_Charging>  (355) 
0

>  <r_epik_Ionization_Penalty_Neutral>  (355) 
5.88605e-11

>  <r_epik_State_Penalty>  (355) 
-0

>  <r_epik_Charging_Adjusted_Penalty>  (355) 
0

>  <i_epik_Tot_Q>  (355) 
0

>  <i_epik_Tot_abs_Q>  (355) 
0

>  <s_lp_Force_Field>  (355) 
OPLS3e

>  <r_lp_Energy>  (355) 
136.561

>  <b_lp_Chiralities_Consistent>  (355) 
1

>  <s_lp_Variant>  (355) 
99:0-2

>  <s_i_glide_gridfile>  (355) 
pfpi4k_grid

>  <i_i_glide_lignum>  (355) 
15

>  <i_i_glide_rotatable_bonds>  (355) 
2

>  <r_i_docking_score>  (355) 
-3.0533

>  <r_i_glide_ligand_efficiency>  (355) 
-0.0954155

>  <r_i_glide_ligand_efficiency_sa>  (355) 
-0.302925

>  <r_i_glide_ligand_efficiency_ln>  (355) 
-0.683716

>  <r_i_glide_gscore>  (355) 
-3.0533

>  <r_i_glide_lipo>  (355) 
-0.837635

>  <r_i_glide_hbond>  (355) 
-0.16

>  <r_i_glide_metal>  (355) 
-0

>  <r_i_glide_rewards>  (355) 
-0.432095

>  <r_i_glide_evdw>  (355) 
-24.1722

>  <r_i_glide_ecoul>  (355) 
-4.31736

>  <r_i_glide_erotb>  (355) 
0

>  <r_i_glide_esite>  (355) 
-0.0865764

>  <r_i_glide_emodel>  (355) 
-29.1362

>  <r_i_glide_energy>  (355) 
-28.4896

>  <r_i_glide_einternal>  (355) 
1.68481

>  <r_i_glide_intrahb_reward>  (355) 
-0

>  <i_i_glide_confnum>  (355) 
1

>  <i_i_glide_posenum>  (355) 
37

>  <r_i_glide_eff_state_penalty>  (355) 
0

>  <ligand_id>  (355) 
99

>  <original_smiles>  (355) 
CC(C)C12C(C)C3C1C2OC1CCC2C(=CCC4(C)CC5(C=O)C2(C)C(=O)CC45C)C13C

>  <smiles>  (355) 
[H]C(=O)C12C([H])([H])C3(C([H])([H])[H])C([H])([H])C([H])=C4C([H])(C([H])([H])C([H])([H])C5([H])OC6([H])C7([H])C([H])(C([H])(C([H])([H])[H])C67C([H])(C([H])([H])[H])C([H])([H])[H])C45C([H])([H])[H])C1(C([H])([H])[H])C(=O)C([H])([H])C23C([H])([H])[H]

$$$$
99:1:1
     RDKit          3D

 72 78  0  0  1  0  0  0  0  0999 V2000
    5.3394   -3.5563   -2.2022 C   0  0  0  0  0  0  0  0  0  0  0  0
    5.9353   -2.4254   -1.3510 C   0  0  0  0  0  0  0  0  0  0  0  0
    7.4392   -2.6608   -1.0981 C   0  0  0  0  0  0  0  0  0  0  0  0
    5.1679   -2.1016   -0.0434 C   0  0  2  0  0  0  0  0  0  0  0  0
    4.9164   -3.1668    1.0111 C   0  0  1  0  0  0  0  0  0  0  0  0
    6.0011   -3.2515    2.0934 C   0  0  0  0  0  0  0  0  0  0  0  0
    3.5051   -2.5096    1.2854 C   0  0  2  0  0  0  0  0  0  0  0  0
    3.7684   -1.5871    0.1363 C   0  0  1  0  0  0  0  0  0  0  0  0
    4.9223   -0.6598    0.3390 C   0  0  1  0  0  0  0  0  0  0  0  0
    5.2156   -0.3835    1.7134 O   0  0  0  0  0  0  0  0  0  0  0  0
    4.0974   -0.3636    2.6031 C   0  0  2  0  0  0  0  0  0  0  0  0
    4.6479   -0.0371    3.9910 C   0  0  0  0  0  0  0  0  0  0  0  0
    3.5720   -0.2091    5.0610 C   0  0  0  0  0  0  0  0  0  0  0  0
    3.1140   -1.7012    5.2660 C   0  0  2  0  0  0  0  0  0  0  0  0
    3.1233   -2.4397    3.8785 C   0  0  0  0  0  0  0  0  0  0  0  0
    3.4178   -3.7489    3.8478 C   0  0  0  0  0  0  0  0  0  0  0  0
    2.4248   -4.8525    4.0786 C   0  0  0  0  0  0  0  0  0  0  0  0
    1.8210   -5.0264    5.4779 C   0  0  1  0  0  0  0  0  0  0  0  0
    1.5510   -6.5633    5.5665 C   0  0  0  0  0  0  0  0  0  0  0  0
    2.5749   -4.4671    6.6752 C   0  0  0  0  0  0  0  0  0  0  0  0
    1.5629   -3.3186    6.8423 C   0  0  1  0  0  0  0  0  0  0  0  0
    1.0250   -3.2417    8.2716 C   0  0  0  0  0  0  0  0  0  0  0  0
   -0.0969   -2.8248    8.5978 O   0  0  0  0  0  0  0  0  0  0  0  0
    1.8304   -1.8622    6.2290 C   0  0  1  0  0  0  0  0  0  0  0  0
    1.8449   -0.7195    7.2984 C   0  0  0  0  0  0  0  0  0  0  0  0
    0.5686   -1.7170    5.3744 C   0  0  0  0  0  0  0  0  0  0  0  0
   -0.0256   -0.6650    5.1668 O   0  0  0  0  0  0  0  0  0  0  0  0
    0.0758   -3.0625    4.8594 C   0  0  0  0  0  0  0  0  0  0  0  0
    0.6166   -4.0991    5.8698 C   0  0  1  0  0  0  0  0  0  0  0  0
   -0.6220   -4.8305    6.4224 C   0  0  0  0  0  0  0  0  0  0  0  0
    3.1573   -1.6315    2.5508 C   0  0  2  0  0  0  0  0  0  0  0  0
    1.7221   -1.1087    2.3241 C   0  0  0  0  0  0  0  0  0  0  0  0
    5.3927   -4.5203   -1.7003 H   0  0  0  0  0  0  0  0  0  0  0  0
    5.8769   -3.6593   -3.1452 H   0  0  0  0  0  0  0  0  0  0  0  0
    4.2979   -3.3600   -2.4567 H   0  0  0  0  0  0  0  0  0  0  0  0
    5.8711   -1.5249   -1.9681 H   0  0  0  0  0  0  0  0  0  0  0  0
    7.6069   -3.5988   -0.5698 H   0  0  0  0  0  0  0  0  0  0  0  0
    7.8760   -1.8597   -0.5021 H   0  0  0  0  0  0  0  0  0  0  0  0
    8.0011   -2.7174   -2.0309 H   0  0  0  0  0  0  0  0  0  0  0  0
    4.7682   -4.1512    0.5776 H   0  0  0  0  0  0  0  0  0  0  0  0
    6.0294   -2.3812    2.7453 H   0  0  0  0  0  0  0  0  0  0  0  0
    6.9939   -3.3563    1.6675 H   0  0  0  0  0  0  0  0  0  0  0  0
    5.8568   -4.1118    2.7543 H   0  0  0  0  0  0  0  0  0  0  0  0
    2.7242   -3.2350    1.0746 H   0  0  0  0  0  0  0  0  0  0  0  0
    3.0560   -1.4673   -0.6862 H   0  0  0  0  0  0  0  0  0  0  0  0
    5.0643    0.1476   -0.3598 H   0  0  0  0  0  0  0  0  0  0  0  0
    3.5225    0.4979    2.2753 H   0  0  0  0  0  0  0  0  0  0  0  0
    5.5118   -0.6621    4.2216 H   0  0  0  0  0  0  0  0  0  0  0  0
    5.0110    0.9979    3.9830 H   0  0  0  0  0  0  0  0  0  0  0  0
    3.9841    0.2068    5.9832 H   0  0  0  0  0  0  0  0  0  0  0  0
    2.7296    0.4324    4.7951 H   0  0  0  0  0  0  0  0  0  0  0  0
    3.9528   -2.1013    5.8396 H   0  0  0  0  0  0  0  0  0  0  0  0
    3.6348   -4.1849    2.8876 H   0  0  0  0  0  0  0  0  0  0  0  0
    1.6112   -4.7878    3.3294 H   0  0  0  0  0  0  0  0  0  0  0  0
    2.9485   -5.7748    3.7950 H   0  0  0  0  0  0  0  0  0  0  0  0
    1.1883   -6.8817    6.5562 H   0  0  0  0  0  0  0  0  0  0  0  0
    2.4631   -7.1428    5.3945 H   0  0  0  0  0  0  0  0  0  0  0  0
    0.8216   -6.8941    4.8212 H   0  0  0  0  0  0  0  0  0  0  0  0
    2.5675   -5.1749    7.5047 H   0  0  0  0  0  0  0  0  0  0  0  0
    3.6133   -4.1712    6.5001 H   0  0  0  0  0  0  0  0  0  0  0  0
    1.7051   -3.6044    9.0527 H   0  0  0  0  0  0  0  0  0  0  0  0
    2.6685   -0.8436    8.0019 H   0  0  0  0  0  0  0  0  0  0  0  0
    0.9205   -0.6606    7.8724 H   0  0  0  0  0  0  0  0  0  0  0  0
    1.9172    0.2862    6.8787 H   0  0  0  0  0  0  0  0  0  0  0  0
   -0.9961   -3.0350    4.8196 H   0  0  0  0  0  0  0  0  0  0  0  0
    0.4302   -3.2148    3.8418 H   0  0  0  0  0  0  0  0  0  0  0  0
   -1.3801   -4.1343    6.7803 H   0  0  0  0  0  0  0  0  0  0  0  0
   -0.3662   -5.4857    7.2582 H   0  0  0  0  0  0  0  0  0  0  0  0
   -1.0828   -5.4571    5.6602 H   0  0  0  0  0  0  0  0  0  0  0  0
    1.6277   -0.5870    1.3805 H   0  0  0  0  0  0  0  0  0  0  0  0
    1.4180   -0.3942    3.0841 H   0  0  0  0  0  0  0  0  0  0  0  0
    0.9877   -1.9083    2.3003 H   0  0  0  0  0  0  0  0  0  0  0  0
  1  2  1  0
  1 33  1  0
  1 34  1  0
  1 35  1  0
  2  3  1  0
  4  2  1  6
  2 36  1  0
  3 37  1  0
  3 38  1  0
  3 39  1  0
  4  8  1  0
  4  9  1  0
  4  5  1  0
  5  6  1  0
  5  7  1  0
  5 40  1  6
  6 41  1  0
  6 42  1  0
  6 43  1  0
  7 31  1  0
  7  8  1  0
  7 44  1  6
  8  9  1  0
  8 45  1  6
  9 10  1  0
  9 46  1  6
 10 11  1  0
 11 31  1  0
 11 12  1  0
 11 47  1  6
 12 13  1  0
 12 48  1  0
 12 49  1  0
 13 14  1  0
 13 50  1  0
 13 51  1  0
 14 24  1  0
 14 15  1  0
 14 52  1  1
 15 16  2  3
 15 31  1  0
 16 17  1  0
 16 53  1  0
 17 18  1  0
 17 54  1  0
 17 55  1  0
 18 29  1  0
 18 19  1  1
 18 20  1  0
 19 56  1  0
 19 57  1  0
 19 58  1  0
 20 21  1  0
 20 59  1  0
 20 60  1  0
 21 29  1  0
 21 22  1  1
 21 24  1  0
 22 23  2  0
 22 61  1  0
 24 25  1  1
 24 26  1  0
 25 62  1  0
 25 63  1  0
 25 64  1  0
 26 27  2  0
 26 28  1  0
 28 29  1  0
 28 65  1  0
 28 66  1  0
 29 30  1  1
 30 67  1  0
 30 68  1  0
 30 69  1  0
 31 32  1  6
 32 70  1  0
 32 71  1  0
 32 72  1  0
M  END
>  <i_m_ct_stereo_status>  (356) 
1

>  <s_m_source_file>  (356) 
/var/tmp/pbs.5076255.sched01/tmp0i_w_vt9/132llf9lao3.sdf

>  <i_m_source_file_index>  (356) 
15

>  <i_lp_mmshare_version>  (356) 
48012

>  <i_f3d_flags>  (356) 
0

>  <s_epik_input>  (356) 
W0NIM11bQ0hdKFtDSDNdKVtDQEBdMTJbQ0BIXTNbQ0BASF0oW0NAQEhdMVtDSDNdKVtDQF00KFtDSDNdKVtDQEhdKE9bQ0BASF0yMylbQ0gyXVtDSDJdW0NAQEhdNS9DND1bQ0hdXFtDSDJdW0NAXTYoW0NIM10pW0NAQF03KFtDSDNdKVtDQF0oW0NIMl02KShbQ0hdPU8pW0NAXTUoW0NIM10pQyg9TylbQ0gyXTc=

>  <s_epik_cmdline>  (356) 
J2VwaWtfcHl0aG9uJywgJy1waHQnLCAnMi4wJywgJy1waCcsICc3LjAnLCAnLXRuJywgJzgnLCAnLW1hJywgJzIwMCcsICctaW1hZScsICc8aW5maWxlLm1hZT4nLCAnLW9tYWUnLCAnPG91dGZpbGUubWFlPic=

>  <r_lp_tautomer_probability>  (356) 
1

>  <r_epik_Ionization_Penalty>  (356) 
5.88605e-11

>  <r_epik_Ionization_Penalty_Charging>  (356) 
0

>  <r_epik_Ionization_Penalty_Neutral>  (356) 
5.88605e-11

>  <r_epik_State_Penalty>  (356) 
-0

>  <r_epik_Charging_Adjusted_Penalty>  (356) 
0

>  <i_epik_Tot_Q>  (356) 
0

>  <i_epik_Tot_abs_Q>  (356) 
0

>  <s_lp_Force_Field>  (356) 
OPLS3e

>  <r_lp_Energy>  (356) 
136.561

>  <b_lp_Chiralities_Consistent>  (356) 
1

>  <s_lp_Variant>  (356) 
99:0-2

>  <s_i_glide_gridfile>  (356) 
pfpi4k_grid

>  <i_i_glide_lignum>  (356) 
15

>  <i_i_glide_rotatable_bonds>  (356) 
2

>  <r_i_docking_score>  (356) 
-2.555

>  <r_i_glide_ligand_efficiency>  (356) 
-0.0798437

>  <r_i_glide_ligand_efficiency_sa>  (356) 
-0.253488

>  <r_i_glide_ligand_efficiency_ln>  (356) 
-0.572134

>  <r_i_glide_gscore>  (356) 
-2.555

>  <r_i_glide_lipo>  (356) 
-0.439165

>  <r_i_glide_hbond>  (356) 
-0.235349

>  <r_i_glide_metal>  (356) 
-0

>  <r_i_glide_rewards>  (356) 
-0.432095

>  <r_i_glide_evdw>  (356) 
-20.5993

>  <r_i_glide_ecoul>  (356) 
-4.17418

>  <r_i_glide_erotb>  (356) 
0

>  <r_i_glide_esite>  (356) 
-0.0128374

>  <r_i_glide_emodel>  (356) 
-25.2626

>  <r_i_glide_energy>  (356) 
-24.7735

>  <r_i_glide_einternal>  (356) 
0.393935

>  <r_i_glide_intrahb_reward>  (356) 
-0

>  <i_i_glide_confnum>  (356) 
1

>  <i_i_glide_posenum>  (356) 
39

>  <r_i_glide_eff_state_penalty>  (356) 
0

>  <ligand_id>  (356) 
99

>  <original_smiles>  (356) 
CC(C)C12C(C)C3C1C2OC1CCC2C(=CCC4(C)CC5(C=O)C2(C)C(=O)CC45C)C13C

>  <smiles>  (356) 
[H]C(=O)C12C([H])([H])C3(C([H])([H])[H])C([H])([H])C([H])=C4C([H])(C([H])([H])C([H])([H])C5([H])OC6([H])C7([H])C([H])(C([H])(C([H])([H])[H])C67C([H])(C([H])([H])[H])C([H])([H])[H])C45C([H])([H])[H])C1(C([H])([H])[H])C(=O)C([H])([H])C23C([H])([H])[H]

$$$$
99:1:2
     RDKit          3D

 72 78  0  0  1  0  0  0  0  0999 V2000
    7.6540   -2.6779    0.2143 C   0  0  0  0  0  0  0  0  0  0  0  0
    6.4983   -3.2523   -0.6330 C   0  0  0  0  0  0  0  0  0  0  0  0
    6.0095   -2.1963   -1.6427 C   0  0  0  0  0  0  0  0  0  0  0  0
    5.3690   -3.8233    0.2363 C   0  0  2  0  0  0  0  0  0  0  0  0
    5.5186   -5.1299    1.0146 C   0  0  1  0  0  0  0  0  0  0  0  0
    6.0393   -4.9575    2.4551 C   0  0  0  0  0  0  0  0  0  0  0  0
    4.0232   -5.4710    0.7124 C   0  0  2  0  0  0  0  0  0  0  0  0
    3.9657   -4.2568   -0.1787 C   0  0  1  0  0  0  0  0  0  0  0  0
    4.1597   -2.9512    0.5787 C   0  0  1  0  0  0  0  0  0  0  0  0
    3.8116   -3.0217    1.9512 O   0  0  0  0  0  0  0  0  0  0  0  0
    2.7219   -3.8813    2.2824 C   0  0  2  0  0  0  0  0  0  0  0  0
    2.5090   -3.7483    3.7888 C   0  0  0  0  0  0  0  0  0  0  0  0
    1.5147   -4.7944    4.2893 C   0  0  0  0  0  0  0  0  0  0  0  0
    2.0396   -6.2653    4.1864 C   0  0  2  0  0  0  0  0  0  0  0  0
    2.9298   -6.4275    2.9013 C   0  0  0  0  0  0  0  0  0  0  0  0
    3.9659   -7.2761    2.9191 C   0  0  0  0  0  0  0  0  0  0  0  0
    3.8488   -8.7328    2.6219 C   0  0  0  0  0  0  0  0  0  0  0  0
    3.1022   -9.6397    3.6104 C   0  0  1  0  0  0  0  0  0  0  0  0
    3.8292  -11.0175    3.4900 C   0  0  0  0  0  0  0  0  0  0  0  0
    2.9481   -9.1603    5.0545 C   0  0  0  0  0  0  0  0  0  0  0  0
    1.4479   -8.8672    4.8600 C   0  0  1  0  0  0  0  0  0  0  0  0
    0.6102   -9.5355    5.9684 C   0  0  0  0  0  0  0  0  0  0  0  0
    0.4360   -9.1132    7.1028 O   0  0  0  0  0  0  0  0  0  0  0  0
    0.9329   -7.3884    4.5008 C   0  0  1  0  0  0  0  0  0  0  0  0
   -0.0963   -6.8076    5.5300 C   0  0  0  0  0  0  0  0  0  0  0  0
    0.1474   -7.6865    3.1983 C   0  0  0  0  0  0  0  0  0  0  0  0
   -0.8262   -7.0944    2.8222 O   0  0  0  0  0  0  0  0  0  0  0  0
    0.7955   -8.8614    2.4523 C   0  0  0  0  0  0  0  0  0  0  0  0
    1.5353   -9.6807    3.5230 C   0  0  1  0  0  0  0  0  0  0  0  0
    0.9186  -11.0978    3.4535 C   0  0  0  0  0  0  0  0  0  0  0  0
    2.8421   -5.3669    1.7465 C   0  0  2  0  0  0  0  0  0  0  0  0
    1.5431   -5.6716    0.9750 C   0  0  0  0  0  0  0  0  0  0  0  0
    7.3075   -1.8527    0.8361 H   0  0  0  0  0  0  0  0  0  0  0  0
    8.4696   -2.3061   -0.4075 H   0  0  0  0  0  0  0  0  0  0  0  0
    8.0847   -3.4370    0.8652 H   0  0  0  0  0  0  0  0  0  0  0  0
    6.9261   -4.0568   -1.2186 H   0  0  0  0  0  0  0  0  0  0  0  0
    5.6396   -1.3023   -1.1362 H   0  0  0  0  0  0  0  0  0  0  0  0
    5.2016   -2.5885   -2.2662 H   0  0  0  0  0  0  0  0  0  0  0  0
    6.8066   -1.8856   -2.3118 H   0  0  0  0  0  0  0  0  0  0  0  0
    6.1632   -5.8452    0.4970 H   0  0  0  0  0  0  0  0  0  0  0  0
    5.3350   -4.4524    3.1103 H   0  0  0  0  0  0  0  0  0  0  0  0
    6.9537   -4.3784    2.4701 H   0  0  0  0  0  0  0  0  0  0  0  0
    6.2753   -5.9117    2.9302 H   0  0  0  0  0  0  0  0  0  0  0  0
    3.9583   -6.4043    0.1382 H   0  0  0  0  0  0  0  0  0  0  0  0
    3.6266   -4.2838   -1.1997 H   0  0  0  0  0  0  0  0  0  0  0  0
    3.9494   -2.0266    0.0689 H   0  0  0  0  0  0  0  0  0  0  0  0
    1.8716   -3.4114    1.7972 H   0  0  0  0  0  0  0  0  0  0  0  0
    3.4544   -3.8433    4.3249 H   0  0  0  0  0  0  0  0  0  0  0  0
    2.1319   -2.7379    3.9971 H   0  0  0  0  0  0  0  0  0  0  0  0
    1.2846   -4.5306    5.3216 H   0  0  0  0  0  0  0  0  0  0  0  0
    0.5869   -4.6645    3.7330 H   0  0  0  0  0  0  0  0  0  0  0  0
    2.7301   -6.3114    5.0342 H   0  0  0  0  0  0  0  0  0  0  0  0
    4.6401   -7.2720    2.0932 H   0  0  0  0  0  0  0  0  0  0  0  0
    3.4528   -8.8718    1.6021 H   0  0  0  0  0  0  0  0  0  0  0  0
    4.8826   -9.0829    2.5241 H   0  0  0  0  0  0  0  0  0  0  0  0
    3.4669  -11.7652    4.2104 H   0  0  0  0  0  0  0  0  0  0  0  0
    4.9004  -10.9253    3.6851 H   0  0  0  0  0  0  0  0  0  0  0  0
    3.7244  -11.4421    2.4892 H   0  0  0  0  0  0  0  0  0  0  0  0
    3.1355   -9.9770    5.7608 H   0  0  0  0  0  0  0  0  0  0  0  0
    3.5681   -8.3178    5.3639 H   0  0  0  0  0  0  0  0  0  0  0  0
    0.1406  -10.4838    5.6792 H   0  0  0  0  0  0  0  0  0  0  0  0
    0.3691   -6.6636    6.5089 H   0  0  0  0  0  0  0  0  0  0  0  0
   -0.9566   -7.4613    5.6544 H   0  0  0  0  0  0  0  0  0  0  0  0
   -0.5454   -5.8566    5.2478 H   0  0  0  0  0  0  0  0  0  0  0  0
    0.0056   -9.4172    1.9522 H   0  0  0  0  0  0  0  0  0  0  0  0
    1.4456   -8.4790    1.6700 H   0  0  0  0  0  0  0  0  0  0  0  0
   -0.1684  -11.0551    3.5143 H   0  0  0  0  0  0  0  0  0  0  0  0
    1.2674  -11.7379    4.2647 H   0  0  0  0  0  0  0  0  0  0  0  0
    1.1818  -11.5952    2.5193 H   0  0  0  0  0  0  0  0  0  0  0  0
    1.4375   -5.0288    0.1112 H   0  0  0  0  0  0  0  0  0  0  0  0
    0.6710   -5.5169    1.5974 H   0  0  0  0  0  0  0  0  0  0  0  0
    1.5133   -6.6874    0.5926 H   0  0  0  0  0  0  0  0  0  0  0  0
  1  2  1  0
  1 33  1  0
  1 34  1  0
  1 35  1  0
  2  3  1  0
  4  2  1  6
  2 36  1  0
  3 37  1  0
  3 38  1  0
  3 39  1  0
  4  8  1  0
  4  9  1  0
  4  5  1  0
  5  6  1  0
  5  7  1  0
  5 40  1  6
  6 41  1  0
  6 42  1  0
  6 43  1  0
  7 31  1  0
  7  8  1  0
  7 44  1  6
  8  9  1  0
  8 45  1  6
  9 10  1  0
  9 46  1  6
 10 11  1  0
 11 31  1  0
 11 12  1  0
 11 47  1  6
 12 13  1  0
 12 48  1  0
 12 49  1  0
 13 14  1  0
 13 50  1  0
 13 51  1  0
 14 24  1  0
 14 15  1  0
 14 52  1  1
 15 16  2  3
 15 31  1  0
 16 17  1  0
 16 53  1  0
 17 18  1  0
 17 54  1  0
 17 55  1  0
 18 29  1  0
 18 19  1  1
 18 20  1  0
 19 56  1  0
 19 57  1  0
 19 58  1  0
 20 21  1  0
 20 59  1  0
 20 60  1  0
 21 29  1  0
 21 22  1  1
 21 24  1  0
 22 23  2  0
 22 61  1  0
 24 25  1  1
 24 26  1  0
 25 62  1  0
 25 63  1  0
 25 64  1  0
 26 27  2  0
 26 28  1  0
 28 29  1  0
 28 65  1  0
 28 66  1  0
 29 30  1  1
 30 67  1  0
 30 68  1  0
 30 69  1  0
 31 32  1  6
 32 70  1  0
 32 71  1  0
 32 72  1  0
M  END
>  <i_m_ct_stereo_status>  (357) 
1

>  <s_m_source_file>  (357) 
/var/tmp/pbs.5076255.sched01/tmp0i_w_vt9/132llf9lao3.sdf

>  <i_m_source_file_index>  (357) 
15

>  <i_lp_mmshare_version>  (357) 
48012

>  <i_f3d_flags>  (357) 
0

>  <s_epik_input>  (357) 
W0NIM11bQ0hdKFtDSDNdKVtDQEBdMTJbQ0BIXTNbQ0BASF0oW0NAQEhdMVtDSDNdKVtDQF00KFtDSDNdKVtDQEhdKE9bQ0BASF0yMylbQ0gyXVtDSDJdW0NAQEhdNS9DND1bQ0hdXFtDSDJdW0NAXTYoW0NIM10pW0NAQF03KFtDSDNdKVtDQF0oW0NIMl02KShbQ0hdPU8pW0NAXTUoW0NIM10pQyg9TylbQ0gyXTc=

>  <s_epik_cmdline>  (357) 
J2VwaWtfcHl0aG9uJywgJy1waHQnLCAnMi4wJywgJy1waCcsICc3LjAnLCAnLXRuJywgJzgnLCAnLW1hJywgJzIwMCcsICctaW1hZScsICc8aW5maWxlLm1hZT4nLCAnLW9tYWUnLCAnPG91dGZpbGUubWFlPic=

>  <r_lp_tautomer_probability>  (357) 
1

>  <r_epik_Ionization_Penalty>  (357) 
5.88605e-11

>  <r_epik_Ionization_Penalty_Charging>  (357) 
0

>  <r_epik_Ionization_Penalty_Neutral>  (357) 
5.88605e-11

>  <r_epik_State_Penalty>  (357) 
-0

>  <r_epik_Charging_Adjusted_Penalty>  (357) 
0

>  <i_epik_Tot_Q>  (357) 
0

>  <i_epik_Tot_abs_Q>  (357) 
0

>  <s_lp_Force_Field>  (357) 
OPLS3e

>  <r_lp_Energy>  (357) 
136.561

>  <b_lp_Chiralities_Consistent>  (357) 
1

>  <s_lp_Variant>  (357) 
99:0-2

>  <s_i_glide_gridfile>  (357) 
pfpi4k_grid

>  <i_i_glide_lignum>  (357) 
15

>  <i_i_glide_rotatable_bonds>  (357) 
2

>  <r_i_docking_score>  (357) 
-2.47146

>  <r_i_glide_ligand_efficiency>  (357) 
-0.0772332

>  <r_i_glide_ligand_efficiency_sa>  (357) 
-0.2452

>  <r_i_glide_ligand_efficiency_ln>  (357) 
-0.553428

>  <r_i_glide_gscore>  (357) 
-2.47146

>  <r_i_glide_lipo>  (357) 
-0.620436

>  <r_i_glide_hbond>  (357) 
-0.151364

>  <r_i_glide_metal>  (357) 
-0

>  <r_i_glide_rewards>  (357) 
-0.432095

>  <r_i_glide_evdw>  (357) 
-23.3068

>  <r_i_glide_ecoul>  (357) 
-3.27152

>  <r_i_glide_erotb>  (357) 
0

>  <r_i_glide_esite>  (357) 
-0.107678

>  <r_i_glide_emodel>  (357) 
-25.5389

>  <r_i_glide_energy>  (357) 
-26.5783

>  <r_i_glide_einternal>  (357) 
2.0169

>  <r_i_glide_intrahb_reward>  (357) 
-0

>  <i_i_glide_confnum>  (357) 
1

>  <i_i_glide_posenum>  (357) 
21

>  <r_i_glide_eff_state_penalty>  (357) 
0

>  <ligand_id>  (357) 
99

>  <original_smiles>  (357) 
CC(C)C12C(C)C3C1C2OC1CCC2C(=CCC4(C)CC5(C=O)C2(C)C(=O)CC45C)C13C

>  <smiles>  (357) 
[H]C(=O)C12C([H])([H])C3(C([H])([H])[H])C([H])([H])C([H])=C4C([H])(C([H])([H])C([H])([H])C5([H])OC6([H])C7([H])C([H])(C([H])(C([H])([H])[H])C67C([H])(C([H])([H])[H])C([H])([H])[H])C45C([H])([H])[H])C1(C([H])([H])[H])C(=O)C([H])([H])C23C([H])([H])[H]

$$$$
101:0:0
     RDKit          3D

 69 75  0  0  1  0  0  0  0  0999 V2000
    2.2996   -5.3044    6.2909 C   0  0  0  0  0  0  0  0  0  0  0  0
    2.2129   -6.2476    5.0685 C   0  0  0  0  0  0  0  0  0  0  0  0
    1.5196   -5.8532    3.9723 C   0  0  0  0  0  0  0  0  0  0  0  0
    1.1932   -4.3940    3.7297 C   0  0  0  0  0  0  0  0  0  0  0  0
    2.4317   -3.4550    3.5619 C   0  0  1  0  0  0  0  0  0  0  0  0
    2.6212   -2.7151    4.7540 O   0  0  0  0  0  0  0  0  0  0  0  0
    3.8246   -3.9815    2.9805 C   0  0  1  0  0  0  0  0  0  0  0  0
    4.8734   -4.2723    4.0795 C   0  0  0  0  0  0  0  0  0  0  0  0
    3.6339   -5.1811    1.9462 C   0  0  1  0  0  0  0  0  0  0  0  0
    4.1455   -4.5592    0.6521 C   0  0  0  0  0  0  0  0  0  0  0  0
    4.9373   -4.9718   -0.3364 C   0  0  0  0  0  0  0  0  0  0  0  0
    5.3857   -3.8955   -1.0737 O   0  0  0  0  0  0  0  0  0  0  0  0
    4.8859   -2.7523   -0.5335 C   0  0  0  0  0  0  0  0  0  0  0  0
    5.0933   -1.6035   -0.9294 O   0  0  0  0  0  0  0  0  0  0  0  0
    3.9848   -3.1054    0.6663 C   0  0  1  0  0  0  0  0  0  0  0  0
    2.6363   -2.7278    0.4404 O   0  0  0  0  0  0  0  0  0  0  0  0
    4.4703   -2.8349    2.0921 C   0  0  1  0  0  0  0  0  0  0  0  0
    4.3604   -1.3684    2.5563 C   0  0  0  0  0  0  0  0  0  0  0  0
    4.0696   -6.6748    2.1877 C   0  0  1  0  0  0  0  0  0  0  0  0
    4.9174   -7.3904    3.3015 C   0  0  1  0  0  0  0  0  0  0  0  0
    3.6110   -8.0251    3.8693 C   0  0  1  0  0  0  0  0  0  0  0  0
    2.8872   -7.6019    5.1787 C   0  0  1  0  0  0  0  0  0  0  0  0
    3.8477   -7.7432    6.3907 C   0  0  0  0  0  0  0  0  0  0  0  0
    2.9923   -8.2053    7.5724 C   0  0  0  0  0  0  0  0  0  0  0  0
    1.8110   -8.8352    6.8514 C   0  0  0  0  0  0  0  0  0  0  0  0
    0.9016   -9.4426    7.4131 O   0  0  0  0  0  0  0  0  0  0  0  0
    1.8991   -8.5741    5.5307 O   0  0  0  0  0  0  0  0  0  0  0  0
    3.1166   -7.8841    2.4210 C   0  0  2  0  0  0  0  0  0  0  0  0
    3.5737   -9.0857    1.5623 C   0  0  0  0  0  0  0  0  0  0  0  0
    5.0595   -9.5057    1.8704 C   0  0  0  0  0  0  0  0  0  0  0  0
    5.8892   -8.4612    2.7248 C   0  0  1  0  0  0  0  0  0  0  0  0
    7.0193   -7.8135    1.8837 C   0  0  0  0  0  0  0  0  0  0  0  0
    6.5865   -9.1729    3.9016 C   0  0  0  0  0  0  0  0  0  0  0  0
    7.3866  -10.0917    3.7297 O   0  0  0  0  0  0  0  0  0  0  0  0
    1.7129   -7.7020    2.3012 O   0  0  0  0  0  0  0  0  0  0  0  0
    0.9451   -6.7760    2.9198 C   0  0  0  0  0  0  0  0  0  0  0  0
   -0.2407   -6.6822    2.6047 O   0  0  0  0  0  0  0  0  0  0  0  0
    1.9388   -5.8261    7.1782 H   0  0  0  0  0  0  0  0  0  0  0  0
    1.6619   -4.4312    6.2063 H   0  0  0  0  0  0  0  0  0  0  0  0
    3.2975   -4.9362    6.4728 H   0  0  0  0  0  0  0  0  0  0  0  0
    0.6216   -4.2916    2.8168 H   0  0  0  0  0  0  0  0  0  0  0  0
    0.5134   -4.0317    4.5015 H   0  0  0  0  0  0  0  0  0  0  0  0
    2.0448   -2.7097    2.8694 H   0  0  0  0  0  0  0  0  0  0  0  0
    3.2231   -2.0113    4.5783 H   0  0  0  0  0  0  0  0  0  0  0  0
    5.8132   -4.6267    3.6524 H   0  0  0  0  0  0  0  0  0  0  0  0
    4.5437   -5.0193    4.7847 H   0  0  0  0  0  0  0  0  0  0  0  0
    5.1172   -3.3830    4.6576 H   0  0  0  0  0  0  0  0  0  0  0  0
    2.5907   -5.1828    1.6556 H   0  0  0  0  0  0  0  0  0  0  0  0
    5.3671   -5.9286   -0.5578 H   0  0  0  0  0  0  0  0  0  0  0  0
    2.5886   -1.8248    0.1590 H   0  0  0  0  0  0  0  0  0  0  0  0
    5.5511   -3.0177    2.0745 H   0  0  0  0  0  0  0  0  0  0  0  0
    3.3403   -0.9829    2.5141 H   0  0  0  0  0  0  0  0  0  0  0  0
    4.9668   -0.7230    1.9193 H   0  0  0  0  0  0  0  0  0  0  0  0
    4.7293   -1.2448    3.5766 H   0  0  0  0  0  0  0  0  0  0  0  0
    4.5640   -6.9346    1.2514 H   0  0  0  0  0  0  0  0  0  0  0  0
    5.4112   -6.7517    4.0350 H   0  0  0  0  0  0  0  0  0  0  0  0
    3.7842   -9.0869    4.0172 H   0  0  0  0  0  0  0  0  0  0  0  0
    4.5674   -8.5332    6.1931 H   0  0  0  0  0  0  0  0  0  0  0  0
    4.4515   -6.8537    6.5747 H   0  0  0  0  0  0  0  0  0  0  0  0
    3.5228   -8.9124    8.2156 H   0  0  0  0  0  0  0  0  0  0  0  0
    2.6319   -7.3532    8.1630 H   0  0  0  0  0  0  0  0  0  0  0  0
    2.9183   -9.9439    1.7068 H   0  0  0  0  0  0  0  0  0  0  0  0
    3.4763   -8.8444    0.5035 H   0  0  0  0  0  0  0  0  0  0  0  0
    5.0159  -10.4631    2.4045 H   0  0  0  0  0  0  0  0  0  0  0  0
    5.5645   -9.7406    0.9262 H   0  0  0  0  0  0  0  0  0  0  0  0
    6.6605   -7.3124    0.9896 H   0  0  0  0  0  0  0  0  0  0  0  0
    7.7563   -8.5486    1.5519 H   0  0  0  0  0  0  0  0  0  0  0  0
    7.5621   -7.0742    2.4707 H   0  0  0  0  0  0  0  0  0  0  0  0
    6.3238   -8.7977    4.8883 H   0  0  0  0  0  0  0  0  0  0  0  0
  1  2  1  0
  1 38  1  0
  1 39  1  0
  1 40  1  0
  2 22  1  0
  2  3  2  0
  3 36  1  0
  3  4  1  0
  4  5  1  0
  4 41  1  0
  4 42  1  0
  5  6  1  0
  5  7  1  0
  5 43  1  6
  6 44  1  0
  7 17  1  0
  7  8  1  1
  7  9  1  0
  8 45  1  0
  8 46  1  0
  8 47  1  0
  9 10  1  0
  9 19  1  0
  9 48  1  6
 10 15  1  0
 10 11  2  0
 11 12  1  0
 11 49  1  0
 12 13  1  0
 13 14  2  0
 13 15  1  0
 15 16  1  6
 15 17  1  0
 16 50  1  0
 17 18  1  0
 17 51  1  6
 18 52  1  0
 18 53  1  0
 18 54  1  0
 19 28  1  0
 19 20  1  0
 19 55  1  6
 20 31  1  0
 20 21  1  0
 20 56  1  1
 21 22  1  0
 21 28  1  0
 21 57  1  1
 22 27  1  1
 22 23  1  0
 23 24  1  0
 23 58  1  0
 23 59  1  0
 24 25  1  0
 24 60  1  0
 24 61  1  0
 25 26  2  0
 25 27  1  0
 28 29  1  6
 28 35  1  0
 29 30  1  0
 29 62  1  0
 29 63  1  0
 30 31  1  0
 30 64  1  0
 30 65  1  0
 31 32  1  6
 31 33  1  0
 32 66  1  0
 32 67  1  0
 32 68  1  0
 33 34  2  0
 33 69  1  0
 35 36  1  0
 36 37  2  0
M  END
>  <i_m_ct_stereo_status>  (358) 
1

>  <s_m_source_file>  (358) 
/var/tmp/pbs.5076255.sched01/tmp0i_w_vt9/132llf9lao3.sdf

>  <i_m_source_file_index>  (358) 
17

>  <i_lp_mmshare_version>  (358) 
48012

>  <i_f3d_flags>  (358) 
0

>  <s_epik_input>  (358) 
Tz1DMU9bQ0hdPUMyW0NAQF0xKFtPSF0pW0NAQEhdKFtDSDNdKVtDQEBdKFtDSDNdKShbQ0BIXShbT0hdKVtDSDJdQyhDKE8zKT1PKT1DNFtDSDNdKVtDQEBIXTJbQ0BASF0oW0NAQEhdNVtDQEBdKFtDSDNdKShbQ0hdPU8pW0NIMl1bQ0gyXTYpW0NAQF0zNltDQEBIXTVbQ0BAXTQ3W0NIMl1bQ0gyXUMoPU8pTzc=

>  <s_epik_cmdline>  (358) 
J2VwaWtfcHl0aG9uJywgJy1waHQnLCAnMi4wJywgJy1waCcsICc3LjAnLCAnLXRuJywgJzgnLCAnLW1hJywgJzIwMCcsICctaW1hZScsICc8aW5maWxlLm1hZT4nLCAnLW9tYWUnLCAnPG91dGZpbGUubWFlPic=

>  <r_epik_Ionization_Penalty>  (358) 
0.00270977

>  <r_epik_Ionization_Penalty_Charging>  (358) 
0

>  <r_epik_Ionization_Penalty_Neutral>  (358) 
0.00270977

>  <r_epik_State_Penalty>  (358) 
0.00188824

>  <r_epik_Charging_Adjusted_Penalty>  (358) 
0.00188824

>  <i_epik_Tot_Q>  (358) 
0

>  <i_epik_Tot_abs_Q>  (358) 
0

>  <s_epik_Chemistry_Notes>  (358) 
This compound has an ester and may undergo hydrolysis at high or low pH.

>  <s_lp_Force_Field>  (358) 
OPLS3e

>  <r_lp_Energy>  (358) 
121.707

>  <b_lp_Chiralities_Consistent>  (358) 
1

>  <s_lp_Variant>  (358) 
101:0-1

>  <s_i_glide_gridfile>  (358) 
pfpi4k_grid

>  <i_i_glide_lignum>  (358) 
17

>  <i_i_glide_rotatable_bonds>  (358) 
3

>  <r_i_docking_score>  (358) 
-2.49587

>  <r_i_glide_ligand_efficiency>  (358) 
-0.0674559

>  <r_i_glide_ligand_efficiency_sa>  (358) 
-0.224778

>  <r_i_glide_ligand_efficiency_ln>  (358) 
-0.541295

>  <r_i_glide_gscore>  (358) 
-2.49587

>  <r_i_glide_lipo>  (358) 
-0.207852

>  <r_i_glide_hbond>  (358) 
-0.16

>  <r_i_glide_metal>  (358) 
-0

>  <r_i_glide_rewards>  (358) 
-0.0138848

>  <r_i_glide_evdw>  (358) 
-30.4597

>  <r_i_glide_ecoul>  (358) 
-3.40455

>  <r_i_glide_erotb>  (358) 
0

>  <r_i_glide_esite>  (358) 
-0.080463

>  <r_i_glide_emodel>  (358) 
-36.8325

>  <r_i_glide_energy>  (358) 
-33.8643

>  <r_i_glide_einternal>  (358) 
2.354

>  <r_i_glide_intrahb_reward>  (358) 
-0

>  <i_i_glide_confnum>  (358) 
1

>  <i_i_glide_posenum>  (358) 
38

>  <r_i_glide_eff_state_penalty>  (358) 
0

>  <ligand_id>  (358) 
101

>  <original_smiles>  (358) 
CC1=C2CC(O)C3(C)C(C4=COC(=O)C4(O)C3C)C3C4C(C15CCC(=O)O5)C3(CCC4(C)C=O)OC2=O

>  <smiles>  (358) 
[H]OC12C(=O)OC([H])=C1C1([H])C3([H])C4([H])C5([H])C6(OC(=O)C([H])([H])C6([H])[H])C(C([H])([H])[H])=C(C(=O)OC35C([H])([H])C([H])([H])C4(C([H])=O)C([H])([H])[H])C([H])([H])C([H])(O[H])C1(C([H])([H])[H])C2([H])C([H])([H])[H]

$$$$
101:0:1
     RDKit          3D

 69 75  0  0  1  0  0  0  0  0999 V2000
    2.9953   -2.8650    5.9014 C   0  0  0  0  0  0  0  0  0  0  0  0
    3.0244   -4.2332    5.1972 C   0  0  0  0  0  0  0  0  0  0  0  0
    2.1933   -4.4910    4.1783 C   0  0  0  0  0  0  0  0  0  0  0  0
    1.5046   -3.3587    3.4258 C   0  0  0  0  0  0  0  0  0  0  0  0
    2.4783   -2.3770    2.6886 C   0  0  1  0  0  0  0  0  0  0  0  0
    2.6047   -1.1632    3.4084 O   0  0  0  0  0  0  0  0  0  0  0  0
    3.9003   -2.8574    2.1462 C   0  0  1  0  0  0  0  0  0  0  0  0
    5.0716   -2.4526    3.0697 C   0  0  0  0  0  0  0  0  0  0  0  0
    3.9084   -4.3886    1.7232 C   0  0  1  0  0  0  0  0  0  0  0  0
    4.1501   -4.3030    0.2313 C   0  0  0  0  0  0  0  0  0  0  0  0
    4.9480   -4.9431   -0.6198 C   0  0  0  0  0  0  0  0  0  0  0  0
    5.0752   -4.2335   -1.7832 O   0  0  0  0  0  0  0  0  0  0  0  0
    4.3646   -3.0744   -1.6883 C   0  0  0  0  0  0  0  0  0  0  0  0
    4.2728   -2.1809   -2.5258 O   0  0  0  0  0  0  0  0  0  0  0  0
    3.6590   -3.0413   -0.3281 C   0  0  1  0  0  0  0  0  0  0  0  0
    2.2408   -3.0559   -0.4600 O   0  0  0  0  0  0  0  0  0  0  0  0
    4.1837   -2.1121    0.7751 C   0  0  1  0  0  0  0  0  0  0  0  0
    3.7949   -0.6296    0.6272 C   0  0  0  0  0  0  0  0  0  0  0  0
    4.7019   -5.5437    2.4646 C   0  0  1  0  0  0  0  0  0  0  0  0
    5.7801   -5.5375    3.6069 C   0  0  1  0  0  0  0  0  0  0  0  0
    4.7023   -6.0789    4.5984 C   0  0  1  0  0  0  0  0  0  0  0  0
    4.0141   -5.2672    5.7422 C   0  0  1  0  0  0  0  0  0  0  0  0
    5.0797   -4.7150    6.7301 C   0  0  0  0  0  0  0  0  0  0  0  0
    4.4759   -4.7915    8.1319 C   0  0  0  0  0  0  0  0  0  0  0  0
    3.4193   -5.8683    7.9267 C   0  0  0  0  0  0  0  0  0  0  0  0
    2.7535   -6.3573    8.8322 O   0  0  0  0  0  0  0  0  0  0  0  0
    3.3193   -6.1583    6.6129 O   0  0  0  0  0  0  0  0  0  0  0  0
    4.0782   -6.6726    3.3234 C   0  0  2  0  0  0  0  0  0  0  0  0
    4.7308   -8.0287    2.9597 C   0  0  0  0  0  0  0  0  0  0  0  0
    6.2892   -8.0105    3.1592 C   0  0  0  0  0  0  0  0  0  0  0  0
    6.9313   -6.5805    3.3644 C   0  0  1  0  0  0  0  0  0  0  0  0
    7.7995   -6.1624    2.1518 C   0  0  0  0  0  0  0  0  0  0  0  0
    7.8897   -6.6232    4.5683 C   0  0  0  0  0  0  0  0  0  0  0  0
    8.0624   -5.6299    5.2811 O   0  0  0  0  0  0  0  0  0  0  0  0
    2.6808   -6.8102    3.4016 O   0  0  0  0  0  0  0  0  0  0  0  0
    1.7522   -5.8654    3.7149 C   0  0  0  0  0  0  0  0  0  0  0  0
    0.5722   -6.1529    3.6092 O   0  0  0  0  0  0  0  0  0  0  0  0
    2.8023   -2.9870    6.9608 H   0  0  0  0  0  0  0  0  0  0  0  0
    2.1798   -2.2243    5.5586 H   0  0  0  0  0  0  0  0  0  0  0  0
    3.9022   -2.2878    5.7524 H   0  0  0  0  0  0  0  0  0  0  0  0
    0.8483   -3.7814    2.6739 H   0  0  0  0  0  0  0  0  0  0  0  0
    0.8260   -2.8284    4.0932 H   0  0  0  0  0  0  0  0  0  0  0  0
    1.8821   -2.0823    1.8245 H   0  0  0  0  0  0  0  0  0  0  0  0
    1.7565   -0.7406    3.4261 H   0  0  0  0  0  0  0  0  0  0  0  0
    6.0256   -2.7792    2.6573 H   0  0  0  0  0  0  0  0  0  0  0  0
    4.9884   -2.8735    4.0569 H   0  0  0  0  0  0  0  0  0  0  0  0
    5.1433   -1.3741    3.1931 H   0  0  0  0  0  0  0  0  0  0  0  0
    2.8772   -4.6957    1.6396 H   0  0  0  0  0  0  0  0  0  0  0  0
    5.5638   -5.8214   -0.4921 H   0  0  0  0  0  0  0  0  0  0  0  0
    1.9170   -2.2043   -0.7274 H   0  0  0  0  0  0  0  0  0  0  0  0
    5.2705   -2.0914    0.6497 H   0  0  0  0  0  0  0  0  0  0  0  0
    2.7152   -0.4788    0.6052 H   0  0  0  0  0  0  0  0  0  0  0  0
    4.1922   -0.2323   -0.3064 H   0  0  0  0  0  0  0  0  0  0  0  0
    4.2013   -0.0238    1.4399 H   0  0  0  0  0  0  0  0  0  0  0  0
    5.1601   -6.0784    1.6467 H   0  0  0  0  0  0  0  0  0  0  0  0
    6.1543   -4.5708    3.9193 H   0  0  0  0  0  0  0  0  0  0  0  0
    5.1360   -6.9209    5.1246 H   0  0  0  0  0  0  0  0  0  0  0  0
    5.9290   -5.3967    6.7356 H   0  0  0  0  0  0  0  0  0  0  0  0
    5.5002   -3.7555    6.4452 H   0  0  0  0  0  0  0  0  0  0  0  0
    5.2192   -5.0764    8.8939 H   0  0  0  0  0  0  0  0  0  0  0  0
    3.9927   -3.8581    8.4386 H   0  0  0  0  0  0  0  0  0  0  0  0
    4.2986   -8.8368    3.5418 H   0  0  0  0  0  0  0  0  0  0  0  0
    4.4970   -8.2773    1.9265 H   0  0  0  0  0  0  0  0  0  0  0  0
    6.5280   -8.6402    4.0302 H   0  0  0  0  0  0  0  0  0  0  0  0
    6.7500   -8.5163    2.3057 H   0  0  0  0  0  0  0  0  0  0  0  0
    7.2628   -6.1701    1.2040 H   0  0  0  0  0  0  0  0  0  0  0  0
    8.6579   -6.8246    2.0277 H   0  0  0  0  0  0  0  0  0  0  0  0
    8.1945   -5.1560    2.2862 H   0  0  0  0  0  0  0  0  0  0  0  0
    8.4138   -7.5566    4.7558 H   0  0  0  0  0  0  0  0  0  0  0  0
  1  2  1  0
  1 38  1  0
  1 39  1  0
  1 40  1  0
  2 22  1  0
  2  3  2  0
  3 36  1  0
  3  4  1  0
  4  5  1  0
  4 41  1  0
  4 42  1  0
  5  6  1  0
  5  7  1  0
  5 43  1  6
  6 44  1  0
  7 17  1  0
  7  8  1  1
  7  9  1  0
  8 45  1  0
  8 46  1  0
  8 47  1  0
  9 10  1  0
  9 19  1  0
  9 48  1  6
 10 15  1  0
 10 11  2  0
 11 12  1  0
 11 49  1  0
 12 13  1  0
 13 14  2  0
 13 15  1  0
 15 16  1  6
 15 17  1  0
 16 50  1  0
 17 18  1  0
 17 51  1  6
 18 52  1  0
 18 53  1  0
 18 54  1  0
 19 28  1  0
 19 20  1  0
 19 55  1  6
 20 31  1  0
 20 21  1  0
 20 56  1  1
 21 22  1  0
 21 28  1  0
 21 57  1  1
 22 27  1  1
 22 23  1  0
 23 24  1  0
 23 58  1  0
 23 59  1  0
 24 25  1  0
 24 60  1  0
 24 61  1  0
 25 26  2  0
 25 27  1  0
 28 29  1  6
 28 35  1  0
 29 30  1  0
 29 62  1  0
 29 63  1  0
 30 31  1  0
 30 64  1  0
 30 65  1  0
 31 32  1  6
 31 33  1  0
 32 66  1  0
 32 67  1  0
 32 68  1  0
 33 34  2  0
 33 69  1  0
 35 36  1  0
 36 37  2  0
M  END
>  <i_m_ct_stereo_status>  (359) 
1

>  <s_m_source_file>  (359) 
/var/tmp/pbs.5076255.sched01/tmp0i_w_vt9/132llf9lao3.sdf

>  <i_m_source_file_index>  (359) 
17

>  <i_lp_mmshare_version>  (359) 
48012

>  <i_f3d_flags>  (359) 
0

>  <s_epik_input>  (359) 
Tz1DMU9bQ0hdPUMyW0NAQF0xKFtPSF0pW0NAQEhdKFtDSDNdKVtDQEBdKFtDSDNdKShbQ0BIXShbT0hdKVtDSDJdQyhDKE8zKT1PKT1DNFtDSDNdKVtDQEBIXTJbQ0BASF0oW0NAQEhdNVtDQEBdKFtDSDNdKShbQ0hdPU8pW0NIMl1bQ0gyXTYpW0NAQF0zNltDQEBIXTVbQ0BAXTQ3W0NIMl1bQ0gyXUMoPU8pTzc=

>  <s_epik_cmdline>  (359) 
J2VwaWtfcHl0aG9uJywgJy1waHQnLCAnMi4wJywgJy1waCcsICc3LjAnLCAnLXRuJywgJzgnLCAnLW1hJywgJzIwMCcsICctaW1hZScsICc8aW5maWxlLm1hZT4nLCAnLW9tYWUnLCAnPG91dGZpbGUubWFlPic=

>  <r_epik_Ionization_Penalty>  (359) 
0.00270977

>  <r_epik_Ionization_Penalty_Charging>  (359) 
0

>  <r_epik_Ionization_Penalty_Neutral>  (359) 
0.00270977

>  <r_epik_State_Penalty>  (359) 
0.00188824

>  <r_epik_Charging_Adjusted_Penalty>  (359) 
0.00188824

>  <i_epik_Tot_Q>  (359) 
0

>  <i_epik_Tot_abs_Q>  (359) 
0

>  <s_epik_Chemistry_Notes>  (359) 
This compound has an ester and may undergo hydrolysis at high or low pH.

>  <s_lp_Force_Field>  (359) 
OPLS3e

>  <r_lp_Energy>  (359) 
121.707

>  <b_lp_Chiralities_Consistent>  (359) 
1

>  <s_lp_Variant>  (359) 
101:0-1

>  <s_i_glide_gridfile>  (359) 
pfpi4k_grid

>  <i_i_glide_lignum>  (359) 
17

>  <i_i_glide_rotatable_bonds>  (359) 
3

>  <r_i_docking_score>  (359) 
-2.33564

>  <r_i_glide_ligand_efficiency>  (359) 
-0.0631253

>  <r_i_glide_ligand_efficiency_sa>  (359) 
-0.210347

>  <r_i_glide_ligand_efficiency_ln>  (359) 
-0.506545

>  <r_i_glide_gscore>  (359) 
-2.33564

>  <r_i_glide_lipo>  (359) 
-0.132443

>  <r_i_glide_hbond>  (359) 
0

>  <r_i_glide_metal>  (359) 
-0

>  <r_i_glide_rewards>  (359) 
-0.021978

>  <r_i_glide_evdw>  (359) 
-24.4067

>  <r_i_glide_ecoul>  (359) 
-6.28031

>  <r_i_glide_erotb>  (359) 
0

>  <r_i_glide_esite>  (359) 
-0.0188329

>  <r_i_glide_emodel>  (359) 
-33.5365

>  <r_i_glide_energy>  (359) 
-30.687

>  <r_i_glide_einternal>  (359) 
2.74002

>  <r_i_glide_intrahb_reward>  (359) 
-0

>  <i_i_glide_confnum>  (359) 
3

>  <i_i_glide_posenum>  (359) 
13

>  <r_i_glide_eff_state_penalty>  (359) 
0

>  <ligand_id>  (359) 
101

>  <original_smiles>  (359) 
CC1=C2CC(O)C3(C)C(C4=COC(=O)C4(O)C3C)C3C4C(C15CCC(=O)O5)C3(CCC4(C)C=O)OC2=O

>  <smiles>  (359) 
[H]OC12C(=O)OC([H])=C1C1([H])C3([H])C4([H])C5([H])C6(OC(=O)C([H])([H])C6([H])[H])C(C([H])([H])[H])=C(C(=O)OC35C([H])([H])C([H])([H])C4(C([H])=O)C([H])([H])[H])C([H])([H])C([H])(O[H])C1(C([H])([H])[H])C2([H])C([H])([H])[H]

$$$$
101:0:2
     RDKit          3D

 69 75  0  0  1  0  0  0  0  0999 V2000
    2.9536   -3.2875    6.0272 C   0  0  0  0  0  0  0  0  0  0  0  0
    3.0421   -4.6002    5.2350 C   0  0  0  0  0  0  0  0  0  0  0  0
    2.2168   -4.8200    4.1961 C   0  0  0  0  0  0  0  0  0  0  0  0
    1.4739   -3.6710    3.5411 C   0  0  0  0  0  0  0  0  0  0  0  0
    2.3957   -2.5979    2.8771 C   0  0  1  0  0  0  0  0  0  0  0  0
    2.4449   -1.4493    3.7043 O   0  0  0  0  0  0  0  0  0  0  0  0
    3.8413   -2.9552    2.2974 C   0  0  1  0  0  0  0  0  0  0  0  0
    4.9956   -2.5615    3.2495 C   0  0  0  0  0  0  0  0  0  0  0  0
    3.9322   -4.4501    1.7619 C   0  0  1  0  0  0  0  0  0  0  0  0
    4.1638   -4.2545    0.2749 C   0  0  0  0  0  0  0  0  0  0  0  0
    4.9832   -4.7861   -0.6273 C   0  0  0  0  0  0  0  0  0  0  0  0
    5.0736   -3.9908   -1.7350 O   0  0  0  0  0  0  0  0  0  0  0  0
    4.3086   -2.8819   -1.5555 C   0  0  0  0  0  0  0  0  0  0  0  0
    4.1455   -1.9431   -2.3298 O   0  0  0  0  0  0  0  0  0  0  0  0
    3.6173   -2.9760   -0.1899 C   0  0  1  0  0  0  0  0  0  0  0  0
    2.2245   -3.0608   -0.3204 O   0  0  0  0  0  0  0  0  0  0  0  0
    4.0813   -2.0987    0.9820 C   0  0  1  0  0  0  0  0  0  0  0  0
    3.6067   -0.6318    0.9415 C   0  0  0  0  0  0  0  0  0  0  0  0
    4.7808   -5.6108    2.4352 C   0  0  1  0  0  0  0  0  0  0  0  0
    5.8660   -5.6567    3.5673 C   0  0  1  0  0  0  0  0  0  0  0  0
    4.8085   -6.3119    4.5133 C   0  0  1  0  0  0  0  0  0  0  0  0
    4.0783   -5.6186    5.7039 C   0  0  1  0  0  0  0  0  0  0  0  0
    5.1226   -5.0771    6.7180 C   0  0  0  0  0  0  0  0  0  0  0  0
    4.5094   -5.2705    8.1100 C   0  0  0  0  0  0  0  0  0  0  0  0
    3.5131   -6.3923    7.8350 C   0  0  0  0  0  0  0  0  0  0  0  0
    2.8755   -6.9677    8.7133 O   0  0  0  0  0  0  0  0  0  0  0  0
    3.4319   -6.6024    6.5084 O   0  0  0  0  0  0  0  0  0  0  0  0
    4.2187   -6.8348    3.1962 C   0  0  2  0  0  0  0  0  0  0  0  0
    4.9250   -8.1283    2.7282 C   0  0  0  0  0  0  0  0  0  0  0  0
    6.4853   -8.0501    2.9301 C   0  0  0  0  0  0  0  0  0  0  0  0
    7.0606   -6.6051    3.2477 C   0  0  1  0  0  0  0  0  0  0  0  0
    7.9006   -6.0555    2.0663 C   0  0  0  0  0  0  0  0  0  0  0  0
    8.0075   -6.6148    4.4660 C   0  0  0  0  0  0  0  0  0  0  0  0
    7.8359   -7.3548    5.4297 O   0  0  0  0  0  0  0  0  0  0  0  0
    2.8221   -7.0442    3.2597 O   0  0  0  0  0  0  0  0  0  0  0  0
    1.8447   -6.1665    3.6445 C   0  0  0  0  0  0  0  0  0  0  0  0
    0.6692   -6.4963    3.5199 O   0  0  0  0  0  0  0  0  0  0  0  0
    2.7619   -3.4807    7.0793 H   0  0  0  0  0  0  0  0  0  0  0  0
    2.0846   -2.6831    5.7772 H   0  0  0  0  0  0  0  0  0  0  0  0
    3.8273   -2.6394    5.9353 H   0  0  0  0  0  0  0  0  0  0  0  0
    0.8308   -4.0742    2.7634 H   0  0  0  0  0  0  0  0  0  0  0  0
    0.7730   -3.2247    4.2477 H   0  0  0  0  0  0  0  0  0  0  0  0
    1.7780   -2.2717    2.0440 H   0  0  0  0  0  0  0  0  0  0  0  0
    2.7541   -0.7193    3.1881 H   0  0  0  0  0  0  0  0  0  0  0  0
    5.9635   -2.8110    2.8189 H   0  0  0  0  0  0  0  0  0  0  0  0
    4.9354   -3.0543    4.2058 H   0  0  0  0  0  0  0  0  0  0  0  0
    5.0159   -1.4914    3.4483 H   0  0  0  0  0  0  0  0  0  0  0  0
    2.9202   -4.8136    1.6667 H   0  0  0  0  0  0  0  0  0  0  0  0
    5.6543   -5.6341   -0.5702 H   0  0  0  0  0  0  0  0  0  0  0  0
    1.8650   -2.2081   -0.5872 H   0  0  0  0  0  0  0  0  0  0  0  0
    5.1624   -2.0140    0.8586 H   0  0  0  0  0  0  0  0  0  0  0  0
    2.5210   -0.5419    0.9218 H   0  0  0  0  0  0  0  0  0  0  0  0
    3.9789   -0.1492    0.0398 H   0  0  0  0  0  0  0  0  0  0  0  0
    3.9894   -0.0616    1.7887 H   0  0  0  0  0  0  0  0  0  0  0  0
    5.2609   -6.0686    1.5859 H   0  0  0  0  0  0  0  0  0  0  0  0
    6.1943   -4.7044    3.9681 H   0  0  0  0  0  0  0  0  0  0  0  0
    5.2686   -7.1809    4.9787 H   0  0  0  0  0  0  0  0  0  0  0  0
    6.0260   -5.6819    6.6833 H   0  0  0  0  0  0  0  0  0  0  0  0
    5.4668   -4.0722    6.4946 H   0  0  0  0  0  0  0  0  0  0  0  0
    5.2499   -5.5343    8.8748 H   0  0  0  0  0  0  0  0  0  0  0  0
    3.9809   -4.3883    8.4788 H   0  0  0  0  0  0  0  0  0  0  0  0
    4.5435   -8.9954    3.2600 H   0  0  0  0  0  0  0  0  0  0  0  0
    4.6886   -8.3192    1.6813 H   0  0  0  0  0  0  0  0  0  0  0  0
    6.7286   -8.7390    3.7485 H   0  0  0  0  0  0  0  0  0  0  0  0
    6.9822   -8.4770    2.0555 H   0  0  0  0  0  0  0  0  0  0  0  0
    7.3618   -6.0233    1.1174 H   0  0  0  0  0  0  0  0  0  0  0  0
    8.7939   -6.6600    1.8997 H   0  0  0  0  0  0  0  0  0  0  0  0
    8.2492   -5.0406    2.2682 H   0  0  0  0  0  0  0  0  0  0  0  0
    8.8244   -5.8972    4.4262 H   0  0  0  0  0  0  0  0  0  0  0  0
  1  2  1  0
  1 38  1  0
  1 39  1  0
  1 40  1  0
  2 22  1  0
  2  3  2  0
  3 36  1  0
  3  4  1  0
  4  5  1  0
  4 41  1  0
  4 42  1  0
  5  6  1  0
  5  7  1  0
  5 43  1  6
  6 44  1  0
  7 17  1  0
  7  8  1  1
  7  9  1  0
  8 45  1  0
  8 46  1  0
  8 47  1  0
  9 10  1  0
  9 19  1  0
  9 48  1  6
 10 15  1  0
 10 11  2  0
 11 12  1  0
 11 49  1  0
 12 13  1  0
 13 14  2  0
 13 15  1  0
 15 16  1  6
 15 17  1  0
 16 50  1  0
 17 18  1  0
 17 51  1  6
 18 52  1  0
 18 53  1  0
 18 54  1  0
 19 28  1  0
 19 20  1  0
 19 55  1  6
 20 31  1  0
 20 21  1  0
 20 56  1  1
 21 22  1  0
 21 28  1  0
 21 57  1  1
 22 27  1  1
 22 23  1  0
 23 24  1  0
 23 58  1  0
 23 59  1  0
 24 25  1  0
 24 60  1  0
 24 61  1  0
 25 26  2  0
 25 27  1  0
 28 29  1  6
 28 35  1  0
 29 30  1  0
 29 62  1  0
 29 63  1  0
 30 31  1  0
 30 64  1  0
 30 65  1  0
 31 32  1  6
 31 33  1  0
 32 66  1  0
 32 67  1  0
 32 68  1  0
 33 34  2  0
 33 69  1  0
 35 36  1  0
 36 37  2  0
M  END
>  <i_m_ct_stereo_status>  (360) 
1

>  <s_m_source_file>  (360) 
/var/tmp/pbs.5076255.sched01/tmp0i_w_vt9/132llf9lao3.sdf

>  <i_m_source_file_index>  (360) 
17

>  <i_lp_mmshare_version>  (360) 
48012

>  <i_f3d_flags>  (360) 
0

>  <s_epik_input>  (360) 
Tz1DMU9bQ0hdPUMyW0NAQF0xKFtPSF0pW0NAQEhdKFtDSDNdKVtDQEBdKFtDSDNdKShbQ0BIXShbT0hdKVtDSDJdQyhDKE8zKT1PKT1DNFtDSDNdKVtDQEBIXTJbQ0BASF0oW0NAQEhdNVtDQEBdKFtDSDNdKShbQ0hdPU8pW0NIMl1bQ0gyXTYpW0NAQF0zNltDQEBIXTVbQ0BAXTQ3W0NIMl1bQ0gyXUMoPU8pTzc=

>  <s_epik_cmdline>  (360) 
J2VwaWtfcHl0aG9uJywgJy1waHQnLCAnMi4wJywgJy1waCcsICc3LjAnLCAnLXRuJywgJzgnLCAnLW1hJywgJzIwMCcsICctaW1hZScsICc8aW5maWxlLm1hZT4nLCAnLW9tYWUnLCAnPG91dGZpbGUubWFlPic=

>  <r_epik_Ionization_Penalty>  (360) 
0.00270977

>  <r_epik_Ionization_Penalty_Charging>  (360) 
0

>  <r_epik_Ionization_Penalty_Neutral>  (360) 
0.00270977

>  <r_epik_State_Penalty>  (360) 
0.00188824

>  <r_epik_Charging_Adjusted_Penalty>  (360) 
0.00188824

>  <i_epik_Tot_Q>  (360) 
0

>  <i_epik_Tot_abs_Q>  (360) 
0

>  <s_epik_Chemistry_Notes>  (360) 
This compound has an ester and may undergo hydrolysis at high or low pH.

>  <s_lp_Force_Field>  (360) 
OPLS3e

>  <r_lp_Energy>  (360) 
121.707

>  <b_lp_Chiralities_Consistent>  (360) 
1

>  <s_lp_Variant>  (360) 
101:0-1

>  <s_i_glide_gridfile>  (360) 
pfpi4k_grid

>  <i_i_glide_lignum>  (360) 
17

>  <i_i_glide_rotatable_bonds>  (360) 
3

>  <r_i_docking_score>  (360) 
-2.26178

>  <r_i_glide_ligand_efficiency>  (360) 
-0.0611292

>  <r_i_glide_ligand_efficiency_sa>  (360) 
-0.203696

>  <r_i_glide_ligand_efficiency_ln>  (360) 
-0.490527

>  <r_i_glide_gscore>  (360) 
-2.26178

>  <r_i_glide_lipo>  (360) 
-0.129088

>  <r_i_glide_hbond>  (360) 
0

>  <r_i_glide_metal>  (360) 
-0

>  <r_i_glide_rewards>  (360) 
-0.0271261

>  <r_i_glide_evdw>  (360) 
-25.0933

>  <r_i_glide_ecoul>  (360) 
-5.52618

>  <r_i_glide_erotb>  (360) 
0

>  <r_i_glide_esite>  (360) 
-0.0219717

>  <r_i_glide_emodel>  (360) 
-33.666

>  <r_i_glide_energy>  (360) 
-30.6195

>  <r_i_glide_einternal>  (360) 
2.29845

>  <r_i_glide_intrahb_reward>  (360) 
-0

>  <i_i_glide_confnum>  (360) 
3

>  <i_i_glide_posenum>  (360) 
25

>  <r_i_glide_eff_state_penalty>  (360) 
0

>  <ligand_id>  (360) 
101

>  <original_smiles>  (360) 
CC1=C2CC(O)C3(C)C(C4=COC(=O)C4(O)C3C)C3C4C(C15CCC(=O)O5)C3(CCC4(C)C=O)OC2=O

>  <smiles>  (360) 
[H]OC12C(=O)OC([H])=C1C1([H])C3([H])C4([H])C5([H])C6(OC(=O)C([H])([H])C6([H])[H])C(C([H])([H])[H])=C(C(=O)OC35C([H])([H])C([H])([H])C4(C([H])=O)C([H])([H])[H])C([H])([H])C([H])(O[H])C1(C([H])([H])[H])C2([H])C([H])([H])[H]

$$$$
102:0:0
     RDKit          3D

 95100  0  0  1  0  0  0  0  0999 V2000
    2.6801   -9.8522    2.3036 C   0  0  0  0  0  0  0  0  0  0  0  0
    2.0443   -9.1508    3.2609 C   0  0  0  0  0  0  0  0  0  0  0  0
    1.3559   -7.8533    2.8034 C   0  0  2  0  0  0  0  0  0  0  0  0
    2.2488   -6.6231    2.4867 C   0  0  2  0  0  0  0  0  0  0  0  0
    2.8427   -6.1024    1.1992 C   0  0  0  0  0  0  0  0  0  0  0  0
    2.9358   -4.5412    1.2893 C   0  0  0  0  0  0  0  0  0  0  0  0
    3.6341   -3.7527    2.4957 C   0  0  1  0  0  0  0  0  0  0  0  0
    5.1760   -3.8262    2.2075 C   0  0  0  0  0  0  0  0  0  0  0  0
    3.1682   -2.2455    2.3159 C   0  0  2  0  0  0  0  0  0  0  0  0
    3.9346   -1.2045    1.4464 C   0  0  1  0  0  0  0  0  0  0  0  0
    4.0067   -1.5203   -0.0600 C   0  0  0  0  0  0  0  0  0  0  0  0
    3.2738    0.1898    1.6039 C   0  0  0  0  0  0  0  0  0  0  0  0
    2.8173    0.5786    3.0302 C   0  0  1  0  0  0  0  0  0  0  0  0
    1.8072    1.7735    3.0568 C   0  0  2  0  0  0  0  0  0  0  0  0
    2.0291    2.5825    4.2065 O   0  0  0  0  0  0  0  0  0  0  0  0
    3.1237    3.4912    4.1634 C   0  0  0  0  0  0  0  0  0  0  0  0
    2.9867    4.5749    3.0767 C   0  0  0  0  0  0  0  0  0  0  0  0
    0.2735    1.4418    2.9980 C   0  0  0  0  0  0  0  0  0  0  0  0
   -0.0744    0.6827    1.7215 C   0  0  0  0  0  0  0  0  0  0  0  0
   -0.3349    0.7346    4.2363 C   0  0  0  0  0  0  0  0  0  0  0  0
   -0.4476    2.6588    2.8915 O   0  0  0  0  0  0  0  0  0  0  0  0
    2.2395   -0.5148    3.7339 O   0  0  0  0  0  0  0  0  0  0  0  0
    3.0257   -1.6928    3.7188 C   0  0  1  0  0  0  0  0  0  0  0  0
    2.4234   -2.8404    4.5413 C   0  0  1  0  0  0  0  0  0  0  0  0
    1.0624   -2.8690    4.1806 O   0  0  0  0  0  0  0  0  0  0  0  0
    3.2695   -4.0845    4.0897 C   0  0  2  0  0  0  0  0  0  0  0  0
    4.5803   -3.8924    4.9419 C   0  0  0  0  0  0  0  0  0  0  0  0
    2.8731   -5.5997    4.6017 C   0  0  2  0  0  0  0  0  0  0  0  0
    3.3767   -6.4893    3.5082 C   0  0  0  0  0  0  0  0  0  0  0  0
    1.4539   -6.2601    5.0721 C   0  0  2  0  0  0  0  0  0  0  0  0
    0.5912   -5.2353    5.8488 C   0  0  0  0  0  0  0  0  0  0  0  0
    1.6838   -7.3926    6.1308 C   0  0  0  0  0  0  0  0  0  0  0  0
    2.4943   -8.6643    5.8099 C   0  0  0  0  0  0  0  0  0  0  0  0
    1.9809   -9.6495    4.7245 C   0  0  1  0  0  0  0  0  0  0  0  0
    0.6129  -10.2626    5.0650 C   0  0  0  0  0  0  0  0  0  0  0  0
    2.8482  -10.7639    4.9007 O   0  0  0  0  0  0  0  0  0  0  0  0
    0.6641   -6.8731    3.8374 C   0  0  2  0  0  0  0  0  0  0  0  0
   -0.8180   -7.1573    4.1392 C   0  0  0  0  0  0  0  0  0  0  0  0
    0.8691   -5.9325    2.6921 C   0  0  0  0  0  0  0  0  0  0  0  0
    3.1774  -10.7908    2.5044 H   0  0  0  0  0  0  0  0  0  0  0  0
    2.7019   -9.4969    1.2820 H   0  0  0  0  0  0  0  0  0  0  0  0
    0.6960   -8.1228    1.9686 H   0  0  0  0  0  0  0  0  0  0  0  0
    3.8127   -6.5533    0.9774 H   0  0  0  0  0  0  0  0  0  0  0  0
    2.1907   -6.3575    0.3667 H   0  0  0  0  0  0  0  0  0  0  0  0
    3.3981   -4.2299    0.3554 H   0  0  0  0  0  0  0  0  0  0  0  0
    1.9187   -4.1750    1.1638 H   0  0  0  0  0  0  0  0  0  0  0  0
    5.7320   -3.0298    2.6964 H   0  0  0  0  0  0  0  0  0  0  0  0
    5.4017   -3.7356    1.1486 H   0  0  0  0  0  0  0  0  0  0  0  0
    5.6533   -4.7559    2.5062 H   0  0  0  0  0  0  0  0  0  0  0  0
    2.1592   -2.2393    1.9082 H   0  0  0  0  0  0  0  0  0  0  0  0
    4.9614   -1.1072    1.8211 H   0  0  0  0  0  0  0  0  0  0  0  0
    3.0068   -1.6536   -0.4815 H   0  0  0  0  0  0  0  0  0  0  0  0
    4.5811   -2.4123   -0.2952 H   0  0  0  0  0  0  0  0  0  0  0  0
    4.4700   -0.6958   -0.6038 H   0  0  0  0  0  0  0  0  0  0  0  0
    3.9708    0.9466    1.2546 H   0  0  0  0  0  0  0  0  0  0  0  0
    2.4388    0.2590    0.9078 H   0  0  0  0  0  0  0  0  0  0  0  0
    3.7292    0.8436    3.5751 H   0  0  0  0  0  0  0  0  0  0  0  0
    2.0040    2.3782    2.1676 H   0  0  0  0  0  0  0  0  0  0  0  0
    3.1615    3.9755    5.1332 H   0  0  0  0  0  0  0  0  0  0  0  0
    4.0625    2.9563    4.0683 H   0  0  0  0  0  0  0  0  0  0  0  0
    3.8072    5.2931    3.1344 H   0  0  0  0  0  0  0  0  0  0  0  0
    2.0644    5.1445    3.1992 H   0  0  0  0  0  0  0  0  0  0  0  0
    2.9861    4.1579    2.0670 H   0  0  0  0  0  0  0  0  0  0  0  0
    0.4176   -0.2875    1.6798 H   0  0  0  0  0  0  0  0  0  0  0  0
    0.2354    1.2606    0.8526 H   0  0  0  0  0  0  0  0  0  0  0  0
   -1.1472    0.5262    1.6361 H   0  0  0  0  0  0  0  0  0  0  0  0
    0.1221   -0.2245    4.4781 H   0  0  0  0  0  0  0  0  0  0  0  0
   -1.3974    0.5333    4.0760 H   0  0  0  0  0  0  0  0  0  0  0  0
   -0.2542    1.3715    5.1163 H   0  0  0  0  0  0  0  0  0  0  0  0
   -0.1660    3.1594    2.1263 H   0  0  0  0  0  0  0  0  0  0  0  0
    4.0061   -1.4083    4.0992 H   0  0  0  0  0  0  0  0  0  0  0  0
    2.4895   -2.6407    5.6104 H   0  0  0  0  0  0  0  0  0  0  0  0
    1.0135   -2.8543    3.2356 H   0  0  0  0  0  0  0  0  0  0  0  0
    4.3567   -3.8876    6.0093 H   0  0  0  0  0  0  0  0  0  0  0  0
    5.1334   -2.9747    4.7695 H   0  0  0  0  0  0  0  0  0  0  0  0
    5.2985   -4.6984    4.7809 H   0  0  0  0  0  0  0  0  0  0  0  0
    3.4908   -5.8174    5.4707 H   0  0  0  0  0  0  0  0  0  0  0  0
    3.7007   -7.4411    3.8876 H   0  0  0  0  0  0  0  0  0  0  0  0
    4.3154   -6.1610    3.0900 H   0  0  0  0  0  0  0  0  0  0  0  0
   -0.0614   -5.7066    6.5840 H   0  0  0  0  0  0  0  0  0  0  0  0
   -0.0839   -4.6894    5.1984 H   0  0  0  0  0  0  0  0  0  0  0  0
    1.2099   -4.5305    6.3961 H   0  0  0  0  0  0  0  0  0  0  0  0
    2.1522   -6.9372    7.0022 H   0  0  0  0  0  0  0  0  0  0  0  0
    0.7187   -7.7401    6.5022 H   0  0  0  0  0  0  0  0  0  0  0  0
    3.5458   -8.4261    5.6629 H   0  0  0  0  0  0  0  0  0  0  0  0
    2.5145   -9.2197    6.7504 H   0  0  0  0  0  0  0  0  0  0  0  0
   -0.2038   -9.5863    4.8512 H   0  0  0  0  0  0  0  0  0  0  0  0
    0.5397  -10.5387    6.1195 H   0  0  0  0  0  0  0  0  0  0  0  0
    0.4236  -11.1677    4.4838 H   0  0  0  0  0  0  0  0  0  0  0  0
    2.4989  -11.3126    5.5943 H   0  0  0  0  0  0  0  0  0  0  0  0
   -1.4173   -6.2530    4.1021 H   0  0  0  0  0  0  0  0  0  0  0  0
   -0.9952   -7.6115    5.1123 H   0  0  0  0  0  0  0  0  0  0  0  0
   -1.2352   -7.8220    3.3839 H   0  0  0  0  0  0  0  0  0  0  0  0
    0.8904   -4.8981    2.9769 H   0  0  0  0  0  0  0  0  0  0  0  0
    0.1751   -6.0606    1.8577 H   0  0  0  0  0  0  0  0  0  0  0  0
  1  2  2  0
  1 40  1  0
  1 41  1  0
  2 34  1  0
  2  3  1  0
  3 37  1  0
  3  4  1  0
  3 42  1  6
  4 29  1  0
  4 39  1  1
  4  5  1  0
  5  6  1  0
  5 43  1  0
  5 44  1  0
  6  7  1  0
  6 45  1  0
  6 46  1  0
  7 26  1  0
  7  8  1  1
  7  9  1  0
  8 47  1  0
  8 48  1  0
  8 49  1  0
  9 23  1  0
  9 10  1  0
  9 50  1  6
 10 11  1  0
 10 12  1  0
 10 51  1  1
 11 52  1  0
 11 53  1  0
 11 54  1  0
 12 13  1  0
 12 55  1  0
 12 56  1  0
 13 14  1  0
 13 22  1  0
 13 57  1  1
 14 15  1  0
 14 18  1  0
 14 58  1  6
 15 16  1  0
 16 17  1  0
 16 59  1  0
 16 60  1  0
 17 61  1  0
 17 62  1  0
 17 63  1  0
 18 19  1  0
 18 20  1  0
 18 21  1  0
 19 64  1  0
 19 65  1  0
 19 66  1  0
 20 67  1  0
 20 68  1  0
 20 69  1  0
 21 70  1  0
 22 23  1  0
 23 24  1  0
 23 71  1  1
 24 25  1  0
 24 26  1  0
 24 72  1  1
 25 73  1  0
 26 27  1  1
 26 28  1  0
 27 74  1  0
 27 75  1  0
 27 76  1  0
 28 29  1  0
 28 30  1  0
 28 77  1  1
 29 78  1  0
 29 79  1  0
 30 31  1  1
 30 32  1  0
 30 37  1  0
 31 80  1  0
 31 81  1  0
 31 82  1  0
 32 33  1  0
 32 83  1  0
 32 84  1  0
 33 34  1  0
 33 85  1  0
 33 86  1  0
 34 35  1  0
 34 36  1  6
 35 87  1  0
 35 88  1  0
 35 89  1  0
 36 90  1  0
 37 38  1  1
 37 39  1  0
 38 91  1  0
 38 92  1  0
 38 93  1  0
 39 94  1  0
 39 95  1  0
M  END
>  <i_m_ct_stereo_status>  (361) 
1

>  <s_m_source_file>  (361) 
/var/tmp/pbs.5076255.sched01/tmp0i_w_vt9/132llf9lao3.sdf

>  <i_m_source_file_index>  (361) 
18

>  <i_lp_mmshare_version>  (361) 
48012

>  <i_f3d_flags>  (361) 
0

>  <s_epik_input>  (361) 
W0NIMl09QzFbQ0BAXShbQ0gzXSkoW09IXSlbQ0gyXVtDSDJdW0NAXShbQ0gzXSkoW0NAQF0oW0NASF0xW0NAXTIzNCkoW0NIM10pW0NIMl00KVtDQEBIXShbQ0gyXTMpW0NAQF01KFtDSDNdKVtDQEBdKFtDSDNdKShbQ0gyXVtDSDJdMilbQ0BIXTZbQ0BIXShbQ0BIXTVbT0hdKU9bQ0BASF0oW0NIMl1bQ0BASF02W0NIM10pW0NAQEhdKEMoW0NIM10pKFtDSDNdKVtPSF0pT1tDSDJdW0NIM10=

>  <s_epik_cmdline>  (361) 
J2VwaWtfcHl0aG9uJywgJy1waHQnLCAnMi4wJywgJy1waCcsICc3LjAnLCAnLXRuJywgJzgnLCAnLW1hJywgJzIwMCcsICctaW1hZScsICc8aW5maWxlLm1hZT4nLCAnLW9tYWUnLCAnPG91dGZpbGUubWFlPic=

>  <r_lp_tautomer_probability>  (361) 
1

>  <r_epik_Ionization_Penalty>  (361) 
5.30828e-07

>  <r_epik_Ionization_Penalty_Charging>  (361) 
0

>  <r_epik_Ionization_Penalty_Neutral>  (361) 
5.30828e-07

>  <r_epik_State_Penalty>  (361) 
-0

>  <r_epik_Charging_Adjusted_Penalty>  (361) 
0

>  <i_epik_Tot_Q>  (361) 
0

>  <i_epik_Tot_abs_Q>  (361) 
0

>  <s_lp_Force_Field>  (361) 
OPLS3e

>  <r_lp_Energy>  (361) 
184.738

>  <b_lp_Chiralities_Consistent>  (361) 
1

>  <s_lp_Variant>  (361) 
102:0-1

>  <s_i_glide_gridfile>  (361) 
pfpi4k_grid

>  <i_i_glide_lignum>  (361) 
18

>  <i_i_glide_rotatable_bonds>  (361) 
7

>  <r_i_docking_score>  (361) 
-2.36499

>  <r_i_glide_ligand_efficiency>  (361) 
-0.0606408

>  <r_i_glide_ligand_efficiency_sa>  (361) 
-0.205646

>  <r_i_glide_ligand_efficiency_ln>  (361) 
-0.507121

>  <r_i_glide_gscore>  (361) 
-2.36499

>  <r_i_glide_lipo>  (361) 
-0.196378

>  <r_i_glide_hbond>  (361) 
0

>  <r_i_glide_metal>  (361) 
-0

>  <r_i_glide_rewards>  (361) 
0

>  <r_i_glide_evdw>  (361) 
-30.2507

>  <r_i_glide_ecoul>  (361) 
-5.7687

>  <r_i_glide_erotb>  (361) 
0.209227

>  <r_i_glide_esite>  (361) 
0

>  <r_i_glide_emodel>  (361) 
-38.1406

>  <r_i_glide_energy>  (361) 
-36.0194

>  <r_i_glide_einternal>  (361) 
5.12887

>  <r_i_glide_intrahb_reward>  (361) 
-0

>  <i_i_glide_confnum>  (361) 
4

>  <i_i_glide_posenum>  (361) 
34

>  <r_i_glide_eff_state_penalty>  (361) 
0

>  <ligand_id>  (361) 
102

>  <original_smiles>  (361) 
C=C1C2C34CCC5(C)C6C(C)CC(C(OCC)C(C)(C)O)OC6C(O)C5(C)C(C3)C(C)(CCC1(C)O)C2(C)C4

>  <smiles>  (361) 
[H]OC1([H])C2([H])OC([H])(C([H])(OC([H])([H])C([H])([H])[H])C(O[H])(C([H])([H])[H])C([H])([H])[H])C([H])([H])C([H])(C([H])([H])[H])C2([H])C2(C([H])([H])[H])C([H])([H])C([H])([H])C34C([H])([H])C([H])(C5(C([H])([H])[H])C([H])([H])C([H])([H])C(O[H])(C([H])([H])[H])C(=C([H])[H])C3([H])C5(C([H])([H])[H])C4([H])[H])C12C([H])([H])[H]

$$$$
102:0:1
     RDKit          3D

 95100  0  0  1  0  0  0  0  0999 V2000
    2.9915   -9.6217    2.3313 C   0  0  0  0  0  0  0  0  0  0  0  0
    2.1774   -9.0527    3.2382 C   0  0  0  0  0  0  0  0  0  0  0  0
    1.4533   -7.7743    2.7856 C   0  0  2  0  0  0  0  0  0  0  0  0
    2.2693   -6.4554    2.6867 C   0  0  2  0  0  0  0  0  0  0  0  0
    2.9827   -5.7888    1.5337 C   0  0  0  0  0  0  0  0  0  0  0  0
    2.9250   -4.2377    1.7553 C   0  0  0  0  0  0  0  0  0  0  0  0
    3.3827   -3.4975    3.1048 C   0  0  1  0  0  0  0  0  0  0  0  0
    4.9517   -3.4337    3.0282 C   0  0  0  0  0  0  0  0  0  0  0  0
    2.8013   -2.0256    2.9701 C   0  0  2  0  0  0  0  0  0  0  0  0
    3.5892   -0.8805    2.2851 C   0  0  1  0  0  0  0  0  0  0  0  0
    3.8985   -1.0624    0.7838 C   0  0  0  0  0  0  0  0  0  0  0  0
    2.8083    0.4532    2.4368 C   0  0  0  0  0  0  0  0  0  0  0  0
    2.1527    0.7248    3.8228 C   0  0  1  0  0  0  0  0  0  0  0  0
    1.0792    1.8627    3.8155 C   0  0  2  0  0  0  0  0  0  0  0  0
    0.1609    1.6911    2.7322 O   0  0  0  0  0  0  0  0  0  0  0  0
   -0.7066    0.5613    2.7741 C   0  0  0  0  0  0  0  0  0  0  0  0
   -1.5628    0.4883    4.0552 C   0  0  0  0  0  0  0  0  0  0  0  0
    1.5907    3.3343    3.8014 C   0  0  0  0  0  0  0  0  0  0  0  0
    2.2514    3.6887    5.1375 C   0  0  0  0  0  0  0  0  0  0  0  0
    2.5365    3.6875    2.6466 C   0  0  0  0  0  0  0  0  0  0  0  0
    0.4765    4.1927    3.6713 O   0  0  0  0  0  0  0  0  0  0  0  0
    1.5655   -0.4497    4.3803 O   0  0  0  0  0  0  0  0  0  0  0  0
    2.4227   -1.5868    4.3753 C   0  0  1  0  0  0  0  0  0  0  0  0
    1.8367   -2.8480    5.0219 C   0  0  1  0  0  0  0  0  0  0  0  0
    0.5515   -2.9581    4.4610 O   0  0  0  0  0  0  0  0  0  0  0  0
    2.8422   -3.9882    4.6051 C   0  0  2  0  0  0  0  0  0  0  0  0
    4.0099   -3.7702    5.6400 C   0  0  0  0  0  0  0  0  0  0  0  0
    2.5135   -5.5711    4.9407 C   0  0  2  0  0  0  0  0  0  0  0  0
    3.2349   -6.3236    3.8650 C   0  0  0  0  0  0  0  0  0  0  0  0
    1.1062   -6.3714    5.1576 C   0  0  2  0  0  0  0  0  0  0  0  0
    0.0652   -5.4805    5.8793 C   0  0  0  0  0  0  0  0  0  0  0  0
    1.2908   -7.5701    6.1503 C   0  0  0  0  0  0  0  0  0  0  0  0
    2.2421   -8.7459    5.8515 C   0  0  0  0  0  0  0  0  0  0  0  0
    1.9597   -9.6741    4.6381 C   0  0  1  0  0  0  0  0  0  0  0  0
    0.6174  -10.4119    4.7365 C   0  0  0  0  0  0  0  0  0  0  0  0
    2.8947  -10.7253    4.8577 O   0  0  0  0  0  0  0  0  0  0  0  0
    0.5450   -6.9345    3.7803 C   0  0  2  0  0  0  0  0  0  0  0  0
   -0.9394   -7.3415    3.8498 C   0  0  0  0  0  0  0  0  0  0  0  0
    0.8200   -5.8870    2.7465 C   0  0  0  0  0  0  0  0  0  0  0  0
    3.5320  -10.5374    2.5282 H   0  0  0  0  0  0  0  0  0  0  0  0
    3.1220   -9.1828    1.3512 H   0  0  0  0  0  0  0  0  0  0  0  0
    0.9316   -8.0165    1.8490 H   0  0  0  0  0  0  0  0  0  0  0  0
    4.0096   -6.1415    1.4228 H   0  0  0  0  0  0  0  0  0  0  0  0
    2.4776   -6.0280    0.5997 H   0  0  0  0  0  0  0  0  0  0  0  0
    3.4798   -3.8118    0.9256 H   0  0  0  0  0  0  0  0  0  0  0  0
    1.9080   -3.9381    1.5148 H   0  0  0  0  0  0  0  0  0  0  0  0
    5.3718   -2.6441    3.6450 H   0  0  0  0  0  0  0  0  0  0  0  0
    5.3077   -3.2381    2.0217 H   0  0  0  0  0  0  0  0  0  0  0  0
    5.4670   -4.3464    3.3184 H   0  0  0  0  0  0  0  0  0  0  0  0
    1.8557   -2.0759    2.4309 H   0  0  0  0  0  0  0  0  0  0  0  0
    4.5372   -0.7436    2.8146 H   0  0  0  0  0  0  0  0  0  0  0  0
    2.9838   -1.2216    0.2166 H   0  0  0  0  0  0  0  0  0  0  0  0
    4.5820   -1.8758    0.5640 H   0  0  0  0  0  0  0  0  0  0  0  0
    4.3578   -0.1564    0.3934 H   0  0  0  0  0  0  0  0  0  0  0  0
    3.4915    1.2550    2.2229 H   0  0  0  0  0  0  0  0  0  0  0  0
    2.0545    0.4827    1.6438 H   0  0  0  0  0  0  0  0  0  0  0  0
    2.9515    0.9883    4.5137 H   0  0  0  0  0  0  0  0  0  0  0  0
    0.5046    1.7907    4.7369 H   0  0  0  0  0  0  0  0  0  0  0  0
   -1.3653    0.6140    1.9090 H   0  0  0  0  0  0  0  0  0  0  0  0
   -0.1402   -0.3572    2.6456 H   0  0  0  0  0  0  0  0  0  0  0  0
   -2.2150   -0.3848    4.0399 H   0  0  0  0  0  0  0  0  0  0  0  0
   -2.1940    1.3740    4.1525 H   0  0  0  0  0  0  0  0  0  0  0  0
   -0.9615    0.4016    4.9633 H   0  0  0  0  0  0  0  0  0  0  0  0
    3.1180    3.0582    5.3342 H   0  0  0  0  0  0  0  0  0  0  0  0
    1.5552    3.5571    5.9662 H   0  0  0  0  0  0  0  0  0  0  0  0
    2.5936    4.7230    5.1505 H   0  0  0  0  0  0  0  0  0  0  0  0
    3.4133    3.0822    2.6713 H   0  0  0  0  0  0  0  0  0  0  0  0
    2.8175    4.7507    2.6796 H   0  0  0  0  0  0  0  0  0  0  0  0
    2.0403    3.5310    1.6861 H   0  0  0  0  0  0  0  0  0  0  0  0
    0.2130    4.1994    2.7563 H   0  0  0  0  0  0  0  0  0  0  0  0
    3.3098   -1.2698    4.9145 H   0  0  0  0  0  0  0  0  0  0  0  0
    1.7365   -2.7420    6.1069 H   0  0  0  0  0  0  0  0  0  0  0  0
    0.1785   -3.7683    4.7729 H   0  0  0  0  0  0  0  0  0  0  0  0
    3.6494   -3.8757    6.6640 H   0  0  0  0  0  0  0  0  0  0  0  0
    4.4917   -2.7985    5.6068 H   0  0  0  0  0  0  0  0  0  0  0  0
    4.8089   -4.5046    5.5181 H   0  0  0  0  0  0  0  0  0  0  0  0
    3.0313   -5.8144    5.8658 H   0  0  0  0  0  0  0  0  0  0  0  0
    3.5858   -7.2782    4.2115 H   0  0  0  0  0  0  0  0  0  0  0  0
    4.1895   -5.8930    3.6030 H   0  0  0  0  0  0  0  0  0  0  0  0
   -0.6234   -6.0662    6.4864 H   0  0  0  0  0  0  0  0  0  0  0  0
   -0.5775   -4.9501    5.1860 H   0  0  0  0  0  0  0  0  0  0  0  0
    0.5432   -4.7794    6.5575 H   0  0  0  0  0  0  0  0  0  0  0  0
    1.5994   -7.1572    7.1092 H   0  0  0  0  0  0  0  0  0  0  0  0
    0.3189   -8.0184    6.3549 H   0  0  0  0  0  0  0  0  0  0  0  0
    3.2792   -8.4186    5.8701 H   0  0  0  0  0  0  0  0  0  0  0  0
    2.1844   -9.3738    6.7451 H   0  0  0  0  0  0  0  0  0  0  0  0
   -0.2224   -9.7838    4.4570 H   0  0  0  0  0  0  0  0  0  0  0  0
    0.4232  -10.7783    5.7494 H   0  0  0  0  0  0  0  0  0  0  0  0
    0.5857  -11.2790    4.0728 H   0  0  0  0  0  0  0  0  0  0  0  0
    2.5593  -11.2906    5.5458 H   0  0  0  0  0  0  0  0  0  0  0  0
   -1.5972   -6.4763    3.7943 H   0  0  0  0  0  0  0  0  0  0  0  0
   -1.2108   -7.8910    4.7506 H   0  0  0  0  0  0  0  0  0  0  0  0
   -1.1910   -7.9699    2.9979 H   0  0  0  0  0  0  0  0  0  0  0  0
    0.7193   -4.8797    3.1009 H   0  0  0  0  0  0  0  0  0  0  0  0
    0.2549   -5.9992    1.8182 H   0  0  0  0  0  0  0  0  0  0  0  0
  1  2  2  0
  1 40  1  0
  1 41  1  0
  2 34  1  0
  2  3  1  0
  3 37  1  0
  3  4  1  0
  3 42  1  6
  4 29  1  0
  4 39  1  1
  4  5  1  0
  5  6  1  0
  5 43  1  0
  5 44  1  0
  6  7  1  0
  6 45  1  0
  6 46  1  0
  7 26  1  0
  7  8  1  1
  7  9  1  0
  8 47  1  0
  8 48  1  0
  8 49  1  0
  9 23  1  0
  9 10  1  0
  9 50  1  6
 10 11  1  0
 10 12  1  0
 10 51  1  1
 11 52  1  0
 11 53  1  0
 11 54  1  0
 12 13  1  0
 12 55  1  0
 12 56  1  0
 13 14  1  0
 13 22  1  0
 13 57  1  1
 14 15  1  0
 14 18  1  0
 14 58  1  1
 15 16  1  0
 16 17  1  0
 16 59  1  0
 16 60  1  0
 17 61  1  0
 17 62  1  0
 17 63  1  0
 18 19  1  0
 18 20  1  0
 18 21  1  0
 19 64  1  0
 19 65  1  0
 19 66  1  0
 20 67  1  0
 20 68  1  0
 20 69  1  0
 21 70  1  0
 22 23  1  0
 23 24  1  0
 23 71  1  1
 24 25  1  0
 24 26  1  0
 24 72  1  1
 25 73  1  0
 26 27  1  1
 26 28  1  0
 27 74  1  0
 27 75  1  0
 27 76  1  0
 28 29  1  0
 28 30  1  0
 28 77  1  1
 29 78  1  0
 29 79  1  0
 30 31  1  1
 30 32  1  0
 30 37  1  0
 31 80  1  0
 31 81  1  0
 31 82  1  0
 32 33  1  0
 32 83  1  0
 32 84  1  0
 33 34  1  0
 33 85  1  0
 33 86  1  0
 34 35  1  0
 34 36  1  1
 35 87  1  0
 35 88  1  0
 35 89  1  0
 36 90  1  0
 37 38  1  1
 37 39  1  0
 38 91  1  0
 38 92  1  0
 38 93  1  0
 39 94  1  0
 39 95  1  0
M  END
>  <i_m_ct_stereo_status>  (362) 
1

>  <s_m_source_file>  (362) 
/var/tmp/pbs.5076255.sched01/tmp0i_w_vt9/132llf9lao3.sdf

>  <i_m_source_file_index>  (362) 
18

>  <i_lp_mmshare_version>  (362) 
48012

>  <i_f3d_flags>  (362) 
0

>  <s_epik_input>  (362) 
W0NIMl09QzFbQ0BAXShbQ0gzXSkoW09IXSlbQ0gyXVtDSDJdW0NAXShbQ0gzXSkoW0NAQF0oW0NASF0xW0NAXTIzNCkoW0NIM10pW0NIMl00KVtDQEBIXShbQ0gyXTMpW0NAQF01KFtDSDNdKVtDQEBdKFtDSDNdKShbQ0gyXVtDSDJdMilbQ0BIXTZbQ0BIXShbQ0BIXTVbT0hdKU9bQ0BASF0oW0NIMl1bQ0BASF02W0NIM10pW0NAQEhdKEMoW0NIM10pKFtDSDNdKVtPSF0pT1tDSDJdW0NIM10=

>  <s_epik_cmdline>  (362) 
J2VwaWtfcHl0aG9uJywgJy1waHQnLCAnMi4wJywgJy1waCcsICc3LjAnLCAnLXRuJywgJzgnLCAnLW1hJywgJzIwMCcsICctaW1hZScsICc8aW5maWxlLm1hZT4nLCAnLW9tYWUnLCAnPG91dGZpbGUubWFlPic=

>  <r_lp_tautomer_probability>  (362) 
1

>  <r_epik_Ionization_Penalty>  (362) 
5.30828e-07

>  <r_epik_Ionization_Penalty_Charging>  (362) 
0

>  <r_epik_Ionization_Penalty_Neutral>  (362) 
5.30828e-07

>  <r_epik_State_Penalty>  (362) 
-0

>  <r_epik_Charging_Adjusted_Penalty>  (362) 
0

>  <i_epik_Tot_Q>  (362) 
0

>  <i_epik_Tot_abs_Q>  (362) 
0

>  <s_lp_Force_Field>  (362) 
OPLS3e

>  <r_lp_Energy>  (362) 
184.738

>  <b_lp_Chiralities_Consistent>  (362) 
1

>  <s_lp_Variant>  (362) 
102:0-1

>  <s_i_glide_gridfile>  (362) 
pfpi4k_grid

>  <i_i_glide_lignum>  (362) 
18

>  <i_i_glide_rotatable_bonds>  (362) 
7

>  <r_i_docking_score>  (362) 
-1.70673

>  <r_i_glide_ligand_efficiency>  (362) 
-0.0437623

>  <r_i_glide_ligand_efficiency_sa>  (362) 
-0.148407

>  <r_i_glide_ligand_efficiency_ln>  (362) 
-0.365971

>  <r_i_glide_gscore>  (362) 
-1.70673

>  <r_i_glide_lipo>  (362) 
-0.0769819

>  <r_i_glide_hbond>  (362) 
0

>  <r_i_glide_metal>  (362) 
-0

>  <r_i_glide_rewards>  (362) 
0

>  <r_i_glide_evdw>  (362) 
-27.9843

>  <r_i_glide_ecoul>  (362) 
-2.93173

>  <r_i_glide_erotb>  (362) 
0.209227

>  <r_i_glide_esite>  (362) 
0

>  <r_i_glide_emodel>  (362) 
-31.1951

>  <r_i_glide_energy>  (362) 
-30.9161

>  <r_i_glide_einternal>  (362) 
5.41192

>  <r_i_glide_intrahb_reward>  (362) 
-0

>  <i_i_glide_confnum>  (362) 
4

>  <i_i_glide_posenum>  (362) 
1

>  <r_i_glide_eff_state_penalty>  (362) 
0

>  <ligand_id>  (362) 
102

>  <original_smiles>  (362) 
C=C1C2C34CCC5(C)C6C(C)CC(C(OCC)C(C)(C)O)OC6C(O)C5(C)C(C3)C(C)(CCC1(C)O)C2(C)C4

>  <smiles>  (362) 
[H]OC1([H])C2([H])OC([H])(C([H])(OC([H])([H])C([H])([H])[H])C(O[H])(C([H])([H])[H])C([H])([H])[H])C([H])([H])C([H])(C([H])([H])[H])C2([H])C2(C([H])([H])[H])C([H])([H])C([H])([H])C34C([H])([H])C([H])(C5(C([H])([H])[H])C([H])([H])C([H])([H])C(O[H])(C([H])([H])[H])C(=C([H])[H])C3([H])C5(C([H])([H])[H])C4([H])[H])C12C([H])([H])[H]

$$$$
102:0:2
     RDKit          3D

 95100  0  0  1  0  0  0  0  0999 V2000
    5.8875  -10.6596    5.9033 C   0  0  0  0  0  0  0  0  0  0  0  0
    4.9832  -10.4733    4.9346 C   0  0  0  0  0  0  0  0  0  0  0  0
    5.1223   -9.1748    4.1170 C   0  0  2  0  0  0  0  0  0  0  0  0
    4.6868   -7.8478    4.7926 C   0  0  2  0  0  0  0  0  0  0  0  0
    5.4544   -6.7944    5.5573 C   0  0  0  0  0  0  0  0  0  0  0  0
    4.7796   -5.4064    5.2956 C   0  0  0  0  0  0  0  0  0  0  0  0
    3.2176   -5.1185    5.5062 C   0  0  1  0  0  0  0  0  0  0  0  0
    3.0333   -4.9152    7.0549 C   0  0  0  0  0  0  0  0  0  0  0  0
    2.9726   -3.7248    4.7904 C   0  0  2  0  0  0  0  0  0  0  0  0
    3.1331   -2.3553    5.5142 C   0  0  1  0  0  0  0  0  0  0  0  0
    4.5528   -2.0229    6.0085 C   0  0  0  0  0  0  0  0  0  0  0  0
    2.7001   -1.2127    4.5651 C   0  0  0  0  0  0  0  0  0  0  0  0
    1.4381   -1.4867    3.6912 C   0  0  1  0  0  0  0  0  0  0  0  0
    1.2383   -0.4873    2.5089 C   0  0  2  0  0  0  0  0  0  0  0  0
    2.4997   -0.1803    1.8948 O   0  0  0  0  0  0  0  0  0  0  0  0
    3.1947   -1.2363    1.2351 C   0  0  0  0  0  0  0  0  0  0  0  0
    4.5079   -0.6792    0.6821 C   0  0  0  0  0  0  0  0  0  0  0  0
    0.5093    0.8828    2.8262 C   0  0  0  0  0  0  0  0  0  0  0  0
    0.0853    1.0898    4.2953 C   0  0  0  0  0  0  0  0  0  0  0  0
    1.3125    2.1228    2.3780 C   0  0  0  0  0  0  0  0  0  0  0  0
   -0.7018    0.9436    2.0861 O   0  0  0  0  0  0  0  0  0  0  0  0
    1.4420   -2.8107    3.1663 O   0  0  0  0  0  0  0  0  0  0  0  0
    1.5917   -3.7993    4.1745 C   0  0  1  0  0  0  0  0  0  0  0  0
    1.4420   -5.2399    3.6745 C   0  0  1  0  0  0  0  0  0  0  0  0
    2.1679   -5.2564    2.4689 O   0  0  0  0  0  0  0  0  0  0  0  0
    2.0439   -6.1013    4.8464 C   0  0  2  0  0  0  0  0  0  0  0  0
    0.8282   -6.1421    5.8493 C   0  0  0  0  0  0  0  0  0  0  0  0
    2.2633   -7.7224    4.6712 C   0  0  2  0  0  0  0  0  0  0  0  0
    3.3985   -8.0337    5.5923 C   0  0  0  0  0  0  0  0  0  0  0  0
    2.5136   -8.6440    3.3488 C   0  0  2  0  0  0  0  0  0  0  0  0
    1.7177   -8.1159    2.1321 C   0  0  0  0  0  0  0  0  0  0  0  0
    1.9244  -10.0823    3.5458 C   0  0  0  0  0  0  0  0  0  0  0  0
    2.4247  -11.0294    4.6561 C   0  0  0  0  0  0  0  0  0  0  0  0
    3.8961  -11.5296    4.6264 C   0  0  1  0  0  0  0  0  0  0  0  0
    4.2291  -12.3491    3.3643 C   0  0  0  0  0  0  0  0  0  0  0  0
    3.9134  -12.5395    5.6446 O   0  0  0  0  0  0  0  0  0  0  0  0
    4.0600   -8.7666    3.0167 C   0  0  2  0  0  0  0  0  0  0  0  0
    4.3406   -9.2736    1.5917 C   0  0  0  0  0  0  0  0  0  0  0  0
    4.6691   -7.4293    3.2932 C   0  0  0  0  0  0  0  0  0  0  0  0
    5.9026  -11.5548    6.5257 H   0  0  0  0  0  0  0  0  0  0  0  0
    6.6547   -9.9228    6.1017 H   0  0  0  0  0  0  0  0  0  0  0  0
    6.1569   -9.1408    3.7473 H   0  0  0  0  0  0  0  0  0  0  0  0
    5.5138   -7.0175    6.6241 H   0  0  0  0  0  0  0  0  0  0  0  0
    6.4764   -6.7555    5.1984 H   0  0  0  0  0  0  0  0  0  0  0  0
    5.3437   -4.6960    5.8943 H   0  0  0  0  0  0  0  0  0  0  0  0
    5.0673   -5.1177    4.2843 H   0  0  0  0  0  0  0  0  0  0  0  0
    2.1453   -4.3389    7.3047 H   0  0  0  0  0  0  0  0  0  0  0  0
    3.8653   -4.3805    7.5024 H   0  0  0  0  0  0  0  0  0  0  0  0
    2.9675   -5.8342    7.6277 H   0  0  0  0  0  0  0  0  0  0  0  0
    3.6447   -3.6467    3.9322 H   0  0  0  0  0  0  0  0  0  0  0  0
    2.4513   -2.3175    6.3788 H   0  0  0  0  0  0  0  0  0  0  0  0
    5.2677   -2.0645    5.1828 H   0  0  0  0  0  0  0  0  0  0  0  0
    4.9118   -2.6780    6.7978 H   0  0  0  0  0  0  0  0  0  0  0  0
    4.5867   -1.0097    6.4084 H   0  0  0  0  0  0  0  0  0  0  0  0
    2.5466   -0.3298    5.1725 H   0  0  0  0  0  0  0  0  0  0  0  0
    3.5635   -0.9609    3.9373 H   0  0  0  0  0  0  0  0  0  0  0  0
    0.5523   -1.4848    4.3374 H   0  0  0  0  0  0  0  0  0  0  0  0
    0.6587   -0.9977    1.7345 H   0  0  0  0  0  0  0  0  0  0  0  0
    3.4327   -2.0438    1.9241 H   0  0  0  0  0  0  0  0  0  0  0  0
    2.6055   -1.6688    0.4279 H   0  0  0  0  0  0  0  0  0  0  0  0
    5.0935   -1.4674    0.2113 H   0  0  0  0  0  0  0  0  0  0  0  0
    5.1124   -0.2460    1.4777 H   0  0  0  0  0  0  0  0  0  0  0  0
    4.3267    0.0970   -0.0595 H   0  0  0  0  0  0  0  0  0  0  0  0
    0.9462    1.0960    4.9604 H   0  0  0  0  0  0  0  0  0  0  0  0
   -0.6122    0.3258    4.6307 H   0  0  0  0  0  0  0  0  0  0  0  0
   -0.4146    2.0534    4.4373 H   0  0  0  0  0  0  0  0  0  0  0  0
    2.3061    2.1567    2.8285 H   0  0  0  0  0  0  0  0  0  0  0  0
    0.8116    3.0505    2.6646 H   0  0  0  0  0  0  0  0  0  0  0  0
    1.4415    2.1576    1.2953 H   0  0  0  0  0  0  0  0  0  0  0  0
   -0.5136    0.9425    1.1616 H   0  0  0  0  0  0  0  0  0  0  0  0
    0.8416   -3.5955    4.9358 H   0  0  0  0  0  0  0  0  0  0  0  0
    0.4021   -5.4835    3.4532 H   0  0  0  0  0  0  0  0  0  0  0  0
    3.0400   -4.9593    2.6586 H   0  0  0  0  0  0  0  0  0  0  0  0
   -0.0473   -6.5991    5.3873 H   0  0  0  0  0  0  0  0  0  0  0  0
    0.4820   -5.1803    6.2203 H   0  0  0  0  0  0  0  0  0  0  0  0
    1.0488   -6.7406    6.7362 H   0  0  0  0  0  0  0  0  0  0  0  0
    1.3902   -8.2121    5.0919 H   0  0  0  0  0  0  0  0  0  0  0  0
    3.3119   -9.0190    6.0034 H   0  0  0  0  0  0  0  0  0  0  0  0
    3.3655   -7.4769    6.5141 H   0  0  0  0  0  0  0  0  0  0  0  0
    1.4451   -8.9071    1.4312 H   0  0  0  0  0  0  0  0  0  0  0  0
    2.2950   -7.4197    1.5328 H   0  0  0  0  0  0  0  0  0  0  0  0
    0.7892   -7.6477    2.4383 H   0  0  0  0  0  0  0  0  0  0  0  0
    0.8490   -9.9825    3.6837 H   0  0  0  0  0  0  0  0  0  0  0  0
    2.0170  -10.6422    2.6121 H   0  0  0  0  0  0  0  0  0  0  0  0
    2.1472  -10.6531    5.6394 H   0  0  0  0  0  0  0  0  0  0  0  0
    1.7908  -11.9132    4.5615 H   0  0  0  0  0  0  0  0  0  0  0  0
    4.4243  -11.7290    2.4970 H   0  0  0  0  0  0  0  0  0  0  0  0
    3.4207  -13.0340    3.0975 H   0  0  0  0  0  0  0  0  0  0  0  0
    5.1243  -12.9548    3.5185 H   0  0  0  0  0  0  0  0  0  0  0  0
    3.0331  -12.7393    5.9432 H   0  0  0  0  0  0  0  0  0  0  0  0
    4.2284   -8.4782    0.8583 H   0  0  0  0  0  0  0  0  0  0  0  0
    3.6909  -10.0893    1.2806 H   0  0  0  0  0  0  0  0  0  0  0  0
    5.3667   -9.6233    1.5089 H   0  0  0  0  0  0  0  0  0  0  0  0
    4.0338   -6.6091    3.0294 H   0  0  0  0  0  0  0  0  0  0  0  0
    5.6558   -7.2686    2.8519 H   0  0  0  0  0  0  0  0  0  0  0  0
  1  2  2  0
  1 40  1  0
  1 41  1  0
  2 34  1  0
  2  3  1  0
  3 37  1  0
  3  4  1  0
  3 42  1  6
  4 29  1  0
  4 39  1  6
  4  5  1  0
  5  6  1  0
  5 43  1  0
  5 44  1  0
  6  7  1  0
  6 45  1  0
  6 46  1  0
  7 26  1  0
  7  8  1  1
  7  9  1  0
  8 47  1  0
  8 48  1  0
  8 49  1  0
  9 23  1  0
  9 10  1  0
  9 50  1  6
 10 11  1  0
 10 12  1  0
 10 51  1  1
 11 52  1  0
 11 53  1  0
 11 54  1  0
 12 13  1  0
 12 55  1  0
 12 56  1  0
 13 14  1  0
 13 22  1  0
 13 57  1  1
 14 15  1  0
 14 18  1  0
 14 58  1  6
 15 16  1  0
 16 17  1  0
 16 59  1  0
 16 60  1  0
 17 61  1  0
 17 62  1  0
 17 63  1  0
 18 19  1  0
 18 20  1  0
 18 21  1  0
 19 64  1  0
 19 65  1  0
 19 66  1  0
 20 67  1  0
 20 68  1  0
 20 69  1  0
 21 70  1  0
 22 23  1  0
 23 24  1  0
 23 71  1  1
 24 25  1  0
 24 26  1  0
 24 72  1  6
 25 73  1  0
 26 27  1  1
 26 28  1  0
 27 74  1  0
 27 75  1  0
 27 76  1  0
 28 29  1  0
 28 30  1  0
 28 77  1  1
 29 78  1  0
 29 79  1  0
 30 31  1  6
 30 32  1  0
 30 37  1  0
 31 80  1  0
 31 81  1  0
 31 82  1  0
 32 33  1  0
 32 83  1  0
 32 84  1  0
 33 34  1  0
 33 85  1  0
 33 86  1  0
 34 35  1  0
 34 36  1  1
 35 87  1  0
 35 88  1  0
 35 89  1  0
 36 90  1  0
 37 38  1  6
 37 39  1  0
 38 91  1  0
 38 92  1  0
 38 93  1  0
 39 94  1  0
 39 95  1  0
M  END
>  <i_m_ct_stereo_status>  (363) 
1

>  <s_m_source_file>  (363) 
/var/tmp/pbs.5076255.sched01/tmp0i_w_vt9/132llf9lao3.sdf

>  <i_m_source_file_index>  (363) 
18

>  <i_lp_mmshare_version>  (363) 
48012

>  <i_f3d_flags>  (363) 
0

>  <s_epik_input>  (363) 
W0NIMl09QzFbQ0BAXShbQ0gzXSkoW09IXSlbQ0gyXVtDSDJdW0NAXShbQ0gzXSkoW0NAQF0oW0NASF0xW0NAXTIzNCkoW0NIM10pW0NIMl00KVtDQEBIXShbQ0gyXTMpW0NAQF01KFtDSDNdKVtDQEBdKFtDSDNdKShbQ0gyXVtDSDJdMilbQ0BIXTZbQ0BIXShbQ0BIXTVbT0hdKU9bQ0BASF0oW0NIMl1bQ0BASF02W0NIM10pW0NAQEhdKEMoW0NIM10pKFtDSDNdKVtPSF0pT1tDSDJdW0NIM10=

>  <s_epik_cmdline>  (363) 
J2VwaWtfcHl0aG9uJywgJy1waHQnLCAnMi4wJywgJy1waCcsICc3LjAnLCAnLXRuJywgJzgnLCAnLW1hJywgJzIwMCcsICctaW1hZScsICc8aW5maWxlLm1hZT4nLCAnLW9tYWUnLCAnPG91dGZpbGUubWFlPic=

>  <r_lp_tautomer_probability>  (363) 
1

>  <r_epik_Ionization_Penalty>  (363) 
5.30828e-07

>  <r_epik_Ionization_Penalty_Charging>  (363) 
0

>  <r_epik_Ionization_Penalty_Neutral>  (363) 
5.30828e-07

>  <r_epik_State_Penalty>  (363) 
-0

>  <r_epik_Charging_Adjusted_Penalty>  (363) 
0

>  <i_epik_Tot_Q>  (363) 
0

>  <i_epik_Tot_abs_Q>  (363) 
0

>  <s_lp_Force_Field>  (363) 
OPLS3e

>  <r_lp_Energy>  (363) 
184.738

>  <b_lp_Chiralities_Consistent>  (363) 
1

>  <s_lp_Variant>  (363) 
102:0-1

>  <s_i_glide_gridfile>  (363) 
pfpi4k_grid

>  <i_i_glide_lignum>  (363) 
18

>  <i_i_glide_rotatable_bonds>  (363) 
7

>  <r_i_docking_score>  (363) 
-1.54343

>  <r_i_glide_ligand_efficiency>  (363) 
-0.0395753

>  <r_i_glide_ligand_efficiency_sa>  (363) 
-0.134208

>  <r_i_glide_ligand_efficiency_ln>  (363) 
-0.330956

>  <r_i_glide_gscore>  (363) 
-1.54343

>  <r_i_glide_lipo>  (363) 
-0.132468

>  <r_i_glide_hbond>  (363) 
-0.103689

>  <r_i_glide_metal>  (363) 
-0

>  <r_i_glide_rewards>  (363) 
0

>  <r_i_glide_evdw>  (363) 
-23.9118

>  <r_i_glide_ecoul>  (363) 
-2.13943

>  <r_i_glide_erotb>  (363) 
0.209227

>  <r_i_glide_esite>  (363) 
0

>  <r_i_glide_emodel>  (363) 
-26.3514

>  <r_i_glide_energy>  (363) 
-26.0512

>  <r_i_glide_einternal>  (363) 
5.84146

>  <r_i_glide_intrahb_reward>  (363) 
-0

>  <i_i_glide_confnum>  (363) 
4

>  <i_i_glide_posenum>  (363) 
16

>  <r_i_glide_eff_state_penalty>  (363) 
0

>  <ligand_id>  (363) 
102

>  <original_smiles>  (363) 
C=C1C2C34CCC5(C)C6C(C)CC(C(OCC)C(C)(C)O)OC6C(O)C5(C)C(C3)C(C)(CCC1(C)O)C2(C)C4

>  <smiles>  (363) 
[H]OC1([H])C2([H])OC([H])(C([H])(OC([H])([H])C([H])([H])[H])C(O[H])(C([H])([H])[H])C([H])([H])[H])C([H])([H])C([H])(C([H])([H])[H])C2([H])C2(C([H])([H])[H])C([H])([H])C([H])([H])C34C([H])([H])C([H])(C5(C([H])([H])[H])C([H])([H])C([H])([H])C(O[H])(C([H])([H])[H])C(=C([H])[H])C3([H])C5(C([H])([H])[H])C4([H])[H])C12C([H])([H])[H]

$$$$
103:0:0
     RDKit          3D

 27 30  0  0  1  0  0  0  0  0999 V2000
    0.7686   -8.8065    2.7809 C   0  0  0  0  0  0  0  0  0  0  0  0
   -0.1278   -7.8453    2.2838 C   0  0  0  0  0  0  0  0  0  0  0  0
    0.2418   -6.7328    1.5923 N   0  0  0  0  0  0  0  0  0  0  0  0
    1.5671   -6.5757    1.3580 C   0  0  0  0  0  0  0  0  0  0  0  0
    2.5491   -7.5068    1.7914 C   0  0  0  0  0  0  0  0  0  0  0  0
    2.1359   -8.6348    2.5214 C   0  0  0  0  0  0  0  0  0  0  0  0
    3.8724   -7.3280    1.5145 O   0  0  0  0  0  0  0  0  0  0  0  0
    4.1095   -6.3566    0.5114 C   0  0  0  0  0  0  0  0  0  0  0  0
    3.2592   -5.0712    0.7317 C   0  0  1  0  0  0  0  0  0  0  0  0
    3.5647   -4.0361   -0.2931 N   0  0  0  0  0  0  0  0  0  0  0  0
    2.6754   -3.4943   -1.1873 C   0  0  0  0  0  0  0  0  0  0  0  0
    3.3687   -2.5063   -1.9945 C   0  0  0  0  0  0  0  0  0  0  0  0
    4.6142   -2.5233   -1.5229 N   0  0  0  0  0  0  0  0  0  0  0  0
    5.7416   -1.8706   -1.8058 N   0  0  0  0  0  0  0  0  0  0  0  0
    6.6417   -2.3336   -0.9405 N   0  0  0  0  0  0  0  0  0  0  0  0
    6.0494   -3.3229   -0.1067 C   0  0  0  0  0  0  0  0  0  0  0  0
    4.7254   -3.3998   -0.5407 C   0  0  0  0  0  0  0  0  0  0  0  0
    1.9064   -5.4339    0.6554 O   0  0  0  0  0  0  0  0  0  0  0  0
    0.4229   -9.6636    3.3256 H   0  0  0  0  0  0  0  0  0  0  0  0
   -1.1688   -7.9904    2.4741 H   0  0  0  0  0  0  0  0  0  0  0  0
    2.8512   -9.3647    2.8803 H   0  0  0  0  0  0  0  0  0  0  0  0
    5.1541   -6.0706    0.5986 H   0  0  0  0  0  0  0  0  0  0  0  0
    3.9218   -6.7582   -0.4927 H   0  0  0  0  0  0  0  0  0  0  0  0
    3.4310   -4.6405    1.7262 H   0  0  0  0  0  0  0  0  0  0  0  0
    1.6498   -3.8242   -1.2311 H   0  0  0  0  0  0  0  0  0  0  0  0
    3.1305   -1.8319   -2.8122 H   0  0  0  0  0  0  0  0  0  0  0  0
    6.4923   -3.9057    0.6865 H   0  0  0  0  0  0  0  0  0  0  0  0
  1  6  2  0
  1  2  1  0
  1 19  1  0
  2  3  2  0
  2 20  1  0
  3  4  1  0
  4 18  1  0
  4  5  2  0
  5  6  1  0
  5  7  1  0
  6 21  1  0
  7  8  1  0
  8  9  1  0
  8 22  1  0
  8 23  1  0
  9 10  1  0
  9 18  1  0
  9 24  1  1
 10 17  1  0
 10 11  1  0
 11 12  2  0
 11 25  1  0
 12 13  1  0
 12 26  1  0
 13 17  1  0
 13 14  1  0
 14 15  2  0
 15 16  1  0
 16 17  2  0
 16 27  1  0
M  END
>  <i_m_ct_stereo_status>  (364) 
1

>  <s_m_source_file>  (364) 
/var/tmp/pbs.5076255.sched01/tmp0i_w_vt9/132llf9lao3.sdf

>  <i_m_source_file_index>  (364) 
19

>  <i_lp_mmshare_version>  (364) 
48012

>  <i_f3d_flags>  (364) 
0

>  <s_epik_input>  (364) 
bjFbY0hdW2NIXVtjSF1jKGMxMilPW0NIMl1bQ0BIXShPMiluKFtjSF1bY0hdMyljKG4zNClbY0hdbm40

>  <s_epik_cmdline>  (364) 
J2VwaWtfcHl0aG9uJywgJy1waHQnLCAnMi4wJywgJy1waCcsICc3LjAnLCAnLXRuJywgJzgnLCAnLW1hJywgJzIwMCcsICctaW1hZScsICc8aW5maWxlLm1hZT4nLCAnLW9tYWUnLCAnPG91dGZpbGUubWFlPic=

>  <r_lp_tautomer_probability>  (364) 
1

>  <r_epik_Ionization_Penalty>  (364) 
4.51519e-06

>  <r_epik_Ionization_Penalty_Charging>  (364) 
0

>  <r_epik_Ionization_Penalty_Neutral>  (364) 
4.51519e-06

>  <r_epik_State_Penalty>  (364) 
-0

>  <r_epik_Charging_Adjusted_Penalty>  (364) 
0

>  <i_epik_Tot_Q>  (364) 
0

>  <i_epik_Tot_abs_Q>  (364) 
0

>  <s_epik_Chemistry_Notes>  (364) 
This compound contains an acetal/aminal-like group ( X-CH(R)-Y where X, Y are N, S, or O) that may be acid/base labile, releasing an aldehyde.

>  <s_lp_Force_Field>  (364) 
OPLS3e

>  <r_lp_Energy>  (364) 
26.719

>  <b_lp_Chiralities_Consistent>  (364) 
1

>  <s_lp_Variant>  (364) 
103:0-1

>  <s_i_glide_gridfile>  (364) 
pfpi4k_grid

>  <i_i_glide_lignum>  (364) 
19

>  <i_i_glide_rotatable_bonds>  (364) 
1

>  <r_i_docking_score>  (364) 
-3.91148

>  <r_i_glide_ligand_efficiency>  (364) 
-0.217305

>  <r_i_glide_ligand_efficiency_sa>  (364) 
-0.569499

>  <r_i_glide_ligand_efficiency_ln>  (364) 
-1.00543

>  <r_i_glide_gscore>  (364) 
-3.91148

>  <r_i_glide_lipo>  (364) 
-0.241956

>  <r_i_glide_hbond>  (364) 
-0.144135

>  <r_i_glide_metal>  (364) 
-0

>  <r_i_glide_rewards>  (364) 
-1.81462

>  <r_i_glide_evdw>  (364) 
-23.943

>  <r_i_glide_ecoul>  (364) 
-4.40553

>  <r_i_glide_erotb>  (364) 
0.293488

>  <r_i_glide_esite>  (364) 
-0.146282

>  <r_i_glide_emodel>  (364) 
-35.5806

>  <r_i_glide_energy>  (364) 
-28.3485

>  <r_i_glide_einternal>  (364) 
0.896992

>  <r_i_glide_intrahb_reward>  (364) 
-0

>  <i_i_glide_confnum>  (364) 
2

>  <i_i_glide_posenum>  (364) 
31

>  <r_i_glide_eff_state_penalty>  (364) 
0

>  <ligand_id>  (364) 
103

>  <original_smiles>  (364) 
c1cnc2c(c1)OCC(n1ccn3nncc13)O2

>  <smiles>  (364) 
[H]c1nc2c(c([H])c1[H])OC([H])([H])C([H])(n1c([H])c([H])n3nnc([H])c13)O2

$$$$
103:0:1
     RDKit          3D

 27 30  0  0  1  0  0  0  0  0999 V2000
    2.1789   -8.4167    1.7662 C   0  0  0  0  0  0  0  0  0  0  0  0
    1.1122   -7.5406    1.4835 C   0  0  0  0  0  0  0  0  0  0  0  0
    1.2690   -6.3038    0.9445 N   0  0  0  0  0  0  0  0  0  0  0  0
    2.5340   -5.8995    0.6740 C   0  0  0  0  0  0  0  0  0  0  0  0
    3.6767   -6.7154    0.9168 C   0  0  0  0  0  0  0  0  0  0  0  0
    3.4854   -7.9951    1.4782 C   0  0  0  0  0  0  0  0  0  0  0  0
    4.9411   -6.2885    0.5991 O   0  0  0  0  0  0  0  0  0  0  0  0
    4.9785   -5.1667   -0.2764 C   0  0  0  0  0  0  0  0  0  0  0  0
    3.9430   -4.1023    0.1422 C   0  0  1  0  0  0  0  0  0  0  0  0
    4.0200   -2.9098   -0.7180 N   0  0  0  0  0  0  0  0  0  0  0  0
    4.1081   -1.6224   -0.2515 C   0  0  0  0  0  0  0  0  0  0  0  0
    4.2169   -0.7438   -1.3949 C   0  0  0  0  0  0  0  0  0  0  0  0
    4.1567   -1.5378   -2.4564 N   0  0  0  0  0  0  0  0  0  0  0  0
    4.1994   -1.3392   -3.7878 N   0  0  0  0  0  0  0  0  0  0  0  0
    4.1396   -2.5629   -4.2936 N   0  0  0  0  0  0  0  0  0  0  0  0
    4.0803   -3.5331   -3.2588 C   0  0  0  0  0  0  0  0  0  0  0  0
    4.0642   -2.7971   -2.0695 C   0  0  0  0  0  0  0  0  0  0  0  0
    2.6465   -4.6430    0.1092 O   0  0  0  0  0  0  0  0  0  0  0  0
    1.9934   -9.3972    2.1755 H   0  0  0  0  0  0  0  0  0  0  0  0
    0.1089   -7.8727    1.6910 H   0  0  0  0  0  0  0  0  0  0  0  0
    4.3139   -8.6596    1.6683 H   0  0  0  0  0  0  0  0  0  0  0  0
    5.9607   -4.7095   -0.2167 H   0  0  0  0  0  0  0  0  0  0  0  0
    4.7934   -5.4729   -1.3076 H   0  0  0  0  0  0  0  0  0  0  0  0
    4.1381   -3.7783    1.1710 H   0  0  0  0  0  0  0  0  0  0  0  0
    4.1108   -1.3966    0.8007 H   0  0  0  0  0  0  0  0  0  0  0  0
    4.2713    0.3074   -1.5648 H   0  0  0  0  0  0  0  0  0  0  0  0
    4.0866   -4.5937   -3.3648 H   0  0  0  0  0  0  0  0  0  0  0  0
  1  6  2  0
  1  2  1  0
  1 19  1  0
  2  3  2  0
  2 20  1  0
  3  4  1  0
  4 18  1  0
  4  5  2  0
  5  6  1  0
  5  7  1  0
  6 21  1  0
  7  8  1  0
  8  9  1  0
  8 22  1  0
  8 23  1  0
  9 10  1  0
  9 18  1  0
  9 24  1  1
 10 17  1  0
 10 11  1  0
 11 12  2  0
 11 25  1  0
 12 13  1  0
 12 26  1  0
 13 17  1  0
 13 14  1  0
 14 15  2  0
 15 16  1  0
 16 17  2  0
 16 27  1  0
M  END
>  <i_m_ct_stereo_status>  (365) 
1

>  <s_m_source_file>  (365) 
/var/tmp/pbs.5076255.sched01/tmp0i_w_vt9/132llf9lao3.sdf

>  <i_m_source_file_index>  (365) 
19

>  <i_lp_mmshare_version>  (365) 
48012

>  <i_f3d_flags>  (365) 
0

>  <s_epik_input>  (365) 
bjFbY0hdW2NIXVtjSF1jKGMxMilPW0NIMl1bQ0BIXShPMiluKFtjSF1bY0hdMyljKG4zNClbY0hdbm40

>  <s_epik_cmdline>  (365) 
J2VwaWtfcHl0aG9uJywgJy1waHQnLCAnMi4wJywgJy1waCcsICc3LjAnLCAnLXRuJywgJzgnLCAnLW1hJywgJzIwMCcsICctaW1hZScsICc8aW5maWxlLm1hZT4nLCAnLW9tYWUnLCAnPG91dGZpbGUubWFlPic=

>  <r_lp_tautomer_probability>  (365) 
1

>  <r_epik_Ionization_Penalty>  (365) 
4.51519e-06

>  <r_epik_Ionization_Penalty_Charging>  (365) 
0

>  <r_epik_Ionization_Penalty_Neutral>  (365) 
4.51519e-06

>  <r_epik_State_Penalty>  (365) 
-0

>  <r_epik_Charging_Adjusted_Penalty>  (365) 
0

>  <i_epik_Tot_Q>  (365) 
0

>  <i_epik_Tot_abs_Q>  (365) 
0

>  <s_epik_Chemistry_Notes>  (365) 
This compound contains an acetal/aminal-like group ( X-CH(R)-Y where X, Y are N, S, or O) that may be acid/base labile, releasing an aldehyde.

>  <s_lp_Force_Field>  (365) 
OPLS3e

>  <r_lp_Energy>  (365) 
26.719

>  <b_lp_Chiralities_Consistent>  (365) 
1

>  <s_lp_Variant>  (365) 
103:0-1

>  <s_i_glide_gridfile>  (365) 
pfpi4k_grid

>  <i_i_glide_lignum>  (365) 
19

>  <i_i_glide_rotatable_bonds>  (365) 
1

>  <r_i_docking_score>  (365) 
-3.83012

>  <r_i_glide_ligand_efficiency>  (365) 
-0.212784

>  <r_i_glide_ligand_efficiency_sa>  (365) 
-0.557653

>  <r_i_glide_ligand_efficiency_ln>  (365) 
-0.984512

>  <r_i_glide_gscore>  (365) 
-3.83012

>  <r_i_glide_lipo>  (365) 
-0.104213

>  <r_i_glide_hbond>  (365) 
-0.115672

>  <r_i_glide_metal>  (365) 
-0

>  <r_i_glide_rewards>  (365) 
-1.75076

>  <r_i_glide_evdw>  (365) 
-17.5545

>  <r_i_glide_ecoul>  (365) 
-7.8024

>  <r_i_glide_erotb>  (365) 
0.293488

>  <r_i_glide_esite>  (365) 
-0.104874

>  <r_i_glide_emodel>  (365) 
-32.552

>  <r_i_glide_energy>  (365) 
-25.3569

>  <r_i_glide_einternal>  (365) 
0.213471

>  <r_i_glide_intrahb_reward>  (365) 
-0

>  <i_i_glide_confnum>  (365) 
1

>  <i_i_glide_posenum>  (365) 
39

>  <r_i_glide_eff_state_penalty>  (365) 
0

>  <ligand_id>  (365) 
103

>  <original_smiles>  (365) 
c1cnc2c(c1)OCC(n1ccn3nncc13)O2

>  <smiles>  (365) 
[H]c1nc2c(c([H])c1[H])OC([H])([H])C([H])(n1c([H])c([H])n3nnc([H])c13)O2

$$$$
103:0:2
     RDKit          3D

 27 30  0  0  1  0  0  0  0  0999 V2000
    1.4213   -8.8300    2.6736 C   0  0  0  0  0  0  0  0  0  0  0  0
    0.3668   -8.0352    2.1953 C   0  0  0  0  0  0  0  0  0  0  0  0
    0.5300   -6.8811    1.4964 N   0  0  0  0  0  0  0  0  0  0  0  0
    1.8065   -6.5037    1.2374 C   0  0  0  0  0  0  0  0  0  0  0  0
    2.9409   -7.2529    1.6537 C   0  0  0  0  0  0  0  0  0  0  0  0
    2.7362   -8.4325    2.3922 C   0  0  0  0  0  0  0  0  0  0  0  0
    4.2065   -6.8608    1.3312 O   0  0  0  0  0  0  0  0  0  0  0  0
    4.2456   -5.8773    0.3123 C   0  0  0  0  0  0  0  0  0  0  0  0
    3.1902   -4.7517    0.5505 C   0  0  1  0  0  0  0  0  0  0  0  0
    3.2817   -3.6737   -0.4741 N   0  0  0  0  0  0  0  0  0  0  0  0
    2.4353   -3.4759   -1.5354 C   0  0  0  0  0  0  0  0  0  0  0  0
    2.9016   -2.3447   -2.3171 C   0  0  0  0  0  0  0  0  0  0  0  0
    3.9857   -1.9401   -1.6542 N   0  0  0  0  0  0  0  0  0  0  0  0
    4.8879   -0.9739   -1.8239 N   0  0  0  0  0  0  0  0  0  0  0  0
    5.7461   -1.1171   -0.8159 N   0  0  0  0  0  0  0  0  0  0  0  0
    5.3565   -2.2174    0.0079 C   0  0  0  0  0  0  0  0  0  0  0  0
    4.2028   -2.7084   -0.5999 C   0  0  0  0  0  0  0  0  0  0  0  0
    1.9251   -5.3407    0.5040 O   0  0  0  0  0  0  0  0  0  0  0  0
    1.2362   -9.7274    3.2256 H   0  0  0  0  0  0  0  0  0  0  0  0
   -0.6305   -8.3524    2.4046 H   0  0  0  0  0  0  0  0  0  0  0  0
    3.5693   -9.0303    2.7318 H   0  0  0  0  0  0  0  0  0  0  0  0
    5.2231   -5.4094    0.3750 H   0  0  0  0  0  0  0  0  0  0  0  0
    4.1210   -6.3305   -0.6830 H   0  0  0  0  0  0  0  0  0  0  0  0
    3.3089   -4.3011    1.5450 H   0  0  0  0  0  0  0  0  0  0  0  0
    1.6005   -4.1361   -1.7099 H   0  0  0  0  0  0  0  0  0  0  0  0
    2.6051   -1.8022   -3.2101 H   0  0  0  0  0  0  0  0  0  0  0  0
    5.8181   -2.6106    0.8973 H   0  0  0  0  0  0  0  0  0  0  0  0
  1  6  2  0
  1  2  1  0
  1 19  1  0
  2  3  2  0
  2 20  1  0
  3  4  1  0
  4 18  1  0
  4  5  2  0
  5  6  1  0
  5  7  1  0
  6 21  1  0
  7  8  1  0
  8  9  1  0
  8 22  1  0
  8 23  1  0
  9 10  1  0
  9 18  1  0
  9 24  1  1
 10 17  1  0
 10 11  1  0
 11 12  2  0
 11 25  1  0
 12 13  1  0
 12 26  1  0
 13 17  1  0
 13 14  1  0
 14 15  2  0
 15 16  1  0
 16 17  2  0
 16 27  1  0
M  END
>  <i_m_ct_stereo_status>  (366) 
1

>  <s_m_source_file>  (366) 
/var/tmp/pbs.5076255.sched01/tmp0i_w_vt9/132llf9lao3.sdf

>  <i_m_source_file_index>  (366) 
19

>  <i_lp_mmshare_version>  (366) 
48012

>  <i_f3d_flags>  (366) 
0

>  <s_epik_input>  (366) 
bjFbY0hdW2NIXVtjSF1jKGMxMilPW0NIMl1bQ0BIXShPMiluKFtjSF1bY0hdMyljKG4zNClbY0hdbm40

>  <s_epik_cmdline>  (366) 
J2VwaWtfcHl0aG9uJywgJy1waHQnLCAnMi4wJywgJy1waCcsICc3LjAnLCAnLXRuJywgJzgnLCAnLW1hJywgJzIwMCcsICctaW1hZScsICc8aW5maWxlLm1hZT4nLCAnLW9tYWUnLCAnPG91dGZpbGUubWFlPic=

>  <r_lp_tautomer_probability>  (366) 
1

>  <r_epik_Ionization_Penalty>  (366) 
4.51519e-06

>  <r_epik_Ionization_Penalty_Charging>  (366) 
0

>  <r_epik_Ionization_Penalty_Neutral>  (366) 
4.51519e-06

>  <r_epik_State_Penalty>  (366) 
-0

>  <r_epik_Charging_Adjusted_Penalty>  (366) 
0

>  <i_epik_Tot_Q>  (366) 
0

>  <i_epik_Tot_abs_Q>  (366) 
0

>  <s_epik_Chemistry_Notes>  (366) 
This compound contains an acetal/aminal-like group ( X-CH(R)-Y where X, Y are N, S, or O) that may be acid/base labile, releasing an aldehyde.

>  <s_lp_Force_Field>  (366) 
OPLS3e

>  <r_lp_Energy>  (366) 
26.719

>  <b_lp_Chiralities_Consistent>  (366) 
1

>  <s_lp_Variant>  (366) 
103:0-1

>  <s_i_glide_gridfile>  (366) 
pfpi4k_grid

>  <i_i_glide_lignum>  (366) 
19

>  <i_i_glide_rotatable_bonds>  (366) 
1

>  <r_i_docking_score>  (366) 
-3.69982

>  <r_i_glide_ligand_efficiency>  (366) 
-0.205546

>  <r_i_glide_ligand_efficiency_sa>  (366) 
-0.538682

>  <r_i_glide_ligand_efficiency_ln>  (366) 
-0.95102

>  <r_i_glide_gscore>  (366) 
-3.69982

>  <r_i_glide_lipo>  (366) 
-0.220874

>  <r_i_glide_hbond>  (366) 
-0.0752947

>  <r_i_glide_metal>  (366) 
-0

>  <r_i_glide_rewards>  (366) 
-1.75076

>  <r_i_glide_evdw>  (366) 
-22.609

>  <r_i_glide_ecoul>  (366) 
-4.28314

>  <r_i_glide_erotb>  (366) 
0.293488

>  <r_i_glide_esite>  (366) 
-0.173453

>  <r_i_glide_emodel>  (366) 
-33.8507

>  <r_i_glide_energy>  (366) 
-26.8922

>  <r_i_glide_einternal>  (366) 
0.574029

>  <r_i_glide_intrahb_reward>  (366) 
-0

>  <i_i_glide_confnum>  (366) 
2

>  <i_i_glide_posenum>  (366) 
36

>  <r_i_glide_eff_state_penalty>  (366) 
0

>  <ligand_id>  (366) 
103

>  <original_smiles>  (366) 
c1cnc2c(c1)OCC(n1ccn3nncc13)O2

>  <smiles>  (366) 
[H]c1nc2c(c([H])c1[H])OC([H])([H])C([H])(n1c([H])c([H])n3nnc([H])c13)O2

$$$$
104:0:0
     RDKit          3D

 68 72  0  0  1  0  0  0  0  0999 V2000
    3.4794   -1.4855    1.1238 C   0  0  0  0  0  0  0  0  0  0  0  0
    3.0815   -0.3367    1.8439 O   0  0  0  0  0  0  0  0  0  0  0  0
    2.8333   -0.4311    3.1641 C   0  0  0  0  0  0  0  0  0  0  0  0
    2.9966   -1.4360    3.8400 O   0  0  0  0  0  0  0  0  0  0  0  0
    2.2868    0.9131    3.7415 C   0  0  2  0  0  0  0  0  0  0  0  0
    2.9514    1.3889    5.0906 C   0  0  2  0  0  0  0  0  0  0  0  0
    4.4945    1.0441    4.9815 C   0  0  0  0  0  0  0  0  0  0  0  0
    2.3072    0.5444    6.2305 C   0  0  1  0  0  0  0  0  0  0  0  0
    3.2593   -0.0682    7.0841 O   0  0  0  0  0  0  0  0  0  0  0  0
    1.3744    1.3910    7.0919 C   0  0  1  0  0  0  0  0  0  0  0  0
    2.1799    2.4995    7.8301 C   0  0  0  0  0  0  0  0  0  0  0  0
    3.2898    3.0944    6.9643 C   0  0  0  0  0  0  0  0  0  0  0  0
    2.9255    2.9697    5.4634 C   0  0  2  0  0  0  0  0  0  0  0  0
    1.8795    4.1575    5.0470 C   0  0  2  0  0  0  0  0  0  0  0  0
    2.8533    5.2783    4.5345 C   0  0  0  0  0  0  0  0  0  0  0  0
    1.1256    4.8610    6.2379 C   0  0  0  0  0  0  0  0  0  0  0  0
   -0.2685    4.4341    6.7698 C   0  0  0  0  0  0  0  0  0  0  0  0
   -0.7192    2.9659    7.0915 C   0  0  1  0  0  0  0  0  0  0  0  0
   -2.2791    2.9576    7.0431 C   0  0  0  0  0  0  0  0  0  0  0  0
   -0.0298    1.7063    6.3995 C   0  0  2  0  0  0  0  0  0  0  0  0
   -0.8556    0.4972    7.0123 C   0  0  0  0  0  0  0  0  0  0  0  0
   -0.1159    1.7184    4.7469 C   0  0  2  0  0  0  0  0  0  0  0  0
   -1.1047    0.6168    4.3971 C   0  0  0  0  0  0  0  0  0  0  0  0
   -0.1205   -0.2244    4.0466 C   0  0  0  0  0  0  0  0  0  0  0  0
    0.7287    0.9550    3.6310 C   0  0  2  0  0  0  0  0  0  0  0  0
    0.3908    1.1672    2.0838 C   0  0  0  0  0  0  0  0  0  0  0  0
   -0.9593    0.9548    1.6804 O   0  0  0  0  0  0  0  0  0  0  0  0
   -0.4124    3.0862    4.1415 C   0  0  0  0  0  0  0  0  0  0  0  0
    0.8753    3.9187    3.8680 C   0  0  1  0  0  0  0  0  0  0  0  0
    0.3861    5.1146    3.2813 O   0  0  0  0  0  0  0  0  0  0  0  0
    3.4634   -1.2667    0.0562 H   0  0  0  0  0  0  0  0  0  0  0  0
    2.8090   -2.3280    1.2982 H   0  0  0  0  0  0  0  0  0  0  0  0
    4.4909   -1.7750    1.4064 H   0  0  0  0  0  0  0  0  0  0  0  0
    2.6608    1.6410    3.0350 H   0  0  0  0  0  0  0  0  0  0  0  0
    5.0976    1.4496    5.7894 H   0  0  0  0  0  0  0  0  0  0  0  0
    4.9064    1.4634    4.0672 H   0  0  0  0  0  0  0  0  0  0  0  0
    4.7351   -0.0191    4.9814 H   0  0  0  0  0  0  0  0  0  0  0  0
    1.7509   -0.3025    5.8449 H   0  0  0  0  0  0  0  0  0  0  0  0
    3.7638   -0.6742    6.5662 H   0  0  0  0  0  0  0  0  0  0  0  0
    1.1615    0.7591    7.9521 H   0  0  0  0  0  0  0  0  0  0  0  0
    1.5571    3.2723    8.2616 H   0  0  0  0  0  0  0  0  0  0  0  0
    2.6567    2.0522    8.7161 H   0  0  0  0  0  0  0  0  0  0  0  0
    3.5599    4.1025    7.2674 H   0  0  0  0  0  0  0  0  0  0  0  0
    4.1840    2.5369    7.2065 H   0  0  0  0  0  0  0  0  0  0  0  0
    3.8431    3.2849    4.9710 H   0  0  0  0  0  0  0  0  0  0  0  0
    2.3529    6.2149    4.2932 H   0  0  0  0  0  0  0  0  0  0  0  0
    3.3832    4.9782    3.6289 H   0  0  0  0  0  0  0  0  0  0  0  0
    3.6045    5.5322    5.2835 H   0  0  0  0  0  0  0  0  0  0  0  0
    1.7708    5.0982    7.0769 H   0  0  0  0  0  0  0  0  0  0  0  0
    0.9162    5.8696    5.8885 H   0  0  0  0  0  0  0  0  0  0  0  0
   -0.3959    4.9783    7.7053 H   0  0  0  0  0  0  0  0  0  0  0  0
   -1.0026    4.9344    6.1405 H   0  0  0  0  0  0  0  0  0  0  0  0
   -0.5227    2.8422    8.1597 H   0  0  0  0  0  0  0  0  0  0  0  0
   -2.6733    2.7990    6.0398 H   0  0  0  0  0  0  0  0  0  0  0  0
   -2.6846    3.8992    7.4093 H   0  0  0  0  0  0  0  0  0  0  0  0
   -2.7102    2.1954    7.6901 H   0  0  0  0  0  0  0  0  0  0  0  0
   -1.8976    0.4334    6.7005 H   0  0  0  0  0  0  0  0  0  0  0  0
   -0.9155    0.5376    8.1001 H   0  0  0  0  0  0  0  0  0  0  0  0
   -0.4067   -0.4641    6.7613 H   0  0  0  0  0  0  0  0  0  0  0  0
   -2.1717    0.4952    4.5567 H   0  0  0  0  0  0  0  0  0  0  0  0
   -0.1168   -1.2744    3.7707 H   0  0  0  0  0  0  0  0  0  0  0  0
    0.6824    2.1465    1.7214 H   0  0  0  0  0  0  0  0  0  0  0  0
    0.9081    0.4737    1.4387 H   0  0  0  0  0  0  0  0  0  0  0  0
   -0.9925    0.9320    0.7112 H   0  0  0  0  0  0  0  0  0  0  0  0
   -0.9159    2.9653    3.1886 H   0  0  0  0  0  0  0  0  0  0  0  0
   -1.2076    3.6202    4.6320 H   0  0  0  0  0  0  0  0  0  0  0  0
    1.4894    3.4846    3.0861 H   0  0  0  0  0  0  0  0  0  0  0  0
    0.2195    4.9327    2.3375 H   0  0  0  0  0  0  0  0  0  0  0  0
  1  2  1  0
  1 31  1  0
  1 32  1  0
  1 33  1  0
  2  3  1  0
  3  4  2  0
  3  5  1  0
  5 25  1  0
  5  6  1  0
  5 34  1  6
  6 13  1  0
  6  7  1  6
  6  8  1  0
  7 35  1  0
  7 36  1  0
  7 37  1  0
  8  9  1  0
  8 10  1  0
  8 38  1  6
  9 39  1  0
 10 20  1  0
 10 11  1  0
 10 40  1  1
 11 12  1  0
 11 41  1  0
 11 42  1  0
 12 13  1  0
 12 43  1  0
 12 44  1  0
 13 14  1  0
 13 45  1  6
 14 29  1  0
 14 15  1  6
 14 16  1  0
 15 46  1  0
 15 47  1  0
 15 48  1  0
 16 17  1  0
 16 49  1  0
 16 50  1  0
 17 18  1  0
 17 51  1  0
 17 52  1  0
 18 19  1  0
 18 20  1  0
 18 53  1  1
 19 54  1  0
 19 55  1  0
 19 56  1  0
 20 21  1  1
 20 22  1  0
 21 57  1  0
 21 58  1  0
 21 59  1  0
 22 25  1  0
 22 23  1  1
 22 28  1  0
 23 24  2  0
 23 60  1  0
 24 25  1  0
 24 61  1  0
 25 26  1  6
 26 27  1  0
 26 62  1  0
 26 63  1  0
 27 64  1  0
 28 29  1  0
 28 65  1  0
 28 66  1  0
 29 30  1  0
 29 67  1  6
 30 68  1  0
M  END
>  <i_m_ct_stereo_status>  (367) 
1

>  <s_m_source_file>  (367) 
/var/tmp/pbs.5076255.sched01/tmp0i_w_vt9/132llf9lao3.sdf

>  <i_m_source_file_index>  (367) 
20

>  <i_lp_mmshare_version>  (367) 
48012

>  <i_f3d_flags>  (367) 
0

>  <s_epik_input>  (367) 
W0NIM11PQyg9TylbQ0BASF0oW0NAXTEoW0NIXT1bQ0hdMilbQ0gyXVtPSF0pW0NAXShbQ0gzXSkoW0NAQEhdKFtPSF0pW0NAQEhdM1tDQEBdNChbQ0BAXTEyNSlbQ0gzXSlbQ0BIXShbQ0gyXVtDSDJdMylbQ0BAXShbQ0gzXSkoW0NAQEhdKFtDSDJdNSlbT0hdKVtDSDJdW0NIMl1bQ0BIXTRbQ0gzXQ==

>  <s_epik_cmdline>  (367) 
J2VwaWtfcHl0aG9uJywgJy1waHQnLCAnMi4wJywgJy1waCcsICc3LjAnLCAnLXRuJywgJzgnLCAnLW1hJywgJzIwMCcsICctaW1hZScsICc8aW5maWxlLm1hZT4nLCAnLW9tYWUnLCAnPG91dGZpbGUubWFlPic=

>  <r_lp_tautomer_probability>  (367) 
1

>  <r_epik_Ionization_Penalty>  (367) 
1.46923e-06

>  <r_epik_Ionization_Penalty_Charging>  (367) 
0

>  <r_epik_Ionization_Penalty_Neutral>  (367) 
1.46923e-06

>  <r_epik_State_Penalty>  (367) 
-0

>  <r_epik_Charging_Adjusted_Penalty>  (367) 
0

>  <i_epik_Tot_Q>  (367) 
0

>  <i_epik_Tot_abs_Q>  (367) 
0

>  <s_epik_Chemistry_Notes>  (367) 
This compound has an ester and may undergo hydrolysis at high or low pH.

>  <s_lp_Force_Field>  (367) 
OPLS3e

>  <r_lp_Energy>  (367) 
184.323

>  <b_lp_Chiralities_Consistent>  (367) 
1

>  <s_lp_Variant>  (367) 
104:0-1

>  <s_i_glide_gridfile>  (367) 
pfpi4k_grid

>  <i_i_glide_lignum>  (367) 
20

>  <i_i_glide_rotatable_bonds>  (367) 
6

>  <r_i_docking_score>  (367) 
-3.41633

>  <r_i_glide_ligand_efficiency>  (367) 
-0.113878

>  <r_i_glide_ligand_efficiency_sa>  (367) 
-0.353844

>  <r_i_glide_ligand_efficiency_ln>  (367) 
-0.776227

>  <r_i_glide_gscore>  (367) 
-3.41633

>  <r_i_glide_lipo>  (367) 
-0.116216

>  <r_i_glide_hbond>  (367) 
-0.315534

>  <r_i_glide_metal>  (367) 
-0

>  <r_i_glide_rewards>  (367) 
-0.55523

>  <r_i_glide_evdw>  (367) 
-23.046

>  <r_i_glide_ecoul>  (367) 
-9.54859

>  <r_i_glide_erotb>  (367) 
0.158025

>  <r_i_glide_esite>  (367) 
-0.00278723

>  <r_i_glide_emodel>  (367) 
-37.2701

>  <r_i_glide_energy>  (367) 
-32.5946

>  <r_i_glide_einternal>  (367) 
5.63756

>  <r_i_glide_intrahb_reward>  (367) 
-0

>  <i_i_glide_confnum>  (367) 
6

>  <i_i_glide_posenum>  (367) 
22

>  <r_i_glide_eff_state_penalty>  (367) 
0

>  <ligand_id>  (367) 
104

>  <original_smiles>  (367) 
COC(=O)C1C2(C)C(O)C3CCC2C2(C)CCC(C)C3(C)C3(C=CC13CO)CC2O

>  <smiles>  (367) 
[H]OC([H])([H])C12C([H])=C([H])C13C([H])([H])C([H])(O[H])C1(C([H])([H])[H])C([H])([H])C([H])([H])C([H])(C([H])([H])[H])C3(C([H])([H])[H])C3([H])C([H])([H])C([H])([H])C1([H])C(C([H])([H])[H])(C3([H])O[H])C2([H])C(=O)OC([H])([H])[H]

$$$$
104:0:1
     RDKit          3D

 68 72  0  0  1  0  0  0  0  0999 V2000
    3.4779   -1.4941    1.1343 C   0  0  0  0  0  0  0  0  0  0  0  0
    3.1078   -0.3359    1.8534 O   0  0  0  0  0  0  0  0  0  0  0  0
    2.8224   -0.4494    3.1670 C   0  0  0  0  0  0  0  0  0  0  0  0
    2.9192   -1.4729    3.8182 O   0  0  0  0  0  0  0  0  0  0  0  0
    2.2908    0.9075    3.7461 C   0  0  2  0  0  0  0  0  0  0  0  0
    2.9474    1.3831    5.0958 C   0  0  2  0  0  0  0  0  0  0  0  0
    4.4849    1.0317    4.9857 C   0  0  0  0  0  0  0  0  0  0  0  0
    2.3001    0.5414    6.2419 C   0  0  1  0  0  0  0  0  0  0  0  0
    3.2321   -0.0903    7.1120 O   0  0  0  0  0  0  0  0  0  0  0  0
    1.3763    1.4022    7.0956 C   0  0  1  0  0  0  0  0  0  0  0  0
    2.1934    2.4947    7.8385 C   0  0  0  0  0  0  0  0  0  0  0  0
    3.2909    3.0939    6.9627 C   0  0  0  0  0  0  0  0  0  0  0  0
    2.9264    2.9632    5.4647 C   0  0  2  0  0  0  0  0  0  0  0  0
    1.8896    4.1568    5.0506 C   0  0  2  0  0  0  0  0  0  0  0  0
    2.8692    5.2684    4.5335 C   0  0  0  0  0  0  0  0  0  0  0  0
    1.1422    4.8623    6.2401 C   0  0  0  0  0  0  0  0  0  0  0  0
   -0.2549    4.4505    6.7678 C   0  0  0  0  0  0  0  0  0  0  0  0
   -0.7106    2.9878    7.0970 C   0  0  1  0  0  0  0  0  0  0  0  0
   -2.2712    2.9862    7.0414 C   0  0  0  0  0  0  0  0  0  0  0  0
   -0.0260    1.7285    6.4102 C   0  0  2  0  0  0  0  0  0  0  0  0
   -0.8624    0.5280    7.0216 C   0  0  0  0  0  0  0  0  0  0  0  0
   -0.1016    1.7427    4.7573 C   0  0  2  0  0  0  0  0  0  0  0  0
   -1.0917    0.6467    4.4168 C   0  0  0  0  0  0  0  0  0  0  0  0
   -0.1048   -0.2038    4.0562 C   0  0  0  0  0  0  0  0  0  0  0  0
    0.7342    0.9746    3.6375 C   0  0  2  0  0  0  0  0  0  0  0  0
    0.3811    1.1821    2.0875 C   0  0  0  0  0  0  0  0  0  0  0  0
   -0.9677    0.9723    1.6935 O   0  0  0  0  0  0  0  0  0  0  0  0
   -0.4093    3.1025    4.1488 C   0  0  0  0  0  0  0  0  0  0  0  0
    0.8859    3.9215    3.8741 C   0  0  1  0  0  0  0  0  0  0  0  0
    0.3889    5.1123    3.2905 O   0  0  0  0  0  0  0  0  0  0  0  0
    3.4694   -1.2756    0.0661 H   0  0  0  0  0  0  0  0  0  0  0  0
    2.7911   -2.3231    1.3056 H   0  0  0  0  0  0  0  0  0  0  0  0
    4.4840   -1.8011    1.4171 H   0  0  0  0  0  0  0  0  0  0  0  0
    2.6793    1.6220    3.0347 H   0  0  0  0  0  0  0  0  0  0  0  0
    5.0913    1.4406    5.7902 H   0  0  0  0  0  0  0  0  0  0  0  0
    4.8900    1.4341    4.0611 H   0  0  0  0  0  0  0  0  0  0  0  0
    4.7090   -0.0355    5.0014 H   0  0  0  0  0  0  0  0  0  0  0  0
    1.7340   -0.2942    5.8429 H   0  0  0  0  0  0  0  0  0  0  0  0
    3.7742    0.5746    7.5057 H   0  0  0  0  0  0  0  0  0  0  0  0
    1.1436    0.7721    7.9518 H   0  0  0  0  0  0  0  0  0  0  0  0
    1.5708    3.2789    8.2452 H   0  0  0  0  0  0  0  0  0  0  0  0
    2.6610    2.0454    8.7296 H   0  0  0  0  0  0  0  0  0  0  0  0
    3.5575    4.1035    7.2677 H   0  0  0  0  0  0  0  0  0  0  0  0
    4.1906    2.5450    7.1997 H   0  0  0  0  0  0  0  0  0  0  0  0
    3.8405    3.2732    4.9640 H   0  0  0  0  0  0  0  0  0  0  0  0
    2.3723    6.2043    4.2904 H   0  0  0  0  0  0  0  0  0  0  0  0
    3.3958    4.9626    3.6289 H   0  0  0  0  0  0  0  0  0  0  0  0
    3.6233    5.5179    5.2820 H   0  0  0  0  0  0  0  0  0  0  0  0
    1.7887    5.1099    7.0786 H   0  0  0  0  0  0  0  0  0  0  0  0
    0.9368    5.8652    5.8792 H   0  0  0  0  0  0  0  0  0  0  0  0
   -0.3758    4.9967    7.7014 H   0  0  0  0  0  0  0  0  0  0  0  0
   -0.9840    4.9500    6.1359 H   0  0  0  0  0  0  0  0  0  0  0  0
   -0.5141    2.8633    8.1682 H   0  0  0  0  0  0  0  0  0  0  0  0
   -2.6643    2.8232    6.0398 H   0  0  0  0  0  0  0  0  0  0  0  0
   -2.6708    3.9325    7.4069 H   0  0  0  0  0  0  0  0  0  0  0  0
   -2.7076    2.2292    7.6909 H   0  0  0  0  0  0  0  0  0  0  0  0
   -1.9094    0.4645    6.7145 H   0  0  0  0  0  0  0  0  0  0  0  0
   -0.9204    0.5690    8.1091 H   0  0  0  0  0  0  0  0  0  0  0  0
   -0.4162   -0.4342    6.7655 H   0  0  0  0  0  0  0  0  0  0  0  0
   -2.1411    0.5098    4.5945 H   0  0  0  0  0  0  0  0  0  0  0  0
   -0.1293   -1.2359    3.7595 H   0  0  0  0  0  0  0  0  0  0  0  0
    0.6963    2.1564    1.7075 H   0  0  0  0  0  0  0  0  0  0  0  0
    0.8869    0.4758    1.4504 H   0  0  0  0  0  0  0  0  0  0  0  0
   -0.9880    0.9295    0.7223 H   0  0  0  0  0  0  0  0  0  0  0  0
   -0.9145    2.9681    3.1978 H   0  0  0  0  0  0  0  0  0  0  0  0
   -1.2054    3.6405    4.6334 H   0  0  0  0  0  0  0  0  0  0  0  0
    1.5029    3.4919    3.0931 H   0  0  0  0  0  0  0  0  0  0  0  0
    0.2169    4.9150    2.3629 H   0  0  0  0  0  0  0  0  0  0  0  0
  1  2  1  0
  1 31  1  0
  1 32  1  0
  1 33  1  0
  2  3  1  0
  3  4  2  0
  3  5  1  0
  5 25  1  0
  5  6  1  0
  5 34  1  6
  6 13  1  0
  6  7  1  6
  6  8  1  0
  7 35  1  0
  7 36  1  0
  7 37  1  0
  8  9  1  0
  8 10  1  0
  8 38  1  6
  9 39  1  0
 10 20  1  0
 10 11  1  0
 10 40  1  1
 11 12  1  0
 11 41  1  0
 11 42  1  0
 12 13  1  0
 12 43  1  0
 12 44  1  0
 13 14  1  0
 13 45  1  6
 14 29  1  0
 14 15  1  6
 14 16  1  0
 15 46  1  0
 15 47  1  0
 15 48  1  0
 16 17  1  0
 16 49  1  0
 16 50  1  0
 17 18  1  0
 17 51  1  0
 17 52  1  0
 18 19  1  0
 18 20  1  0
 18 53  1  1
 19 54  1  0
 19 55  1  0
 19 56  1  0
 20 21  1  1
 20 22  1  0
 21 57  1  0
 21 58  1  0
 21 59  1  0
 22 25  1  0
 22 23  1  1
 22 28  1  0
 23 24  2  0
 23 60  1  0
 24 25  1  0
 24 61  1  0
 25 26  1  6
 26 27  1  0
 26 62  1  0
 26 63  1  0
 27 64  1  0
 28 29  1  0
 28 65  1  0
 28 66  1  0
 29 30  1  0
 29 67  1  6
 30 68  1  0
M  END
>  <i_m_ct_stereo_status>  (368) 
1

>  <s_m_source_file>  (368) 
/var/tmp/pbs.5076255.sched01/tmp0i_w_vt9/132llf9lao3.sdf

>  <i_m_source_file_index>  (368) 
20

>  <i_lp_mmshare_version>  (368) 
48012

>  <i_f3d_flags>  (368) 
0

>  <s_epik_input>  (368) 
W0NIM11PQyg9TylbQ0BASF0oW0NAXTEoW0NIXT1bQ0hdMilbQ0gyXVtPSF0pW0NAXShbQ0gzXSkoW0NAQEhdKFtPSF0pW0NAQEhdM1tDQEBdNChbQ0BAXTEyNSlbQ0gzXSlbQ0BIXShbQ0gyXVtDSDJdMylbQ0BAXShbQ0gzXSkoW0NAQEhdKFtDSDJdNSlbT0hdKVtDSDJdW0NIMl1bQ0BIXTRbQ0gzXQ==

>  <s_epik_cmdline>  (368) 
J2VwaWtfcHl0aG9uJywgJy1waHQnLCAnMi4wJywgJy1waCcsICc3LjAnLCAnLXRuJywgJzgnLCAnLW1hJywgJzIwMCcsICctaW1hZScsICc8aW5maWxlLm1hZT4nLCAnLW9tYWUnLCAnPG91dGZpbGUubWFlPic=

>  <r_lp_tautomer_probability>  (368) 
1

>  <r_epik_Ionization_Penalty>  (368) 
1.46923e-06

>  <r_epik_Ionization_Penalty_Charging>  (368) 
0

>  <r_epik_Ionization_Penalty_Neutral>  (368) 
1.46923e-06

>  <r_epik_State_Penalty>  (368) 
-0

>  <r_epik_Charging_Adjusted_Penalty>  (368) 
0

>  <i_epik_Tot_Q>  (368) 
0

>  <i_epik_Tot_abs_Q>  (368) 
0

>  <s_epik_Chemistry_Notes>  (368) 
This compound has an ester and may undergo hydrolysis at high or low pH.

>  <s_lp_Force_Field>  (368) 
OPLS3e

>  <r_lp_Energy>  (368) 
184.323

>  <b_lp_Chiralities_Consistent>  (368) 
1

>  <s_lp_Variant>  (368) 
104:0-1

>  <s_i_glide_gridfile>  (368) 
pfpi4k_grid

>  <i_i_glide_lignum>  (368) 
20

>  <i_i_glide_rotatable_bonds>  (368) 
6

>  <r_i_docking_score>  (368) 
-3.34054

>  <r_i_glide_ligand_efficiency>  (368) 
-0.111351

>  <r_i_glide_ligand_efficiency_sa>  (368) 
-0.345995

>  <r_i_glide_ligand_efficiency_ln>  (368) 
-0.759008

>  <r_i_glide_gscore>  (368) 
-3.34054

>  <r_i_glide_lipo>  (368) 
-0.114555

>  <r_i_glide_hbond>  (368) 
-0.312627

>  <r_i_glide_metal>  (368) 
-0

>  <r_i_glide_rewards>  (368) 
-0.55523

>  <r_i_glide_evdw>  (368) 
-23.2022

>  <r_i_glide_ecoul>  (368) 
-9.02167

>  <r_i_glide_erotb>  (368) 
0.158025

>  <r_i_glide_esite>  (368) 
-0.00279337

>  <r_i_glide_emodel>  (368) 
-36.8622

>  <r_i_glide_energy>  (368) 
-32.2239

>  <r_i_glide_einternal>  (368) 
5.43822

>  <r_i_glide_intrahb_reward>  (368) 
-0

>  <i_i_glide_confnum>  (368) 
2

>  <i_i_glide_posenum>  (368) 
39

>  <r_i_glide_eff_state_penalty>  (368) 
0

>  <ligand_id>  (368) 
104

>  <original_smiles>  (368) 
COC(=O)C1C2(C)C(O)C3CCC2C2(C)CCC(C)C3(C)C3(C=CC13CO)CC2O

>  <smiles>  (368) 
[H]OC([H])([H])C12C([H])=C([H])C13C([H])([H])C([H])(O[H])C1(C([H])([H])[H])C([H])([H])C([H])([H])C([H])(C([H])([H])[H])C3(C([H])([H])[H])C3([H])C([H])([H])C([H])([H])C1([H])C(C([H])([H])[H])(C3([H])O[H])C2([H])C(=O)OC([H])([H])[H]

$$$$
104:0:2
     RDKit          3D

 68 72  0  0  1  0  0  0  0  0999 V2000
    4.4527   -1.1680    1.7224 C   0  0  0  0  0  0  0  0  0  0  0  0
    3.8179   -0.0690    2.3401 O   0  0  0  0  0  0  0  0  0  0  0  0
    3.3410   -0.1871    3.5830 C   0  0  0  0  0  0  0  0  0  0  0  0
    3.4009   -1.2059    4.2731 O   0  0  0  0  0  0  0  0  0  0  0  0
    2.6706    1.1273    4.0826 C   0  0  2  0  0  0  0  0  0  0  0  0
    3.0412    1.6125    5.5304 C   0  0  2  0  0  0  0  0  0  0  0  0
    4.5897    1.3099    5.6884 C   0  0  0  0  0  0  0  0  0  0  0  0
    2.2263    0.7366    6.5149 C   0  0  1  0  0  0  0  0  0  0  0  0
    3.0172    0.1398    7.5239 O   0  0  0  0  0  0  0  0  0  0  0  0
    1.1256    1.5591    7.1757 C   0  0  1  0  0  0  0  0  0  0  0  0
    1.7570    2.6758    8.0704 C   0  0  0  0  0  0  0  0  0  0  0  0
    2.9962    3.3064    7.4339 C   0  0  0  0  0  0  0  0  0  0  0  0
    2.9133    3.1996    5.8943 C   0  0  2  0  0  0  0  0  0  0  0  0
    1.9340    4.3844    5.3313 C   0  0  2  0  0  0  0  0  0  0  0  0
    2.9646    5.5174    4.9900 C   0  0  0  0  0  0  0  0  0  0  0  0
    0.9626    5.0492    6.3550 C   0  0  0  0  0  0  0  0  0  0  0  0
   -0.4944    4.5656    6.5881 C   0  0  0  0  0  0  0  0  0  0  0  0
   -0.9618    3.0799    6.8026 C   0  0  1  0  0  0  0  0  0  0  0  0
   -2.4796    3.0409    6.4737 C   0  0  0  0  0  0  0  0  0  0  0  0
   -0.1347    1.8447    6.2293 C   0  0  2  0  0  0  0  0  0  0  0  0
   -1.0256    0.6012    6.6580 C   0  0  0  0  0  0  0  0  0  0  0  0
    0.1083    1.8921    4.5957 C   0  0  2  0  0  0  0  0  0  0  0  0
   -0.8006    0.7876    4.0185 C   0  0  0  0  0  0  0  0  0  0  0  0
    0.2597   -0.0470    3.8835 C   0  0  0  0  0  0  0  0  0  0  0  0
    1.1650    1.1662    3.6752 C   0  0  2  0  0  0  0  0  0  0  0  0
    1.1097    1.2806    2.1015 C   0  0  0  0  0  0  0  0  0  0  0  0
    1.8135    2.3878    1.6765 O   0  0  0  0  0  0  0  0  0  0  0  0
   -0.1147    3.2549    3.9690 C   0  0  0  0  0  0  0  0  0  0  0  0
    1.1505    4.1706    4.0136 C   0  0  1  0  0  0  0  0  0  0  0  0
    0.7618    5.3332    3.2875 O   0  0  0  0  0  0  0  0  0  0  0  0
    4.6778   -0.9258    0.6831 H   0  0  0  0  0  0  0  0  0  0  0  0
    3.8226   -2.0598    1.7343 H   0  0  0  0  0  0  0  0  0  0  0  0
    5.3885   -1.3886    2.2365 H   0  0  0  0  0  0  0  0  0  0  0  0
    3.1958    1.8795    3.5013 H   0  0  0  0  0  0  0  0  0  0  0  0
    5.0355    1.7024    6.5995 H   0  0  0  0  0  0  0  0  0  0  0  0
    5.1580    1.7446    4.8660 H   0  0  0  0  0  0  0  0  0  0  0  0
    4.8579    0.2516    5.7187 H   0  0  0  0  0  0  0  0  0  0  0  0
    1.7684   -0.1117    6.0178 H   0  0  0  0  0  0  0  0  0  0  0  0
    3.6385   -0.4344    7.1011 H   0  0  0  0  0  0  0  0  0  0  0  0
    0.7711    0.9184    7.9836 H   0  0  0  0  0  0  0  0  0  0  0  0
    1.0503    3.4355    8.3806 H   0  0  0  0  0  0  0  0  0  0  0  0
    2.0724    2.2384    9.0219 H   0  0  0  0  0  0  0  0  0  0  0  0
    3.1883    4.3189    7.7843 H   0  0  0  0  0  0  0  0  0  0  0  0
    3.8455    2.7625    7.8298 H   0  0  0  0  0  0  0  0  0  0  0  0
    3.8979    3.5337    5.5742 H   0  0  0  0  0  0  0  0  0  0  0  0
    2.5011    6.4421    4.6494 H   0  0  0  0  0  0  0  0  0  0  0  0
    3.6502    5.2255    4.1916 H   0  0  0  0  0  0  0  0  0  0  0  0
    3.5735    5.7826    5.8544 H   0  0  0  0  0  0  0  0  0  0  0  0
    1.4349    5.2919    7.3020 H   0  0  0  0  0  0  0  0  0  0  0  0
    0.7920    6.0522    5.9614 H   0  0  0  0  0  0  0  0  0  0  0  0
   -0.8168    5.1001    7.4835 H   0  0  0  0  0  0  0  0  0  0  0  0
   -1.1007    5.0440    5.8217 H   0  0  0  0  0  0  0  0  0  0  0  0
   -0.9592    2.9496    7.8867 H   0  0  0  0  0  0  0  0  0  0  0  0
   -2.6854    2.8898    5.4134 H   0  0  0  0  0  0  0  0  0  0  0  0
   -2.9595    3.9718    6.7690 H   0  0  0  0  0  0  0  0  0  0  0  0
   -3.0097    2.2650    7.0247 H   0  0  0  0  0  0  0  0  0  0  0  0
   -1.9863    0.5165    6.1589 H   0  0  0  0  0  0  0  0  0  0  0  0
   -1.2809    0.6366    7.7183 H   0  0  0  0  0  0  0  0  0  0  0  0
   -0.5125   -0.3473    6.5030 H   0  0  0  0  0  0  0  0  0  0  0  0
   -1.8669    0.6278    3.9657 H   0  0  0  0  0  0  0  0  0  0  0  0
    0.3509   -1.0925    3.6220 H   0  0  0  0  0  0  0  0  0  0  0  0
    1.4947    0.3977    1.5894 H   0  0  0  0  0  0  0  0  0  0  0  0
    0.1067    1.3699    1.6921 H   0  0  0  0  0  0  0  0  0  0  0  0
    1.2020    3.0691    1.3736 H   0  0  0  0  0  0  0  0  0  0  0  0
   -0.3976    3.1331    2.9238 H   0  0  0  0  0  0  0  0  0  0  0  0
   -1.0233    3.7334    4.2908 H   0  0  0  0  0  0  0  0  0  0  0  0
    2.0169    3.8035    3.4605 H   0  0  0  0  0  0  0  0  0  0  0  0
    0.6136    5.0754    2.3755 H   0  0  0  0  0  0  0  0  0  0  0  0
  1  2  1  0
  1 31  1  0
  1 32  1  0
  1 33  1  0
  2  3  1  0
  3  4  2  0
  3  5  1  0
  5 25  1  0
  5  6  1  0
  5 34  1  6
  6 13  1  0
  6  7  1  1
  6  8  1  0
  7 35  1  0
  7 36  1  0
  7 37  1  0
  8  9  1  0
  8 10  1  0
  8 38  1  6
  9 39  1  0
 10 20  1  0
 10 11  1  0
 10 40  1  1
 11 12  1  0
 11 41  1  0
 11 42  1  0
 12 13  1  0
 12 43  1  0
 12 44  1  0
 13 14  1  0
 13 45  1  6
 14 29  1  0
 14 15  1  6
 14 16  1  0
 15 46  1  0
 15 47  1  0
 15 48  1  0
 16 17  1  0
 16 49  1  0
 16 50  1  0
 17 18  1  0
 17 51  1  0
 17 52  1  0
 18 19  1  0
 18 20  1  0
 18 53  1  1
 19 54  1  0
 19 55  1  0
 19 56  1  0
 20 21  1  6
 20 22  1  0
 21 57  1  0
 21 58  1  0
 21 59  1  0
 22 25  1  0
 22 23  1  6
 22 28  1  0
 23 24  2  0
 23 60  1  0
 24 25  1  0
 24 61  1  0
 25 26  1  6
 26 27  1  0
 26 62  1  0
 26 63  1  0
 27 64  1  0
 28 29  1  0
 28 65  1  0
 28 66  1  0
 29 30  1  0
 29 67  1  6
 30 68  1  0
M  END
>  <i_m_ct_stereo_status>  (369) 
1

>  <s_m_source_file>  (369) 
/var/tmp/pbs.5076255.sched01/tmp0i_w_vt9/132llf9lao3.sdf

>  <i_m_source_file_index>  (369) 
20

>  <i_lp_mmshare_version>  (369) 
48012

>  <i_f3d_flags>  (369) 
0

>  <s_epik_input>  (369) 
W0NIM11PQyg9TylbQ0BASF0oW0NAXTEoW0NIXT1bQ0hdMilbQ0gyXVtPSF0pW0NAXShbQ0gzXSkoW0NAQEhdKFtPSF0pW0NAQEhdM1tDQEBdNChbQ0BAXTEyNSlbQ0gzXSlbQ0BIXShbQ0gyXVtDSDJdMylbQ0BAXShbQ0gzXSkoW0NAQEhdKFtDSDJdNSlbT0hdKVtDSDJdW0NIMl1bQ0BIXTRbQ0gzXQ==

>  <s_epik_cmdline>  (369) 
J2VwaWtfcHl0aG9uJywgJy1waHQnLCAnMi4wJywgJy1waCcsICc3LjAnLCAnLXRuJywgJzgnLCAnLW1hJywgJzIwMCcsICctaW1hZScsICc8aW5maWxlLm1hZT4nLCAnLW9tYWUnLCAnPG91dGZpbGUubWFlPic=

>  <r_lp_tautomer_probability>  (369) 
1

>  <r_epik_Ionization_Penalty>  (369) 
1.46923e-06

>  <r_epik_Ionization_Penalty_Charging>  (369) 
0

>  <r_epik_Ionization_Penalty_Neutral>  (369) 
1.46923e-06

>  <r_epik_State_Penalty>  (369) 
-0

>  <r_epik_Charging_Adjusted_Penalty>  (369) 
0

>  <i_epik_Tot_Q>  (369) 
0

>  <i_epik_Tot_abs_Q>  (369) 
0

>  <s_epik_Chemistry_Notes>  (369) 
This compound has an ester and may undergo hydrolysis at high or low pH.

>  <s_lp_Force_Field>  (369) 
OPLS3e

>  <r_lp_Energy>  (369) 
184.323

>  <b_lp_Chiralities_Consistent>  (369) 
1

>  <s_lp_Variant>  (369) 
104:0-1

>  <s_i_glide_gridfile>  (369) 
pfpi4k_grid

>  <i_i_glide_lignum>  (369) 
20

>  <i_i_glide_rotatable_bonds>  (369) 
6

>  <r_i_docking_score>  (369) 
-2.92438

>  <r_i_glide_ligand_efficiency>  (369) 
-0.0974794

>  <r_i_glide_ligand_efficiency_sa>  (369) 
-0.302891

>  <r_i_glide_ligand_efficiency_ln>  (369) 
-0.664451

>  <r_i_glide_gscore>  (369) 
-2.92438

>  <r_i_glide_lipo>  (369) 
-0.181932

>  <r_i_glide_hbond>  (369) 
-0.152

>  <r_i_glide_metal>  (369) 
-0

>  <r_i_glide_rewards>  (369) 
-0.558475

>  <r_i_glide_evdw>  (369) 
-21.7637

>  <r_i_glide_ecoul>  (369) 
-7.79694

>  <r_i_glide_erotb>  (369) 
0.22575

>  <r_i_glide_esite>  (369) 
0

>  <r_i_glide_emodel>  (369) 
-34.0711

>  <r_i_glide_energy>  (369) 
-29.5606

>  <r_i_glide_einternal>  (369) 
2.49024

>  <r_i_glide_intrahb_reward>  (369) 
-0

>  <i_i_glide_confnum>  (369) 
6

>  <i_i_glide_posenum>  (369) 
2

>  <r_i_glide_eff_state_penalty>  (369) 
0

>  <ligand_id>  (369) 
104

>  <original_smiles>  (369) 
COC(=O)C1C2(C)C(O)C3CCC2C2(C)CCC(C)C3(C)C3(C=CC13CO)CC2O

>  <smiles>  (369) 
[H]OC([H])([H])C12C([H])=C([H])C13C([H])([H])C([H])(O[H])C1(C([H])([H])[H])C([H])([H])C([H])([H])C([H])(C([H])([H])[H])C3(C([H])([H])[H])C3([H])C([H])([H])C([H])([H])C1([H])C(C([H])([H])[H])(C3([H])O[H])C2([H])C(=O)OC([H])([H])[H]

$$$$
105:0:0
     RDKit          3D

 59 63  0  0  1  0  0  0  0  0999 V2000
    3.1595   -0.4121   -4.4592 C   0  0  0  0  0  0  0  0  0  0  0  0
    3.3830   -1.0628   -3.0814 C   0  0  2  0  0  0  0  0  0  0  0  0
    4.4758   -0.3405   -2.3270 C   0  0  0  0  0  0  0  0  0  0  0  0
    4.6560   -0.7920   -0.8757 C   0  0  0  0  0  0  0  0  0  0  0  0
    4.9260   -2.2996   -0.7639 C   0  0  2  0  0  0  0  0  0  0  0  0
    6.1807   -2.3961   -1.4134 O   0  0  0  0  0  0  0  0  0  0  0  0
    3.7973   -3.0234   -1.5515 C   0  0  0  0  0  0  0  0  0  0  0  0
    2.8600   -3.8546   -1.0619 C   0  0  0  0  0  0  0  0  0  0  0  0
    2.6932   -4.5825    0.2151 C   0  0  0  0  0  0  0  0  0  0  0  0
    1.8370   -5.4670    0.2577 O   0  0  0  0  0  0  0  0  0  0  0  0
    3.6422   -4.4064    1.4361 C   0  0  2  0  0  0  0  0  0  0  0  0
    4.9256   -5.1285    0.9571 C   0  0  2  0  0  0  0  0  0  0  0  0
    5.2993   -6.1563    1.8691 O   0  0  0  0  0  0  0  0  0  0  0  0
    4.0803   -6.6271    2.3369 C   0  0  1  0  0  0  0  0  0  0  0  0
    4.2159   -7.5727    3.3919 O   0  0  0  0  0  0  0  0  0  0  0  0
    3.2988   -5.3216    2.7097 C   0  0  2  0  0  0  0  0  0  0  0  0
    1.8259   -5.7252    3.0042 C   0  0  0  0  0  0  0  0  0  0  0  0
    3.8497   -4.8089    4.0723 C   0  0  0  0  0  0  0  0  0  0  0  0
    4.9834   -3.8011    3.9770 C   0  0  0  0  0  0  0  0  0  0  0  0
    4.4656   -2.6028    3.1916 C   0  0  1  0  0  0  0  0  0  0  0  0
    5.4029   -1.5568    3.2898 O   0  0  0  0  0  0  0  0  0  0  0  0
    4.0331   -2.8850    1.7075 C   0  0  2  0  0  0  0  0  0  0  0  0
    2.8038   -1.9407    1.5356 C   0  0  0  0  0  0  0  0  0  0  0  0
    5.2323   -2.6847    0.7250 C   0  0  1  0  0  0  0  0  0  0  0  0
    5.9323   -4.0271    0.8659 C   0  0  0  0  0  0  0  0  0  0  0  0
    7.1482   -4.1829    0.8515 O   0  0  0  0  0  0  0  0  0  0  0  0
    3.6372   -2.5788   -3.0363 C   0  0  1  0  0  0  0  0  0  0  0  0
    2.5811   -3.3068   -3.8759 C   0  0  0  0  0  0  0  0  0  0  0  0
    4.7778   -2.8834   -3.7835 O   0  0  0  0  0  0  0  0  0  0  0  0
    3.9902   -0.5746   -5.1428 H   0  0  0  0  0  0  0  0  0  0  0  0
    2.9984    0.6602   -4.3645 H   0  0  0  0  0  0  0  0  0  0  0  0
    2.2492   -0.7799   -4.9180 H   0  0  0  0  0  0  0  0  0  0  0  0
    2.4652   -0.8879   -2.5286 H   0  0  0  0  0  0  0  0  0  0  0  0
    5.4132   -0.4654   -2.8104 H   0  0  0  0  0  0  0  0  0  0  0  0
    4.2614    0.7107   -2.3747 H   0  0  0  0  0  0  0  0  0  0  0  0
    5.4842   -0.2575   -0.4133 H   0  0  0  0  0  0  0  0  0  0  0  0
    3.7621   -0.5100   -0.3341 H   0  0  0  0  0  0  0  0  0  0  0  0
    6.4504   -3.3021   -1.4650 H   0  0  0  0  0  0  0  0  0  0  0  0
    2.0713   -4.1843   -1.7217 H   0  0  0  0  0  0  0  0  0  0  0  0
    4.8241   -5.5794   -0.0360 H   0  0  0  0  0  0  0  0  0  0  0  0
    3.5727   -7.1551    1.5219 H   0  0  0  0  0  0  0  0  0  0  0  0
    4.5626   -8.3730    3.0086 H   0  0  0  0  0  0  0  0  0  0  0  0
    1.7445   -6.1858    3.9905 H   0  0  0  0  0  0  0  0  0  0  0  0
    1.4411   -6.4874    2.3335 H   0  0  0  0  0  0  0  0  0  0  0  0
    1.1651   -4.8639    2.9895 H   0  0  0  0  0  0  0  0  0  0  0  0
    3.0382   -4.2979    4.5919 H   0  0  0  0  0  0  0  0  0  0  0  0
    4.1252   -5.6148    4.7704 H   0  0  0  0  0  0  0  0  0  0  0  0
    5.2560   -3.4813    4.9834 H   0  0  0  0  0  0  0  0  0  0  0  0
    5.8769   -4.2533    3.5518 H   0  0  0  0  0  0  0  0  0  0  0  0
    3.5991   -2.2476    3.7544 H   0  0  0  0  0  0  0  0  0  0  0  0
    5.0278   -0.7742    2.9037 H   0  0  0  0  0  0  0  0  0  0  0  0
    3.0600   -0.9107    1.7849 H   0  0  0  0  0  0  0  0  0  0  0  0
    1.9796   -2.2374    2.1963 H   0  0  0  0  0  0  0  0  0  0  0  0
    2.3718   -1.9138    0.5365 H   0  0  0  0  0  0  0  0  0  0  0  0
    5.9202   -1.9216    1.0847 H   0  0  0  0  0  0  0  0  0  0  0  0
    1.5677   -3.1073   -3.5343 H   0  0  0  0  0  0  0  0  0  0  0  0
    2.7337   -4.3775   -3.9652 H   0  0  0  0  0  0  0  0  0  0  0  0
    2.6425   -2.9971   -4.9078 H   0  0  0  0  0  0  0  0  0  0  0  0
    5.0038   -3.7955   -3.6482 H   0  0  0  0  0  0  0  0  0  0  0  0
  1  2  1  0
  1 30  1  0
  1 31  1  0
  1 32  1  0
  2 27  1  0
  2  3  1  0
  2 33  1  1
  3  4  1  0
  3 34  1  0
  3 35  1  0
  4  5  1  0
  4 36  1  0
  4 37  1  0
  5 24  1  0
  5  6  1  6
  5  7  1  0
  6 38  1  0
  7  8  2  0
  7 27  1  0
  8  9  1  0
  8 39  1  0
  9 10  2  0
 11  9  1  6
 11 16  1  0
 11 22  1  0
 11 12  1  0
 12 25  1  0
 12 13  1  0
 12 40  1  6
 13 14  1  0
 14 15  1  0
 14 16  1  0
 14 41  1  6
 15 42  1  0
 16 17  1  1
 16 18  1  0
 17 43  1  0
 17 44  1  0
 17 45  1  0
 18 19  1  0
 18 46  1  0
 18 47  1  0
 19 20  1  0
 19 48  1  0
 19 49  1  0
 20 21  1  0
 20 22  1  0
 20 50  1  1
 21 51  1  0
 22 23  1  6
 22 24  1  0
 23 52  1  0
 23 53  1  0
 23 54  1  0
 24 25  1  0
 24 55  1  1
 25 26  2  0
 27 28  1  0
 27 29  1  6
 28 56  1  0
 28 57  1  0
 28 58  1  0
 29 59  1  0
M  END
>  <i_m_ct_stereo_status>  (370) 
1

>  <s_m_source_file>  (370) 
/var/tmp/pbs.5076255.sched01/tmp0i_w_vt9/132llf9lao3.sdf

>  <i_m_source_file_index>  (370) 
21

>  <i_lp_mmshare_version>  (370) 
48012

>  <i_f3d_flags>  (370) 
0

>  <s_epik_input>  (370) 
W0NIMl0xW0NIMl1bQ0BASF0oW0NIM10pW0NAQF0oW0NIM10pKFtPSF0pQyg9W0NIXUMyPU8pW0NAXTEoW09IXSlbQ0BIXShDMz1PKVtDQF00KFtDSDNdKVtDQEhdKFtPSF0pW0NIMl1bQ0gyXVtDQF01KFtDSDNdKVtDQEhdKFtPSF0pT1tDQEhdM1tDQF0yNDU=

>  <s_epik_cmdline>  (370) 
J2VwaWtfcHl0aG9uJywgJy1waHQnLCAnMi4wJywgJy1waCcsICc3LjAnLCAnLXRuJywgJzgnLCAnLW1hJywgJzIwMCcsICctaW1hZScsICc8aW5maWxlLm1hZT4nLCAnLW9tYWUnLCAnPG91dGZpbGUubWFlPic=

>  <r_lp_tautomer_probability>  (370) 
1

>  <r_epik_Ionization_Penalty>  (370) 
1.14126e-06

>  <r_epik_Ionization_Penalty_Charging>  (370) 
0

>  <r_epik_Ionization_Penalty_Neutral>  (370) 
1.14126e-06

>  <r_epik_State_Penalty>  (370) 
-0

>  <r_epik_Charging_Adjusted_Penalty>  (370) 
0

>  <i_epik_Tot_Q>  (370) 
0

>  <i_epik_Tot_abs_Q>  (370) 
0

>  <s_epik_Chemistry_Notes>  (370) 
This compound contains an acetal/aminal-like group ( X-CH(R)-Y where X, Y are N, S, or O) that may be acid/base labile, releasing an aldehyde.

>  <s_lp_Force_Field>  (370) 
OPLS3e

>  <r_lp_Energy>  (370) 
64.8895

>  <b_lp_Chiralities_Consistent>  (370) 
1

>  <s_lp_Variant>  (370) 
105:0-1

>  <s_i_glide_gridfile>  (370) 
pfpi4k_grid

>  <i_i_glide_lignum>  (370) 
21

>  <i_i_glide_rotatable_bonds>  (370) 
4

>  <r_i_docking_score>  (370) 
-4.21982

>  <r_i_glide_ligand_efficiency>  (370) 
-0.145511

>  <r_i_glide_ligand_efficiency_sa>  (370) 
-0.447056

>  <r_i_glide_ligand_efficiency_ln>  (370) 
-0.966231

>  <r_i_glide_gscore>  (370) 
-4.21982

>  <r_i_glide_lipo>  (370) 
-0.728233

>  <r_i_glide_hbond>  (370) 
-0.0827276

>  <r_i_glide_metal>  (370) 
-0

>  <r_i_glide_rewards>  (370) 
-0.749913

>  <r_i_glide_evdw>  (370) 
-25.1878

>  <r_i_glide_ecoul>  (370) 
-9.06427

>  <r_i_glide_erotb>  (370) 
0

>  <r_i_glide_esite>  (370) 
-0.0399162

>  <r_i_glide_emodel>  (370) 
-40.0669

>  <r_i_glide_energy>  (370) 
-34.252

>  <r_i_glide_einternal>  (370) 
0.798946

>  <r_i_glide_intrahb_reward>  (370) 
-0

>  <i_i_glide_confnum>  (370) 
2

>  <i_i_glide_posenum>  (370) 
14

>  <r_i_glide_eff_state_penalty>  (370) 
0

>  <ligand_id>  (370) 
105

>  <original_smiles>  (370) 
CC1CCC2(O)C(=CC(=O)C34C5OC(O)C3(C)CCC(O)C4(C)C2C5=O)C1(C)O

>  <smiles>  (370) 
[H]OC1([H])OC2([H])C(=O)C3([H])C4(O[H])C(=C([H])C(=O)C25C1(C([H])([H])[H])C([H])([H])C([H])([H])C([H])(O[H])C35C([H])([H])[H])C(O[H])(C([H])([H])[H])C([H])(C([H])([H])[H])C([H])([H])C4([H])[H]

$$$$
105:0:1
     RDKit          3D

 59 63  0  0  1  0  0  0  0  0999 V2000
    3.1503   -0.4128   -4.4532 C   0  0  0  0  0  0  0  0  0  0  0  0
    3.3752   -1.0664   -3.0787 C   0  0  2  0  0  0  0  0  0  0  0  0
    4.4730   -0.3406   -2.3370 C   0  0  0  0  0  0  0  0  0  0  0  0
    4.6495   -0.7845   -0.8756 C   0  0  0  0  0  0  0  0  0  0  0  0
    4.9227   -2.2976   -0.7608 C   0  0  2  0  0  0  0  0  0  0  0  0
    6.1799   -2.3968   -1.4017 O   0  0  0  0  0  0  0  0  0  0  0  0
    3.7955   -3.0241   -1.5482 C   0  0  0  0  0  0  0  0  0  0  0  0
    2.8639   -3.8602   -1.0557 C   0  0  0  0  0  0  0  0  0  0  0  0
    2.6891   -4.5845    0.2226 C   0  0  0  0  0  0  0  0  0  0  0  0
    1.8324   -5.4630    0.2641 O   0  0  0  0  0  0  0  0  0  0  0  0
    3.6395   -4.4110    1.4440 C   0  0  2  0  0  0  0  0  0  0  0  0
    4.9207   -5.1313    0.9592 C   0  0  2  0  0  0  0  0  0  0  0  0
    5.2929   -6.1595    1.8713 O   0  0  0  0  0  0  0  0  0  0  0  0
    4.0755   -6.6319    2.3411 C   0  0  1  0  0  0  0  0  0  0  0  0
    4.2104   -7.5779    3.3922 O   0  0  0  0  0  0  0  0  0  0  0  0
    3.2953   -5.3280    2.7181 C   0  0  2  0  0  0  0  0  0  0  0  0
    1.8205   -5.7290    3.0098 C   0  0  0  0  0  0  0  0  0  0  0  0
    3.8470   -4.8123    4.0787 C   0  0  0  0  0  0  0  0  0  0  0  0
    4.9833   -3.8066    3.9823 C   0  0  0  0  0  0  0  0  0  0  0  0
    4.4608   -2.6118    3.1975 C   0  0  1  0  0  0  0  0  0  0  0  0
    5.3727   -1.5388    3.2910 O   0  0  0  0  0  0  0  0  0  0  0  0
    4.0273   -2.8900    1.7159 C   0  0  2  0  0  0  0  0  0  0  0  0
    2.8008   -1.9439    1.5442 C   0  0  0  0  0  0  0  0  0  0  0  0
    5.2219   -2.6852    0.7296 C   0  0  1  0  0  0  0  0  0  0  0  0
    5.9230   -4.0274    0.8692 C   0  0  0  0  0  0  0  0  0  0  0  0
    7.1419   -4.1761    0.8795 O   0  0  0  0  0  0  0  0  0  0  0  0
    3.6335   -2.5820   -3.0344 C   0  0  1  0  0  0  0  0  0  0  0  0
    2.5724   -3.3098   -3.8641 C   0  0  0  0  0  0  0  0  0  0  0  0
    4.7735   -2.8818   -3.7835 O   0  0  0  0  0  0  0  0  0  0  0  0
    3.9849   -0.5696   -5.1353 H   0  0  0  0  0  0  0  0  0  0  0  0
    2.9893    0.6582   -4.3544 H   0  0  0  0  0  0  0  0  0  0  0  0
    2.2397   -0.7795   -4.9144 H   0  0  0  0  0  0  0  0  0  0  0  0
    2.4633   -0.8910   -2.5189 H   0  0  0  0  0  0  0  0  0  0  0  0
    5.4187   -0.4880   -2.8178 H   0  0  0  0  0  0  0  0  0  0  0  0
    4.2663    0.7074   -2.4583 H   0  0  0  0  0  0  0  0  0  0  0  0
    5.4763   -0.2541   -0.4130 H   0  0  0  0  0  0  0  0  0  0  0  0
    3.7578   -0.5052   -0.3321 H   0  0  0  0  0  0  0  0  0  0  0  0
    6.4468   -3.3033   -1.4528 H   0  0  0  0  0  0  0  0  0  0  0  0
    2.0870   -4.1988   -1.7249 H   0  0  0  0  0  0  0  0  0  0  0  0
    4.8189   -5.5836   -0.0347 H   0  0  0  0  0  0  0  0  0  0  0  0
    3.5660   -7.1572    1.5247 H   0  0  0  0  0  0  0  0  0  0  0  0
    4.5575   -8.3764    3.0088 H   0  0  0  0  0  0  0  0  0  0  0  0
    1.7372   -6.1907    3.9942 H   0  0  0  0  0  0  0  0  0  0  0  0
    1.4344   -6.4892    2.3378 H   0  0  0  0  0  0  0  0  0  0  0  0
    1.1613   -4.8665    2.9965 H   0  0  0  0  0  0  0  0  0  0  0  0
    3.0361   -4.3031    4.5985 H   0  0  0  0  0  0  0  0  0  0  0  0
    4.1174   -5.6214    4.7777 H   0  0  0  0  0  0  0  0  0  0  0  0
    5.2535   -3.4913    4.9915 H   0  0  0  0  0  0  0  0  0  0  0  0
    5.8727   -4.2674    3.5622 H   0  0  0  0  0  0  0  0  0  0  0  0
    3.5946   -2.2582    3.7605 H   0  0  0  0  0  0  0  0  0  0  0  0
    6.1868   -1.7934    2.8925 H   0  0  0  0  0  0  0  0  0  0  0  0
    3.0648   -0.9176    1.7977 H   0  0  0  0  0  0  0  0  0  0  0  0
    1.9767   -2.2388    2.2069 H   0  0  0  0  0  0  0  0  0  0  0  0
    2.3689   -1.9144    0.5438 H   0  0  0  0  0  0  0  0  0  0  0  0
    5.9080   -1.9161    1.0886 H   0  0  0  0  0  0  0  0  0  0  0  0
    1.5614   -3.1041   -3.5230 H   0  0  0  0  0  0  0  0  0  0  0  0
    2.7235   -4.3805   -3.9404 H   0  0  0  0  0  0  0  0  0  0  0  0
    2.6334   -3.0270   -4.9049 H   0  0  0  0  0  0  0  0  0  0  0  0
    4.9964   -3.7955   -3.6560 H   0  0  0  0  0  0  0  0  0  0  0  0
  1  2  1  0
  1 30  1  0
  1 31  1  0
  1 32  1  0
  2 27  1  0
  2  3  1  0
  2 33  1  1
  3  4  1  0
  3 34  1  0
  3 35  1  0
  4  5  1  0
  4 36  1  0
  4 37  1  0
  5 24  1  0
  5  6  1  6
  5  7  1  0
  6 38  1  0
  7  8  2  0
  7 27  1  0
  8  9  1  0
  8 39  1  0
  9 10  2  0
 11  9  1  6
 11 16  1  0
 11 22  1  0
 11 12  1  0
 12 25  1  0
 12 13  1  0
 12 40  1  6
 13 14  1  0
 14 15  1  0
 14 16  1  0
 14 41  1  6
 15 42  1  0
 16 17  1  1
 16 18  1  0
 17 43  1  0
 17 44  1  0
 17 45  1  0
 18 19  1  0
 18 46  1  0
 18 47  1  0
 19 20  1  0
 19 48  1  0
 19 49  1  0
 20 21  1  0
 20 22  1  0
 20 50  1  1
 21 51  1  0
 22 23  1  6
 22 24  1  0
 23 52  1  0
 23 53  1  0
 23 54  1  0
 24 25  1  0
 24 55  1  1
 25 26  2  0
 27 28  1  0
 27 29  1  6
 28 56  1  0
 28 57  1  0
 28 58  1  0
 29 59  1  0
M  END
>  <i_m_ct_stereo_status>  (371) 
1

>  <s_m_source_file>  (371) 
/var/tmp/pbs.5076255.sched01/tmp0i_w_vt9/132llf9lao3.sdf

>  <i_m_source_file_index>  (371) 
21

>  <i_lp_mmshare_version>  (371) 
48012

>  <i_f3d_flags>  (371) 
0

>  <s_epik_input>  (371) 
W0NIMl0xW0NIMl1bQ0BASF0oW0NIM10pW0NAQF0oW0NIM10pKFtPSF0pQyg9W0NIXUMyPU8pW0NAXTEoW09IXSlbQ0BIXShDMz1PKVtDQF00KFtDSDNdKVtDQEhdKFtPSF0pW0NIMl1bQ0gyXVtDQF01KFtDSDNdKVtDQEhdKFtPSF0pT1tDQEhdM1tDQF0yNDU=

>  <s_epik_cmdline>  (371) 
J2VwaWtfcHl0aG9uJywgJy1waHQnLCAnMi4wJywgJy1waCcsICc3LjAnLCAnLXRuJywgJzgnLCAnLW1hJywgJzIwMCcsICctaW1hZScsICc8aW5maWxlLm1hZT4nLCAnLW9tYWUnLCAnPG91dGZpbGUubWFlPic=

>  <r_lp_tautomer_probability>  (371) 
1

>  <r_epik_Ionization_Penalty>  (371) 
1.14126e-06

>  <r_epik_Ionization_Penalty_Charging>  (371) 
0

>  <r_epik_Ionization_Penalty_Neutral>  (371) 
1.14126e-06

>  <r_epik_State_Penalty>  (371) 
-0

>  <r_epik_Charging_Adjusted_Penalty>  (371) 
0

>  <i_epik_Tot_Q>  (371) 
0

>  <i_epik_Tot_abs_Q>  (371) 
0

>  <s_epik_Chemistry_Notes>  (371) 
This compound contains an acetal/aminal-like group ( X-CH(R)-Y where X, Y are N, S, or O) that may be acid/base labile, releasing an aldehyde.

>  <s_lp_Force_Field>  (371) 
OPLS3e

>  <r_lp_Energy>  (371) 
64.8895

>  <b_lp_Chiralities_Consistent>  (371) 
1

>  <s_lp_Variant>  (371) 
105:0-1

>  <s_i_glide_gridfile>  (371) 
pfpi4k_grid

>  <i_i_glide_lignum>  (371) 
21

>  <i_i_glide_rotatable_bonds>  (371) 
4

>  <r_i_docking_score>  (371) 
-4.18456

>  <r_i_glide_ligand_efficiency>  (371) 
-0.144295

>  <r_i_glide_ligand_efficiency_sa>  (371) 
-0.443321

>  <r_i_glide_ligand_efficiency_ln>  (371) 
-0.958159

>  <r_i_glide_gscore>  (371) 
-4.18456

>  <r_i_glide_lipo>  (371) 
-0.731139

>  <r_i_glide_hbond>  (371) 
-0.0845293

>  <r_i_glide_metal>  (371) 
-0

>  <r_i_glide_rewards>  (371) 
-0.748871

>  <r_i_glide_evdw>  (371) 
-25.4405

>  <r_i_glide_ecoul>  (371) 
-8.72081

>  <r_i_glide_erotb>  (371) 
0

>  <r_i_glide_esite>  (371) 
-0.0398793

>  <r_i_glide_emodel>  (371) 
-40.0629

>  <r_i_glide_energy>  (371) 
-34.1613

>  <r_i_glide_einternal>  (371) 
0.439227

>  <r_i_glide_intrahb_reward>  (371) 
-0

>  <i_i_glide_confnum>  (371) 
2

>  <i_i_glide_posenum>  (371) 
13

>  <r_i_glide_eff_state_penalty>  (371) 
0

>  <ligand_id>  (371) 
105

>  <original_smiles>  (371) 
CC1CCC2(O)C(=CC(=O)C34C5OC(O)C3(C)CCC(O)C4(C)C2C5=O)C1(C)O

>  <smiles>  (371) 
[H]OC1([H])OC2([H])C(=O)C3([H])C4(O[H])C(=C([H])C(=O)C25C1(C([H])([H])[H])C([H])([H])C([H])([H])C([H])(O[H])C35C([H])([H])[H])C(O[H])(C([H])([H])[H])C([H])(C([H])([H])[H])C([H])([H])C4([H])[H]

$$$$
105:0:2
     RDKit          3D

 59 63  0  0  1  0  0  0  0  0999 V2000
    3.0030   -0.4233   -4.3677 C   0  0  0  0  0  0  0  0  0  0  0  0
    3.3055   -1.0524   -2.9938 C   0  0  2  0  0  0  0  0  0  0  0  0
    4.4676   -0.3388   -2.3411 C   0  0  0  0  0  0  0  0  0  0  0  0
    4.7308   -0.7847   -0.8977 C   0  0  0  0  0  0  0  0  0  0  0  0
    4.9864   -2.2919   -0.7854 C   0  0  2  0  0  0  0  0  0  0  0  0
    6.1973   -2.4140   -1.5211 O   0  0  0  0  0  0  0  0  0  0  0  0
    3.8054   -3.0218   -1.4957 C   0  0  0  0  0  0  0  0  0  0  0  0
    2.9117   -3.8612   -0.9264 C   0  0  0  0  0  0  0  0  0  0  0  0
    2.8094   -4.5324    0.3874 C   0  0  0  0  0  0  0  0  0  0  0  0
    1.9125   -5.3597    0.5128 O   0  0  0  0  0  0  0  0  0  0  0  0
    3.8351   -4.3662    1.5402 C   0  0  2  0  0  0  0  0  0  0  0  0
    5.0701   -5.1020    0.9642 C   0  0  2  0  0  0  0  0  0  0  0  0
    5.4895   -6.1239    1.8589 O   0  0  0  0  0  0  0  0  0  0  0  0
    4.3015   -6.5713    2.4226 C   0  0  1  0  0  0  0  0  0  0  0  0
    4.5039   -7.5056    3.4718 O   0  0  0  0  0  0  0  0  0  0  0  0
    3.5752   -5.2582    2.8434 C   0  0  2  0  0  0  0  0  0  0  0  0
    2.1208   -5.6245    3.2493 C   0  0  0  0  0  0  0  0  0  0  0  0
    4.2224   -4.7289    4.1612 C   0  0  0  0  0  0  0  0  0  0  0  0
    5.3536   -3.7401    3.9548 C   0  0  0  0  0  0  0  0  0  0  0  0
    4.7844   -2.5407    3.1944 C   0  0  1  0  0  0  0  0  0  0  0  0
    5.6594   -1.4376    3.1823 O   0  0  0  0  0  0  0  0  0  0  0  0
    4.2500   -2.8467    1.7517 C   0  0  2  0  0  0  0  0  0  0  0  0
    3.0386   -1.8730    1.6508 C   0  0  0  0  0  0  0  0  0  0  0  0
    5.3926   -2.6643    0.6834 C   0  0  1  0  0  0  0  0  0  0  0  0
    6.0964   -4.0165    0.7842 C   0  0  0  0  0  0  0  0  0  0  0  0
    7.3006   -4.1928    0.7010 O   0  0  0  0  0  0  0  0  0  0  0  0
    3.5334   -2.5699   -2.9643 C   0  0  1  0  0  0  0  0  0  0  0  0
    2.3639   -3.2459   -3.6901 C   0  0  0  0  0  0  0  0  0  0  0  0
    4.6120   -2.8961   -3.8159 O   0  0  0  0  0  0  0  0  0  0  0  0
    3.7737   -0.6063   -5.1138 H   0  0  0  0  0  0  0  0  0  0  0  0
    2.8512    0.6551   -4.2905 H   0  0  0  0  0  0  0  0  0  0  0  0
    2.0576   -0.8019   -4.7375 H   0  0  0  0  0  0  0  0  0  0  0  0
    2.4295   -0.8569   -2.3759 H   0  0  0  0  0  0  0  0  0  0  0  0
    5.3666   -0.4973   -2.9218 H   0  0  0  0  0  0  0  0  0  0  0  0
    4.2221    0.7158   -2.3744 H   0  0  0  0  0  0  0  0  0  0  0  0
    5.6012   -0.2556   -0.5011 H   0  0  0  0  0  0  0  0  0  0  0  0
    3.8820   -0.4728   -0.2979 H   0  0  0  0  0  0  0  0  0  0  0  0
    6.4070   -3.3299   -1.6273 H   0  0  0  0  0  0  0  0  0  0  0  0
    2.1066   -4.2148   -1.5364 H   0  0  0  0  0  0  0  0  0  0  0  0
    4.8945   -5.5622   -0.0093 H   0  0  0  0  0  0  0  0  0  0  0  0
    3.7300   -7.0979    1.6538 H   0  0  0  0  0  0  0  0  0  0  0  0
    4.8263   -8.3062    3.0796 H   0  0  0  0  0  0  0  0  0  0  0  0
    2.1045   -6.0712    4.2426 H   0  0  0  0  0  0  0  0  0  0  0  0
    1.6732   -6.3869    2.6171 H   0  0  0  0  0  0  0  0  0  0  0  0
    1.4733   -4.7501    3.2702 H   0  0  0  0  0  0  0  0  0  0  0  0
    3.4542   -4.2012    4.7309 H   0  0  0  0  0  0  0  0  0  0  0  0
    4.5390   -5.5301    4.8306 H   0  0  0  0  0  0  0  0  0  0  0  0
    5.7255   -3.4314    4.9294 H   0  0  0  0  0  0  0  0  0  0  0  0
    6.1745   -4.2458    3.4540 H   0  0  0  0  0  0  0  0  0  0  0  0
    3.9632   -2.1813    3.8165 H   0  0  0  0  0  0  0  0  0  0  0  0
    5.9068   -1.2339    4.0697 H   0  0  0  0  0  0  0  0  0  0  0  0
    3.3408   -0.8455    1.8753 H   0  0  0  0  0  0  0  0  0  0  0  0
    2.2698   -2.1449    2.3790 H   0  0  0  0  0  0  0  0  0  0  0  0
    2.5394   -1.8487    0.6854 H   0  0  0  0  0  0  0  0  0  0  0  0
    6.1159   -1.9110    0.9858 H   0  0  0  0  0  0  0  0  0  0  0  0
    1.4081   -3.0350   -3.2160 H   0  0  0  0  0  0  0  0  0  0  0  0
    2.4908   -4.3045   -3.7871 H   0  0  0  0  0  0  0  0  0  0  0  0
    2.3043   -2.9390   -4.7223 H   0  0  0  0  0  0  0  0  0  0  0  0
    4.7960   -3.8145   -3.7261 H   0  0  0  0  0  0  0  0  0  0  0  0
  1  2  1  0
  1 30  1  0
  1 31  1  0
  1 32  1  0
  2 27  1  0
  2  3  1  0
  2 33  1  1
  3  4  1  0
  3 34  1  0
  3 35  1  0
  4  5  1  0
  4 36  1  0
  4 37  1  0
  5 24  1  0
  5  6  1  6
  5  7  1  0
  6 38  1  0
  7  8  2  0
  7 27  1  0
  8  9  1  0
  8 39  1  0
  9 10  2  0
 11  9  1  6
 11 16  1  0
 11 22  1  0
 11 12  1  0
 12 25  1  0
 12 13  1  0
 12 40  1  6
 13 14  1  0
 14 15  1  0
 14 16  1  0
 14 41  1  6
 15 42  1  0
 16 17  1  1
 16 18  1  0
 17 43  1  0
 17 44  1  0
 17 45  1  0
 18 19  1  0
 18 46  1  0
 18 47  1  0
 19 20  1  0
 19 48  1  0
 19 49  1  0
 20 21  1  0
 20 22  1  0
 20 50  1  1
 21 51  1  0
 22 23  1  6
 22 24  1  0
 23 52  1  0
 23 53  1  0
 23 54  1  0
 24 25  1  0
 24 55  1  1
 25 26  2  0
 27 28  1  0
 27 29  1  6
 28 56  1  0
 28 57  1  0
 28 58  1  0
 29 59  1  0
M  END
>  <i_m_ct_stereo_status>  (372) 
1

>  <s_m_source_file>  (372) 
/var/tmp/pbs.5076255.sched01/tmp0i_w_vt9/132llf9lao3.sdf

>  <i_m_source_file_index>  (372) 
21

>  <i_lp_mmshare_version>  (372) 
48012

>  <i_f3d_flags>  (372) 
0

>  <s_epik_input>  (372) 
W0NIMl0xW0NIMl1bQ0BASF0oW0NIM10pW0NAQF0oW0NIM10pKFtPSF0pQyg9W0NIXUMyPU8pW0NAXTEoW09IXSlbQ0BIXShDMz1PKVtDQF00KFtDSDNdKVtDQEhdKFtPSF0pW0NIMl1bQ0gyXVtDQF01KFtDSDNdKVtDQEhdKFtPSF0pT1tDQEhdM1tDQF0yNDU=

>  <s_epik_cmdline>  (372) 
J2VwaWtfcHl0aG9uJywgJy1waHQnLCAnMi4wJywgJy1waCcsICc3LjAnLCAnLXRuJywgJzgnLCAnLW1hJywgJzIwMCcsICctaW1hZScsICc8aW5maWxlLm1hZT4nLCAnLW9tYWUnLCAnPG91dGZpbGUubWFlPic=

>  <r_lp_tautomer_probability>  (372) 
1

>  <r_epik_Ionization_Penalty>  (372) 
1.14126e-06

>  <r_epik_Ionization_Penalty_Charging>  (372) 
0

>  <r_epik_Ionization_Penalty_Neutral>  (372) 
1.14126e-06

>  <r_epik_State_Penalty>  (372) 
-0

>  <r_epik_Charging_Adjusted_Penalty>  (372) 
0

>  <i_epik_Tot_Q>  (372) 
0

>  <i_epik_Tot_abs_Q>  (372) 
0

>  <s_epik_Chemistry_Notes>  (372) 
This compound contains an acetal/aminal-like group ( X-CH(R)-Y where X, Y are N, S, or O) that may be acid/base labile, releasing an aldehyde.

>  <s_lp_Force_Field>  (372) 
OPLS3e

>  <r_lp_Energy>  (372) 
64.8895

>  <b_lp_Chiralities_Consistent>  (372) 
1

>  <s_lp_Variant>  (372) 
105:0-1

>  <s_i_glide_gridfile>  (372) 
pfpi4k_grid

>  <i_i_glide_lignum>  (372) 
21

>  <i_i_glide_rotatable_bonds>  (372) 
4

>  <r_i_docking_score>  (372) 
-4.06731

>  <r_i_glide_ligand_efficiency>  (372) 
-0.140252

>  <r_i_glide_ligand_efficiency_sa>  (372) 
-0.430899

>  <r_i_glide_ligand_efficiency_ln>  (372) 
-0.93131

>  <r_i_glide_gscore>  (372) 
-4.06731

>  <r_i_glide_lipo>  (372) 
-0.755474

>  <r_i_glide_hbond>  (372) 
-0.0782485

>  <r_i_glide_metal>  (372) 
-0

>  <r_i_glide_rewards>  (372) 
-0.756909

>  <r_i_glide_evdw>  (372) 
-24.1332

>  <r_i_glide_ecoul>  (372) 
-8.27442

>  <r_i_glide_erotb>  (372) 
0

>  <r_i_glide_esite>  (372) 
-0.0288525

>  <r_i_glide_emodel>  (372) 
-38.1396

>  <r_i_glide_energy>  (372) 
-32.4076

>  <r_i_glide_einternal>  (372) 
0.804253

>  <r_i_glide_intrahb_reward>  (372) 
-0

>  <i_i_glide_confnum>  (372) 
2

>  <i_i_glide_posenum>  (372) 
27

>  <r_i_glide_eff_state_penalty>  (372) 
0

>  <ligand_id>  (372) 
105

>  <original_smiles>  (372) 
CC1CCC2(O)C(=CC(=O)C34C5OC(O)C3(C)CCC(O)C4(C)C2C5=O)C1(C)O

>  <smiles>  (372) 
[H]OC1([H])OC2([H])C(=O)C3([H])C4(O[H])C(=C([H])C(=O)C25C1(C([H])([H])[H])C([H])([H])C([H])([H])C([H])(O[H])C35C([H])([H])[H])C(O[H])(C([H])([H])[H])C([H])(C([H])([H])[H])C([H])([H])C4([H])[H]

$$$$
106:0:0
     RDKit          3D

 76 81  0  0  1  0  0  0  0  0999 V2000
   -3.7568    3.3188    9.4550 C   0  0  0  0  0  0  0  0  0  0  0  0
   -2.6442    3.3176    8.5739 O   0  0  0  0  0  0  0  0  0  0  0  0
   -1.4945    2.6292    9.0699 C   0  0  2  0  0  0  0  0  0  0  0  0
   -0.8885    3.3062   10.3242 C   0  0  0  0  0  0  0  0  0  0  0  0
    0.6037    3.5450   10.0797 C   0  0  1  0  0  0  0  0  0  0  0  0
    1.3812    3.3597   11.2542 O   0  0  0  0  0  0  0  0  0  0  0  0
    1.0178    2.7254    8.8024 C   0  0  2  0  0  0  0  0  0  0  0  0
    1.2906    1.4969    9.4720 O   0  0  0  0  0  0  0  0  0  0  0  0
    2.3544    3.4453    8.0599 C   0  0  1  0  0  0  0  0  0  0  0  0
    3.2891    2.2027    7.7240 C   0  0  0  0  0  0  0  0  0  0  0  0
    2.7950    0.7243    7.2561 C   0  0  0  0  0  0  0  0  0  0  0  0
    1.6130    0.2696    6.2525 C   0  0  2  0  0  0  0  0  0  0  0  0
    1.7389    0.8677    4.8512 C   0  0  0  0  0  0  0  0  0  0  0  0
    1.7487    2.4066    4.9094 C   0  0  2  0  0  0  0  0  0  0  0  0
    3.2768    2.6682    4.6285 C   0  0  0  0  0  0  0  0  0  0  0  0
    1.0768    2.6332    6.2864 O   0  0  0  0  0  0  0  0  0  0  0  0
   -0.0795    3.4923    7.1270 C   0  0  2  0  0  0  0  0  0  0  0  0
   -0.1791    5.0373    7.5220 C   0  0  0  0  0  0  0  0  0  0  0  0
    0.0095    5.8291    6.2487 C   0  0  1  0  0  0  0  0  0  0  0  0
    0.4169    7.3062    6.4611 C   0  0  0  0  0  0  0  0  0  0  0  0
    1.0149    4.9435    5.5150 C   0  0  1  0  0  0  0  0  0  0  0  0
    2.2840    4.6457    6.7596 C   0  0  0  0  0  0  0  0  0  0  0  0
    0.0032    3.7775    4.5625 C   0  0  1  0  0  0  0  0  0  0  0  0
   -0.8233    4.5265    3.6738 O   0  0  0  0  0  0  0  0  0  0  0  0
    0.9992    3.0554    3.7355 C   0  0  1  0  0  0  0  0  0  0  0  0
    1.7279    3.9490    2.8854 O   0  0  0  0  0  0  0  0  0  0  0  0
   -1.0534    2.4381    5.0975 C   0  0  1  0  0  0  0  0  0  0  0  0
   -1.6452    1.5844    3.9475 C   0  0  0  0  0  0  0  0  0  0  0  0
   -0.8401    1.5223    6.6230 C   0  0  1  0  0  0  0  0  0  0  0  0
   -2.1684    1.0692    6.8791 O   0  0  0  0  0  0  0  0  0  0  0  0
    0.0601    0.1743    6.6384 C   0  0  1  0  0  0  0  0  0  0  0  0
   -0.5916   -0.9954    5.8353 C   0  0  0  0  0  0  0  0  0  0  0  0
    0.0373   -0.3630    7.9497 O   0  0  0  0  0  0  0  0  0  0  0  0
   -0.3786    2.4378    7.9869 C   0  0  2  0  0  0  0  0  0  0  0  0
   -4.5869    3.8560    8.9937 H   0  0  0  0  0  0  0  0  0  0  0  0
   -3.5334    3.8004   10.4052 H   0  0  0  0  0  0  0  0  0  0  0  0
   -4.0844    2.3080    9.6836 H   0  0  0  0  0  0  0  0  0  0  0  0
   -1.7966    1.6304    9.3798 H   0  0  0  0  0  0  0  0  0  0  0  0
   -1.3664    4.2621   10.5431 H   0  0  0  0  0  0  0  0  0  0  0  0
   -1.0577    2.6699   11.1967 H   0  0  0  0  0  0  0  0  0  0  0  0
    0.7358    4.6088    9.9631 H   0  0  0  0  0  0  0  0  0  0  0  0
    1.1784    2.5220   11.6370 H   0  0  0  0  0  0  0  0  0  0  0  0
    0.6345    1.3760   10.1434 H   0  0  0  0  0  0  0  0  0  0  0  0
    2.8941    3.9637    8.8527 H   0  0  0  0  0  0  0  0  0  0  0  0
    4.1281    2.5655    7.1418 H   0  0  0  0  0  0  0  0  0  0  0  0
    3.7994    1.9917    8.6638 H   0  0  0  0  0  0  0  0  0  0  0  0
    3.6931    0.3100    6.7951 H   0  0  0  0  0  0  0  0  0  0  0  0
    2.7180    0.0914    8.1394 H   0  0  0  0  0  0  0  0  0  0  0  0
    1.8822   -0.7784    6.1105 H   0  0  0  0  0  0  0  0  0  0  0  0
    2.6226    0.4461    4.3682 H   0  0  0  0  0  0  0  0  0  0  0  0
    0.9443    0.4988    4.2226 H   0  0  0  0  0  0  0  0  0  0  0  0
    3.5043    2.3332    3.6154 H   0  0  0  0  0  0  0  0  0  0  0  0
    3.9734    2.0762    5.2111 H   0  0  0  0  0  0  0  0  0  0  0  0
    3.5943    3.7041    4.6058 H   0  0  0  0  0  0  0  0  0  0  0  0
   -1.0890    3.7223    6.8265 H   0  0  0  0  0  0  0  0  0  0  0  0
   -1.1397    5.3040    7.9742 H   0  0  0  0  0  0  0  0  0  0  0  0
    0.5337    5.4292    8.2290 H   0  0  0  0  0  0  0  0  0  0  0  0
   -0.9358    5.8495    5.7118 H   0  0  0  0  0  0  0  0  0  0  0  0
    1.3293    7.4287    7.0432 H   0  0  0  0  0  0  0  0  0  0  0  0
   -0.3662    7.8515    6.9890 H   0  0  0  0  0  0  0  0  0  0  0  0
    0.5747    7.8108    5.5070 H   0  0  0  0  0  0  0  0  0  0  0  0
    1.4951    5.5901    4.7793 H   0  0  0  0  0  0  0  0  0  0  0  0
    2.4072    5.5858    7.2881 H   0  0  0  0  0  0  0  0  0  0  0  0
    3.2604    4.6511    6.3019 H   0  0  0  0  0  0  0  0  0  0  0  0
   -0.4248    4.5314    2.8105 H   0  0  0  0  0  0  0  0  0  0  0  0
    0.5859    2.3193    3.0545 H   0  0  0  0  0  0  0  0  0  0  0  0
    1.2136    4.1427    2.1039 H   0  0  0  0  0  0  0  0  0  0  0  0
   -1.9868    2.9811    5.2742 H   0  0  0  0  0  0  0  0  0  0  0  0
   -0.9504    0.9111    3.4600 H   0  0  0  0  0  0  0  0  0  0  0  0
   -2.0520    2.2249    3.1656 H   0  0  0  0  0  0  0  0  0  0  0  0
   -2.4670    0.9728    4.3133 H   0  0  0  0  0  0  0  0  0  0  0  0
   -2.7098    1.8428    6.9489 H   0  0  0  0  0  0  0  0  0  0  0  0
   -0.6696   -0.8022    4.7709 H   0  0  0  0  0  0  0  0  0  0  0  0
   -1.5957   -1.2369    6.1761 H   0  0  0  0  0  0  0  0  0  0  0  0
   -0.0140   -1.9139    5.9387 H   0  0  0  0  0  0  0  0  0  0  0  0
    0.6069    0.1888    8.4817 H   0  0  0  0  0  0  0  0  0  0  0  0
  1  2  1  0
  1 35  1  0
  1 36  1  0
  1 37  1  0
  2  3  1  0
  3 34  1  0
  3  4  1  0
  3 38  1  1
  4  5  1  0
  4 39  1  0
  4 40  1  0
  5  6  1  0
  5  7  1  0
  5 41  1  6
  6 42  1  0
 34  7  1  1
  7  8  1  1
  7  9  1  0
  8 43  1  0
  9 22  1  0
  9 10  1  0
  9 44  1  1
 10 11  1  0
 10 45  1  0
 10 46  1  0
 11 12  1  0
 11 47  1  0
 11 48  1  0
 12 31  1  0
 12 13  1  0
 12 49  1  6
 13 14  1  0
 13 50  1  0
 13 51  1  0
 14 25  1  0
 14 15  1  1
 14 16  1  0
 15 52  1  0
 15 53  1  0
 15 54  1  0
 16 17  1  0
 17 34  1  0
 17 18  1  0
 17 55  1  6
 18 19  1  0
 18 56  1  0
 18 57  1  0
 19 20  1  0
 19 21  1  0
 19 58  1  6
 20 59  1  0
 20 60  1  0
 20 61  1  0
 21 22  1  0
 21 23  1  0
 21 62  1  6
 22 63  1  0
 22 64  1  0
 23 24  1  6
 23 25  1  0
 23 27  1  0
 24 65  1  0
 25 26  1  0
 25 66  1  6
 26 67  1  0
 27 28  1  0
 27 29  1  0
 27 68  1  1
 28 69  1  0
 28 70  1  0
 28 71  1  0
 29 30  1  1
 29 31  1  0
 29 34  1  0
 30 72  1  0
 31 32  1  0
 31 33  1  1
 32 73  1  0
 32 74  1  0
 32 75  1  0
 33 76  1  0
M  END
>  <i_m_ct_stereo_status>  (373) 
1

>  <s_m_source_file>  (373) 
/var/tmp/pbs.5076255.sched01/tmp0i_w_vt9/132llf9lao3.sdf

>  <i_m_source_file_index>  (373) 
22

>  <i_lp_mmshare_version>  (373) 
48012

>  <i_f3d_flags>  (373) 
0

>  <s_epik_input>  (373) 
W0NIM11PW0NAQEhdMVtDSDJdW0NAQEhdKFtPSF0pW0NAXShbQ0BAXTEyMykoW09IXSlbQ0BIXTRbQ0gyXVtDSDJdW0NAQEhdNVtDSDJdW0NAXTYoW0NIM10pT1tDQEBIXTJbQ0gyXVtDQEBIXShbQ0gzXSlbQ0BASF0oW0NIMl00KVtDQEBdKFtPSF0pKFtDQEhdNltPSF0pW0NAQEhdKFtDSDNdKVtDQEBdMyhbT0hdKVtDQF01KFtDSDNdKVtPSF0=

>  <s_epik_cmdline>  (373) 
J2VwaWtfcHl0aG9uJywgJy1waHQnLCAnMi4wJywgJy1waCcsICc3LjAnLCAnLXRuJywgJzgnLCAnLW1hJywgJzIwMCcsICctaW1hZScsICc8aW5maWxlLm1hZT4nLCAnLW9tYWUnLCAnPG91dGZpbGUubWFlPic=

>  <r_lp_tautomer_probability>  (373) 
1

>  <r_epik_Ionization_Penalty>  (373) 
1.01547e-06

>  <r_epik_Ionization_Penalty_Charging>  (373) 
0

>  <r_epik_Ionization_Penalty_Neutral>  (373) 
1.01547e-06

>  <r_epik_State_Penalty>  (373) 
-0

>  <r_epik_Charging_Adjusted_Penalty>  (373) 
0

>  <i_epik_Tot_Q>  (373) 
0

>  <i_epik_Tot_abs_Q>  (373) 
0

>  <s_lp_Force_Field>  (373) 
OPLS3e

>  <r_lp_Energy>  (373) 
563.964

>  <b_lp_Chiralities_Consistent>  (373) 
1

>  <s_lp_Variant>  (373) 
106:0-1

>  <s_i_glide_gridfile>  (373) 
pfpi4k_grid

>  <i_i_glide_lignum>  (373) 
22

>  <i_i_glide_rotatable_bonds>  (373) 
7

>  <r_i_docking_score>  (373) 
-3.57866

>  <r_i_glide_ligand_efficiency>  (373) 
-0.105255

>  <r_i_glide_ligand_efficiency_sa>  (373) 
-0.340985

>  <r_i_glide_ligand_efficiency_ln>  (373) 
-0.790627

>  <r_i_glide_gscore>  (373) 
-3.57866

>  <r_i_glide_lipo>  (373) 
-0.0874763

>  <r_i_glide_hbond>  (373) 
0

>  <r_i_glide_metal>  (373) 
-0

>  <r_i_glide_rewards>  (373) 
-0.618589

>  <r_i_glide_evdw>  (373) 
-17.769

>  <r_i_glide_ecoul>  (373) 
-13.2277

>  <r_i_glide_erotb>  (373) 
0

>  <r_i_glide_esite>  (373) 
0

>  <r_i_glide_emodel>  (373) 
-43.8813

>  <r_i_glide_energy>  (373) 
-30.9966

>  <r_i_glide_einternal>  (373) 
1.90659

>  <r_i_glide_intrahb_reward>  (373) 
-0.5

>  <i_i_glide_confnum>  (373) 
1

>  <i_i_glide_posenum>  (373) 
1

>  <r_i_glide_eff_state_penalty>  (373) 
0

>  <ligand_id>  (373) 
106

>  <original_smiles>  (373) 
COC1CC(O)C2(O)C3CCC4CC5(C)OC6CC(C)C(C3)C(O)(C5O)C(C)C(O)(C4(C)O)C162

>  <smiles>  (373) 
[H]OC1([H])C2(C([H])([H])[H])OC3([H])C([H])([H])C([H])(C([H])([H])[H])C4([H])C([H])([H])C5([H])C([H])([H])C([H])([H])C([H])(C2([H])[H])C(O[H])(C([H])([H])[H])C(O[H])(C([H])(C([H])([H])[H])C14O[H])C31C([H])(OC([H])([H])[H])C([H])([H])C([H])(O[H])C51O[H]

$$$$
106:0:1
     RDKit          3D

 76 81  0  0  1  0  0  0  0  0999 V2000
   -3.0805    2.7379    2.5095 C   0  0  0  0  0  0  0  0  0  0  0  0
   -2.1194    2.3300    3.4639 O   0  0  0  0  0  0  0  0  0  0  0  0
   -0.7716    2.5098    3.0367 C   0  0  2  0  0  0  0  0  0  0  0  0
   -0.3457    1.4847    1.9635 C   0  0  0  0  0  0  0  0  0  0  0  0
    0.9534    0.8051    2.4133 C   0  0  1  0  0  0  0  0  0  0  0  0
    1.8270    0.5978    1.2958 O   0  0  0  0  0  0  0  0  0  0  0  0
    1.5131    1.6376    3.6291 C   0  0  2  0  0  0  0  0  0  0  0  0
    2.2075    2.6192    2.8745 O   0  0  0  0  0  0  0  0  0  0  0  0
    2.4643    0.6478    4.6244 C   0  0  1  0  0  0  0  0  0  0  0  0
    3.7338    1.5510    4.9324 C   0  0  0  0  0  0  0  0  0  0  0  0
    3.7385    3.1642    5.1584 C   0  0  0  0  0  0  0  0  0  0  0  0
    2.7078    4.1359    5.9363 C   0  0  2  0  0  0  0  0  0  0  0  0
    2.5079    3.7469    7.4021 C   0  0  0  0  0  0  0  0  0  0  0  0
    1.9935    2.3026    7.5170 C   0  0  2  0  0  0  0  0  0  0  0  0
    3.3084    1.6008    8.0332 C   0  0  0  0  0  0  0  0  0  0  0  0
    1.4069    2.1004    6.0966 O   0  0  0  0  0  0  0  0  0  0  0  0
    0.0980    1.5452    5.2163 C   0  0  2  0  0  0  0  0  0  0  0  0
   -0.4914    0.0783    4.9948 C   0  0  0  0  0  0  0  0  0  0  0  0
   -0.6939   -0.5234    6.3606 C   0  0  1  0  0  0  0  0  0  0  0  0
   -0.7959   -2.0675    6.3750 C   0  0  0  0  0  0  0  0  0  0  0  0
    0.4897    0.0770    7.1201 C   0  0  1  0  0  0  0  0  0  0  0  0
    1.8864   -0.2424    6.0310 C   0  0  0  0  0  0  0  0  0  0  0  0
   -0.1398    1.6425    7.7844 C   0  0  1  0  0  0  0  0  0  0  0  0
   -1.2457    1.3463    8.6040 O   0  0  0  0  0  0  0  0  0  0  0  0
    0.9694    2.1241    8.6354 C   0  0  1  0  0  0  0  0  0  0  0  0
    1.2445    1.1688    9.6498 O   0  0  0  0  0  0  0  0  0  0  0  0
   -0.6326    3.1573    6.9769 C   0  0  1  0  0  0  0  0  0  0  0  0
   -0.9813    4.3198    7.9334 C   0  0  0  0  0  0  0  0  0  0  0  0
    0.0046    3.7047    5.3976 C   0  0  1  0  0  0  0  0  0  0  0  0
   -1.0340    4.5121    4.9106 O   0  0  0  0  0  0  0  0  0  0  0  0
    1.3080    4.6631    5.3497 C   0  0  1  0  0  0  0  0  0  0  0  0
    1.0410    6.0889    5.9184 C   0  0  0  0  0  0  0  0  0  0  0  0
    1.5341    4.9873    3.9954 O   0  0  0  0  0  0  0  0  0  0  0  0
    0.2453    2.4896    4.2258 C   0  0  2  0  0  0  0  0  0  0  0  0
   -4.0779    2.5839    2.9153 H   0  0  0  0  0  0  0  0  0  0  0  0
   -3.0001    2.1413    1.6074 H   0  0  0  0  0  0  0  0  0  0  0  0
   -2.9745    3.7888    2.2457 H   0  0  0  0  0  0  0  0  0  0  0  0
   -0.6957    3.4956    2.5809 H   0  0  0  0  0  0  0  0  0  0  0  0
   -1.1254    0.7448    1.7692 H   0  0  0  0  0  0  0  0  0  0  0  0
   -0.1714    2.0040    1.0185 H   0  0  0  0  0  0  0  0  0  0  0  0
    0.7130   -0.2242    2.6500 H   0  0  0  0  0  0  0  0  0  0  0  0
    1.3870    0.0580    0.6528 H   0  0  0  0  0  0  0  0  0  0  0  0
    1.6954    2.8011    2.0813 H   0  0  0  0  0  0  0  0  0  0  0  0
    2.8662   -0.1394    3.9680 H   0  0  0  0  0  0  0  0  0  0  0  0
    4.3448    1.0276    5.6600 H   0  0  0  0  0  0  0  0  0  0  0  0
    4.3613    1.4409    4.0479 H   0  0  0  0  0  0  0  0  0  0  0  0
    4.6844    3.3267    5.6812 H   0  0  0  0  0  0  0  0  0  0  0  0
    3.9441    3.6420    4.2025 H   0  0  0  0  0  0  0  0  0  0  0  0
    3.3080    5.0444    5.9871 H   0  0  0  0  0  0  0  0  0  0  0  0
    3.4379    3.9249    7.9501 H   0  0  0  0  0  0  0  0  0  0  0  0
    1.8355    4.4467    7.8722 H   0  0  0  0  0  0  0  0  0  0  0  0
    3.5547    1.9946    9.0249 H   0  0  0  0  0  0  0  0  0  0  0  0
    4.2122    1.8305    7.4817 H   0  0  0  0  0  0  0  0  0  0  0  0
    3.2457    0.5345    8.2188 H   0  0  0  0  0  0  0  0  0  0  0  0
   -0.9473    1.7086    5.4108 H   0  0  0  0  0  0  0  0  0  0  0  0
   -1.4427    0.0758    4.4515 H   0  0  0  0  0  0  0  0  0  0  0  0
    0.1075   -0.6300    4.4445 H   0  0  0  0  0  0  0  0  0  0  0  0
   -1.6351   -0.1279    6.7367 H   0  0  0  0  0  0  0  0  0  0  0  0
    0.0628   -2.5642    5.9266 H   0  0  0  0  0  0  0  0  0  0  0  0
   -1.6742   -2.3957    5.8197 H   0  0  0  0  0  0  0  0  0  0  0  0
   -0.8840   -2.4615    7.3871 H   0  0  0  0  0  0  0  0  0  0  0  0
    0.6482   -0.5604    7.9850 H   0  0  0  0  0  0  0  0  0  0  0  0
    1.7198   -1.2450    5.6396 H   0  0  0  0  0  0  0  0  0  0  0  0
    2.7556   -0.4965    6.6169 H   0  0  0  0  0  0  0  0  0  0  0  0
   -1.3280    2.0543    9.2352 H   0  0  0  0  0  0  0  0  0  0  0  0
    0.7782    3.0433    9.1787 H   0  0  0  0  0  0  0  0  0  0  0  0
    1.9401    1.5118   10.2058 H   0  0  0  0  0  0  0  0  0  0  0  0
   -1.6730    2.9365    6.7293 H   0  0  0  0  0  0  0  0  0  0  0  0
   -0.1381    4.7916    8.4284 H   0  0  0  0  0  0  0  0  0  0  0  0
   -1.6545    3.9777    8.7208 H   0  0  0  0  0  0  0  0  0  0  0  0
   -1.4977    5.1131    7.3959 H   0  0  0  0  0  0  0  0  0  0  0  0
   -0.7836    4.6877    3.9991 H   0  0  0  0  0  0  0  0  0  0  0  0
    0.8087    6.1073    6.9797 H   0  0  0  0  0  0  0  0  0  0  0  0
    0.2223    6.5882    5.4023 H   0  0  0  0  0  0  0  0  0  0  0  0
    1.9126    6.7314    5.7789 H   0  0  0  0  0  0  0  0  0  0  0  0
    1.8065    4.1793    3.5440 H   0  0  0  0  0  0  0  0  0  0  0  0
  1  2  1  0
  1 35  1  0
  1 36  1  0
  1 37  1  0
  2  3  1  0
  3 34  1  0
  3  4  1  0
  3 38  1  6
  4  5  1  0
  4 39  1  0
  4 40  1  0
  5  6  1  0
  5  7  1  0
  5 41  1  1
  6 42  1  0
 34  7  1  6
  7  8  1  6
  7  9  1  0
  8 43  1  0
  9 22  1  0
  9 10  1  0
  9 44  1  6
 10 11  1  0
 10 45  1  0
 10 46  1  0
 11 12  1  0
 11 47  1  0
 11 48  1  0
 12 31  1  0
 12 13  1  0
 12 49  1  1
 13 14  1  0
 13 50  1  0
 13 51  1  0
 14 25  1  0
 14 15  1  1
 14 16  1  0
 15 52  1  0
 15 53  1  0
 15 54  1  0
 16 17  1  0
 17 34  1  0
 17 18  1  0
 17 55  1  1
 18 19  1  0
 18 56  1  0
 18 57  1  0
 19 20  1  0
 19 21  1  0
 19 58  1  1
 20 59  1  0
 20 60  1  0
 20 61  1  0
 21 22  1  0
 21 23  1  0
 21 62  1  1
 22 63  1  0
 22 64  1  0
 23 24  1  1
 23 25  1  0
 23 27  1  0
 24 65  1  0
 25 26  1  0
 25 66  1  1
 26 67  1  0
 27 28  1  0
 27 29  1  0
 27 68  1  6
 28 69  1  0
 28 70  1  0
 28 71  1  0
 29 30  1  6
 29 31  1  0
 29 34  1  0
 30 72  1  0
 31 32  1  0
 31 33  1  6
 32 73  1  0
 32 74  1  0
 32 75  1  0
 33 76  1  0
M  END
>  <i_m_ct_stereo_status>  (374) 
1

>  <s_m_source_file>  (374) 
/var/tmp/pbs.5076255.sched01/tmp0i_w_vt9/132llf9lao3.sdf

>  <i_m_source_file_index>  (374) 
22

>  <i_lp_mmshare_version>  (374) 
48012

>  <i_f3d_flags>  (374) 
0

>  <s_epik_input>  (374) 
W0NIM11PW0NAQEhdMVtDSDJdW0NAQEhdKFtPSF0pW0NAXShbQ0BAXTEyMykoW09IXSlbQ0BIXTRbQ0gyXVtDSDJdW0NAQEhdNVtDSDJdW0NAXTYoW0NIM10pT1tDQEBIXTJbQ0gyXVtDQEBIXShbQ0gzXSlbQ0BASF0oW0NIMl00KVtDQEBdKFtPSF0pKFtDQEhdNltPSF0pW0NAQEhdKFtDSDNdKVtDQEBdMyhbT0hdKVtDQF01KFtDSDNdKVtPSF0=

>  <s_epik_cmdline>  (374) 
J2VwaWtfcHl0aG9uJywgJy1waHQnLCAnMi4wJywgJy1waCcsICc3LjAnLCAnLXRuJywgJzgnLCAnLW1hJywgJzIwMCcsICctaW1hZScsICc8aW5maWxlLm1hZT4nLCAnLW9tYWUnLCAnPG91dGZpbGUubWFlPic=

>  <r_lp_tautomer_probability>  (374) 
1

>  <r_epik_Ionization_Penalty>  (374) 
1.01547e-06

>  <r_epik_Ionization_Penalty_Charging>  (374) 
0

>  <r_epik_Ionization_Penalty_Neutral>  (374) 
1.01547e-06

>  <r_epik_State_Penalty>  (374) 
-0

>  <r_epik_Charging_Adjusted_Penalty>  (374) 
0

>  <i_epik_Tot_Q>  (374) 
0

>  <i_epik_Tot_abs_Q>  (374) 
0

>  <s_lp_Force_Field>  (374) 
OPLS3e

>  <r_lp_Energy>  (374) 
563.964

>  <b_lp_Chiralities_Consistent>  (374) 
1

>  <s_lp_Variant>  (374) 
106:0-1

>  <s_i_glide_gridfile>  (374) 
pfpi4k_grid

>  <i_i_glide_lignum>  (374) 
22

>  <i_i_glide_rotatable_bonds>  (374) 
7

>  <r_i_docking_score>  (374) 
-2.6089

>  <r_i_glide_ligand_efficiency>  (374) 
-0.0767322

>  <r_i_glide_ligand_efficiency_sa>  (374) 
-0.248583

>  <r_i_glide_ligand_efficiency_ln>  (374) 
-0.576378

>  <r_i_glide_gscore>  (374) 
-2.6089

>  <r_i_glide_lipo>  (374) 
-0.0339331

>  <r_i_glide_hbond>  (374) 
0

>  <r_i_glide_metal>  (374) 
-0

>  <r_i_glide_rewards>  (374) 
-0.618589

>  <r_i_glide_evdw>  (374) 
-19.7937

>  <r_i_glide_ecoul>  (374) 
-6.4446

>  <r_i_glide_erotb>  (374) 
0

>  <r_i_glide_esite>  (374) 
0

>  <r_i_glide_emodel>  (374) 
-37.1638

>  <r_i_glide_energy>  (374) 
-26.2383

>  <r_i_glide_einternal>  (374) 
1.0944

>  <r_i_glide_intrahb_reward>  (374) 
-0.5

>  <i_i_glide_confnum>  (374) 
1

>  <i_i_glide_posenum>  (374) 
10

>  <r_i_glide_eff_state_penalty>  (374) 
0

>  <ligand_id>  (374) 
106

>  <original_smiles>  (374) 
COC1CC(O)C2(O)C3CCC4CC5(C)OC6CC(C)C(C3)C(O)(C5O)C(C)C(O)(C4(C)O)C162

>  <smiles>  (374) 
[H]OC1([H])C2(C([H])([H])[H])OC3([H])C([H])([H])C([H])(C([H])([H])[H])C4([H])C([H])([H])C5([H])C([H])([H])C([H])([H])C([H])(C2([H])[H])C(O[H])(C([H])([H])[H])C(O[H])(C([H])(C([H])([H])[H])C14O[H])C31C([H])(OC([H])([H])[H])C([H])([H])C([H])(O[H])C51O[H]

$$$$
106:0:2
     RDKit          3D

 76 81  0  0  1  0  0  0  0  0999 V2000
   -3.0430    2.8760    2.7410 C   0  0  0  0  0  0  0  0  0  0  0  0
   -2.0628    2.2106    3.5117 O   0  0  0  0  0  0  0  0  0  0  0  0
   -0.7397    2.4234    3.0508 C   0  0  2  0  0  0  0  0  0  0  0  0
   -0.3167    1.3794    1.9987 C   0  0  0  0  0  0  0  0  0  0  0  0
    1.0026    0.7434    2.4326 C   0  0  1  0  0  0  0  0  0  0  0  0
    1.8514    0.5854    1.3060 O   0  0  0  0  0  0  0  0  0  0  0  0
    1.5720    1.6281    3.6093 C   0  0  2  0  0  0  0  0  0  0  0  0
    2.2278    2.6085    2.8216 O   0  0  0  0  0  0  0  0  0  0  0  0
    2.5907    0.6931    4.6050 C   0  0  1  0  0  0  0  0  0  0  0  0
    3.8364    1.6425    4.8630 C   0  0  0  0  0  0  0  0  0  0  0  0
    3.7965    3.2527    5.0440 C   0  0  0  0  0  0  0  0  0  0  0  0
    2.7561    4.2058    5.8230 C   0  0  2  0  0  0  0  0  0  0  0  0
    2.6134    3.8616    7.2998 C   0  0  0  0  0  0  0  0  0  0  0  0
    2.1532    2.4084    7.4642 C   0  0  2  0  0  0  0  0  0  0  0  0
    3.4905    1.7562    7.9701 C   0  0  0  0  0  0  0  0  0  0  0  0
    1.5356    2.1347    6.0765 O   0  0  0  0  0  0  0  0  0  0  0  0
    0.2100    1.5343    5.2395 C   0  0  2  0  0  0  0  0  0  0  0  0
   -0.3200    0.0424    5.0700 C   0  0  0  0  0  0  0  0  0  0  0  0
   -0.4790   -0.5204    6.4525 C   0  0  1  0  0  0  0  0  0  0  0  0
   -0.5350   -2.0687    6.5181 C   0  0  0  0  0  0  0  0  0  0  0  0
    0.7003    0.1313    7.1641 C   0  0  1  0  0  0  0  0  0  0  0  0
    2.0721   -0.1791    6.0470 C   0  0  0  0  0  0  0  0  0  0  0  0
    0.0458    1.6994    7.8135 C   0  0  1  0  0  0  0  0  0  0  0  0
   -0.9847    1.3503    8.7136 O   0  0  0  0  0  0  0  0  0  0  0  0
    1.1701    2.2351    8.6153 C   0  0  1  0  0  0  0  0  0  0  0  0
    1.5277    1.3224    9.6475 O   0  0  0  0  0  0  0  0  0  0  0  0
   -0.5160    3.1603    6.9758 C   0  0  1  0  0  0  0  0  0  0  0  0
   -0.8744    4.3404    7.9081 C   0  0  0  0  0  0  0  0  0  0  0  0
    0.0660    3.6891    5.3806 C   0  0  1  0  0  0  0  0  0  0  0  0
   -1.0143    4.4555    4.9063 O   0  0  0  0  0  0  0  0  0  0  0  0
    1.3347    4.6806    5.2652 C   0  0  1  0  0  0  0  0  0  0  0  0
    1.0384    6.1176    5.7973 C   0  0  0  0  0  0  0  0  0  0  0  0
    1.5061    4.9845    3.8950 O   0  0  0  0  0  0  0  0  0  0  0  0
    0.3068    2.4598    4.2230 C   0  0  2  0  0  0  0  0  0  0  0  0
   -4.0280    2.6617    3.1585 H   0  0  0  0  0  0  0  0  0  0  0  0
   -3.0441    2.5357    1.7032 H   0  0  0  0  0  0  0  0  0  0  0  0
   -2.9066    3.9601    2.7652 H   0  0  0  0  0  0  0  0  0  0  0  0
   -0.6631    3.3815    2.5623 H   0  0  0  0  0  0  0  0  0  0  0  0
   -1.0925    0.6344    1.8528 H   0  0  0  0  0  0  0  0  0  0  0  0
   -0.1745    1.8649    1.0350 H   0  0  0  0  0  0  0  0  0  0  0  0
    0.8132   -0.2896    2.6902 H   0  0  0  0  0  0  0  0  0  0  0  0
    1.4253    0.0170    0.6729 H   0  0  0  0  0  0  0  0  0  0  0  0
    1.6889    2.7583    2.0332 H   0  0  0  0  0  0  0  0  0  0  0  0
    2.9939   -0.0911    3.9738 H   0  0  0  0  0  0  0  0  0  0  0  0
    4.4788    1.1542    5.5859 H   0  0  0  0  0  0  0  0  0  0  0  0
    4.4369    1.5161    3.9703 H   0  0  0  0  0  0  0  0  0  0  0  0
    4.7469    3.4598    5.5364 H   0  0  0  0  0  0  0  0  0  0  0  0
    3.9589    3.7107    4.0725 H   0  0  0  0  0  0  0  0  0  0  0  0
    3.3256    5.1348    5.8319 H   0  0  0  0  0  0  0  0  0  0  0  0
    3.5463    4.0681    7.8236 H   0  0  0  0  0  0  0  0  0  0  0  0
    1.9293    4.5502    7.7656 H   0  0  0  0  0  0  0  0  0  0  0  0
    3.7366    2.1835    8.9423 H   0  0  0  0  0  0  0  0  0  0  0  0
    4.3676    2.0030    7.3914 H   0  0  0  0  0  0  0  0  0  0  0  0
    3.4611    0.6947    8.1834 H   0  0  0  0  0  0  0  0  0  0  0  0
   -0.8388    1.6717    5.4487 H   0  0  0  0  0  0  0  0  0  0  0  0
   -1.2849    0.0051    4.5564 H   0  0  0  0  0  0  0  0  0  0  0  0
    0.2795   -0.6641    4.5178 H   0  0  0  0  0  0  0  0  0  0  0  0
   -1.4169   -0.1363    6.8448 H   0  0  0  0  0  0  0  0  0  0  0  0
    0.3234   -2.5573    6.0596 H   0  0  0  0  0  0  0  0  0  0  0  0
   -1.4176   -2.4462    6.0010 H   0  0  0  0  0  0  0  0  0  0  0  0
   -0.5763   -2.4275    7.5453 H   0  0  0  0  0  0  0  0  0  0  0  0
    0.9025   -0.4735    8.0326 H   0  0  0  0  0  0  0  0  0  0  0  0
    1.9275   -1.1897    5.6925 H   0  0  0  0  0  0  0  0  0  0  0  0
    2.9621   -0.3850    6.6170 H   0  0  0  0  0  0  0  0  0  0  0  0
   -1.1580    2.1247    9.2479 H   0  0  0  0  0  0  0  0  0  0  0  0
    0.9593    3.1701    9.1312 H   0  0  0  0  0  0  0  0  0  0  0  0
    0.8111    1.2894   10.2683 H   0  0  0  0  0  0  0  0  0  0  0  0
   -1.5610    2.9008    6.7635 H   0  0  0  0  0  0  0  0  0  0  0  0
   -0.0363    4.8527    8.3672 H   0  0  0  0  0  0  0  0  0  0  0  0
   -1.5240    4.0053    8.7190 H   0  0  0  0  0  0  0  0  0  0  0  0
   -1.4209    5.1026    7.3592 H   0  0  0  0  0  0  0  0  0  0  0  0
   -0.8068    4.5811    3.9708 H   0  0  0  0  0  0  0  0  0  0  0  0
    0.8331    6.1580    6.8590 H   0  0  0  0  0  0  0  0  0  0  0  0
    0.1989    6.5765    5.2860 H   0  0  0  0  0  0  0  0  0  0  0  0
    1.8838    6.7774    5.6147 H   0  0  0  0  0  0  0  0  0  0  0  0
    1.7936    4.1771    3.4568 H   0  0  0  0  0  0  0  0  0  0  0  0
  1  2  1  0
  1 35  1  0
  1 36  1  0
  1 37  1  0
  2  3  1  0
  3 34  1  0
  3  4  1  0
  3 38  1  6
  4  5  1  0
  4 39  1  0
  4 40  1  0
  5  6  1  0
  5  7  1  0
  5 41  1  1
  6 42  1  0
 34  7  1  6
  7  8  1  6
  7  9  1  0
  8 43  1  0
  9 22  1  0
  9 10  1  0
  9 44  1  6
 10 11  1  0
 10 45  1  0
 10 46  1  0
 11 12  1  0
 11 47  1  0
 11 48  1  0
 12 31  1  0
 12 13  1  0
 12 49  1  1
 13 14  1  0
 13 50  1  0
 13 51  1  0
 14 25  1  0
 14 15  1  1
 14 16  1  0
 15 52  1  0
 15 53  1  0
 15 54  1  0
 16 17  1  0
 17 34  1  0
 17 18  1  0
 17 55  1  1
 18 19  1  0
 18 56  1  0
 18 57  1  0
 19 20  1  0
 19 21  1  0
 19 58  1  1
 20 59  1  0
 20 60  1  0
 20 61  1  0
 21 22  1  0
 21 23  1  0
 21 62  1  1
 22 63  1  0
 22 64  1  0
 23 24  1  1
 23 25  1  0
 23 27  1  0
 24 65  1  0
 25 26  1  0
 25 66  1  1
 26 67  1  0
 27 28  1  0
 27 29  1  0
 27 68  1  6
 28 69  1  0
 28 70  1  0
 28 71  1  0
 29 30  1  6
 29 31  1  0
 29 34  1  0
 30 72  1  0
 31 32  1  0
 31 33  1  6
 32 73  1  0
 32 74  1  0
 32 75  1  0
 33 76  1  0
M  END
>  <i_m_ct_stereo_status>  (375) 
1

>  <s_m_source_file>  (375) 
/var/tmp/pbs.5076255.sched01/tmp0i_w_vt9/132llf9lao3.sdf

>  <i_m_source_file_index>  (375) 
22

>  <i_lp_mmshare_version>  (375) 
48012

>  <i_f3d_flags>  (375) 
0

>  <s_epik_input>  (375) 
W0NIM11PW0NAQEhdMVtDSDJdW0NAQEhdKFtPSF0pW0NAXShbQ0BAXTEyMykoW09IXSlbQ0BIXTRbQ0gyXVtDSDJdW0NAQEhdNVtDSDJdW0NAXTYoW0NIM10pT1tDQEBIXTJbQ0gyXVtDQEBIXShbQ0gzXSlbQ0BASF0oW0NIMl00KVtDQEBdKFtPSF0pKFtDQEhdNltPSF0pW0NAQEhdKFtDSDNdKVtDQEBdMyhbT0hdKVtDQF01KFtDSDNdKVtPSF0=

>  <s_epik_cmdline>  (375) 
J2VwaWtfcHl0aG9uJywgJy1waHQnLCAnMi4wJywgJy1waCcsICc3LjAnLCAnLXRuJywgJzgnLCAnLW1hJywgJzIwMCcsICctaW1hZScsICc8aW5maWxlLm1hZT4nLCAnLW9tYWUnLCAnPG91dGZpbGUubWFlPic=

>  <r_lp_tautomer_probability>  (375) 
1

>  <r_epik_Ionization_Penalty>  (375) 
1.01547e-06

>  <r_epik_Ionization_Penalty_Charging>  (375) 
0

>  <r_epik_Ionization_Penalty_Neutral>  (375) 
1.01547e-06

>  <r_epik_State_Penalty>  (375) 
-0

>  <r_epik_Charging_Adjusted_Penalty>  (375) 
0

>  <i_epik_Tot_Q>  (375) 
0

>  <i_epik_Tot_abs_Q>  (375) 
0

>  <s_lp_Force_Field>  (375) 
OPLS3e

>  <r_lp_Energy>  (375) 
563.964

>  <b_lp_Chiralities_Consistent>  (375) 
1

>  <s_lp_Variant>  (375) 
106:0-1

>  <s_i_glide_gridfile>  (375) 
pfpi4k_grid

>  <i_i_glide_lignum>  (375) 
22

>  <i_i_glide_rotatable_bonds>  (375) 
7

>  <r_i_docking_score>  (375) 
-2.53332

>  <r_i_glide_ligand_efficiency>  (375) 
-0.0745094

>  <r_i_glide_ligand_efficiency_sa>  (375) 
-0.241381

>  <r_i_glide_ligand_efficiency_ln>  (375) 
-0.559681

>  <r_i_glide_gscore>  (375) 
-2.53332

>  <r_i_glide_lipo>  (375) 
0

>  <r_i_glide_hbond>  (375) 
0

>  <r_i_glide_metal>  (375) 
-0

>  <r_i_glide_rewards>  (375) 
-0.618589

>  <r_i_glide_evdw>  (375) 
-20.9756

>  <r_i_glide_ecoul>  (375) 
-5.773

>  <r_i_glide_erotb>  (375) 
0

>  <r_i_glide_esite>  (375) 
0

>  <r_i_glide_emodel>  (375) 
-36.9786

>  <r_i_glide_energy>  (375) 
-26.7486

>  <r_i_glide_einternal>  (375) 
1.95468

>  <r_i_glide_intrahb_reward>  (375) 
-0.5

>  <i_i_glide_confnum>  (375) 
1

>  <i_i_glide_posenum>  (375) 
38

>  <r_i_glide_eff_state_penalty>  (375) 
0

>  <ligand_id>  (375) 
106

>  <original_smiles>  (375) 
COC1CC(O)C2(O)C3CCC4CC5(C)OC6CC(C)C(C3)C(O)(C5O)C(C)C(O)(C4(C)O)C162

>  <smiles>  (375) 
[H]OC1([H])C2(C([H])([H])[H])OC3([H])C([H])([H])C([H])(C([H])([H])[H])C4([H])C([H])([H])C5([H])C([H])([H])C([H])([H])C([H])(C2([H])[H])C(O[H])(C([H])([H])[H])C(O[H])(C([H])(C([H])([H])[H])C14O[H])C31C([H])(OC([H])([H])[H])C([H])([H])C([H])(O[H])C51O[H]

$$$$
107:0:0
     RDKit          3D

 71 77  0  0  1  0  0  0  0  0999 V2000
    2.1660    1.5344    2.5811 C   0  0  0  0  0  0  0  0  0  0  0  0
    2.5125    0.3440    3.0950 C   0  0  0  0  0  0  0  0  0  0  0  0
    3.9562   -0.1565    3.0006 C   0  0  1  0  0  0  0  0  0  0  0  0
    4.6656   -0.1613    4.3968 C   0  0  0  0  0  0  0  0  0  0  0  0
    4.0287   -1.2228    5.2865 C   0  0  1  0  0  0  0  0  0  0  0  0
    4.2794   -2.5043    4.4835 C   0  0  1  0  0  0  0  0  0  0  0  0
    4.3937   -2.5181    5.9755 C   0  0  0  0  0  0  0  0  0  0  0  0
    5.7589   -2.5755    6.6418 C   0  0  0  0  0  0  0  0  0  0  0  0
    3.3840   -3.2819    6.8057 C   0  0  0  0  0  0  0  0  0  0  0  0
    3.2971   -2.6073    3.2873 C   0  0  1  0  0  0  0  0  0  0  0  0
    3.3567   -4.0498    2.7301 C   0  0  0  0  0  0  0  0  0  0  0  0
    4.5150   -4.5917    2.2840 C   0  0  0  0  0  0  0  0  0  0  0  0
    4.6720   -5.9040    1.9279 O   0  0  0  0  0  0  0  0  0  0  0  0
    3.7582   -6.8165    2.5333 C   0  0  2  0  0  0  0  0  0  0  0  0
    3.7161   -8.1676    1.8007 C   0  0  0  0  0  0  0  0  0  0  0  0
    2.2420   -8.6296    1.8563 C   0  0  1  0  0  0  0  0  0  0  0  0
    2.0137   -9.6665    2.9407 C   0  0  0  0  0  0  0  0  0  0  0  0
    1.1396   -9.6041    4.0575 C   0  0  0  0  0  0  0  0  0  0  0  0
    1.2819  -10.7800    4.7476 C   0  0  0  0  0  0  0  0  0  0  0  0
    2.2035  -11.5679    4.1437 O   0  0  0  0  0  0  0  0  0  0  0  0
    2.6392  -10.8897    3.0531 C   0  0  0  0  0  0  0  0  0  0  0  0
    1.5008   -7.3258    2.0944 C   0  0  0  0  0  0  0  0  0  0  0  0
    0.0060   -7.2535    1.8386 C   0  0  0  0  0  0  0  0  0  0  0  0
    2.3339   -6.3433    2.4901 C   0  0  0  0  0  0  0  0  0  0  0  0
    2.0552   -4.8710    2.7498 C   0  0  1  0  0  0  0  0  0  0  0  0
    1.2969   -4.6101    4.0612 C   0  0  0  0  0  0  0  0  0  0  0  0
    0.8458   -3.1373    4.1673 C   0  0  0  0  0  0  0  0  0  0  0  0
    1.7935   -2.1523    3.4371 C   0  0  1  0  0  0  0  0  0  0  0  0
    1.4452   -0.6340    3.6023 C   0  0  1  0  0  0  0  0  0  0  0  0
    0.9977   -0.3290    4.9252 O   0  0  0  0  0  0  0  0  0  0  0  0
   -0.2449    0.1155    5.2413 C   0  0  0  0  0  0  0  0  0  0  0  0
   -1.1344    0.5590    4.0825 C   0  0  0  0  0  0  0  0  0  0  0  0
   -0.6614    0.1844    6.3964 O   0  0  0  0  0  0  0  0  0  0  0  0
    3.9648   -1.5608    2.3265 C   0  0  1  0  0  0  0  0  0  0  0  0
    3.4095   -1.5315    1.0212 O   0  0  0  0  0  0  0  0  0  0  0  0
    1.1375    1.8614    2.5641 H   0  0  0  0  0  0  0  0  0  0  0  0
    2.8896    2.1912    2.1346 H   0  0  0  0  0  0  0  0  0  0  0  0
    4.4994    0.5362    2.3533 H   0  0  0  0  0  0  0  0  0  0  0  0
    5.7371   -0.3364    4.2773 H   0  0  0  0  0  0  0  0  0  0  0  0
    4.5509    0.8107    4.8833 H   0  0  0  0  0  0  0  0  0  0  0  0
    3.0797   -0.9128    5.6868 H   0  0  0  0  0  0  0  0  0  0  0  0
    5.2843   -2.6865    4.1107 H   0  0  0  0  0  0  0  0  0  0  0  0
    6.1267   -3.6006    6.6930 H   0  0  0  0  0  0  0  0  0  0  0  0
    5.7073   -2.1624    7.6484 H   0  0  0  0  0  0  0  0  0  0  0  0
    6.4778   -1.9785    6.0803 H   0  0  0  0  0  0  0  0  0  0  0  0
    3.6034   -4.3498    6.7752 H   0  0  0  0  0  0  0  0  0  0  0  0
    2.3873   -3.1186    6.4160 H   0  0  0  0  0  0  0  0  0  0  0  0
    3.3975   -2.9400    7.8405 H   0  0  0  0  0  0  0  0  0  0  0  0
    5.4562   -4.0640    2.2616 H   0  0  0  0  0  0  0  0  0  0  0  0
    4.0179   -6.9582    3.5834 H   0  0  0  0  0  0  0  0  0  0  0  0
    3.9770   -7.9887    0.7558 H   0  0  0  0  0  0  0  0  0  0  0  0
    4.4381   -8.8908    2.1817 H   0  0  0  0  0  0  0  0  0  0  0  0
    1.9482   -9.0575    0.8944 H   0  0  0  0  0  0  0  0  0  0  0  0
    0.4687   -8.8101    4.3471 H   0  0  0  0  0  0  0  0  0  0  0  0
    0.8297  -11.1855    5.6337 H   0  0  0  0  0  0  0  0  0  0  0  0
    3.3848  -11.4094    2.4767 H   0  0  0  0  0  0  0  0  0  0  0  0
   -0.2138   -7.5397    0.8071 H   0  0  0  0  0  0  0  0  0  0  0  0
   -0.3922   -6.2558    2.0151 H   0  0  0  0  0  0  0  0  0  0  0  0
   -0.5312   -7.9549    2.4824 H   0  0  0  0  0  0  0  0  0  0  0  0
    1.4389   -4.5323    1.9202 H   0  0  0  0  0  0  0  0  0  0  0  0
    0.4310   -5.2692    4.1577 H   0  0  0  0  0  0  0  0  0  0  0  0
    1.9565   -4.8506    4.8949 H   0  0  0  0  0  0  0  0  0  0  0  0
   -0.1310   -3.0488    3.6923 H   0  0  0  0  0  0  0  0  0  0  0  0
    0.6577   -2.8619    5.2068 H   0  0  0  0  0  0  0  0  0  0  0  0
    1.4517   -2.2807    2.4133 H   0  0  0  0  0  0  0  0  0  0  0  0
    0.6395   -0.4692    2.9005 H   0  0  0  0  0  0  0  0  0  0  0  0
   -1.2355   -0.2309    3.3398 H   0  0  0  0  0  0  0  0  0  0  0  0
   -0.7115    1.4387    3.6053 H   0  0  0  0  0  0  0  0  0  0  0  0
   -2.1225    0.8405    4.4416 H   0  0  0  0  0  0  0  0  0  0  0  0
    5.0077   -1.8231    2.1562 H   0  0  0  0  0  0  0  0  0  0  0  0
    2.5262   -1.1805    1.0419 H   0  0  0  0  0  0  0  0  0  0  0  0
  1  2  2  0
  1 36  1  0
  1 37  1  0
  2 29  1  0
  2  3  1  0
  3 34  1  0
  3  4  1  0
  3 38  1  6
  4  5  1  0
  4 39  1  0
  4 40  1  0
  5  7  1  0
  5  6  1  0
  5 41  1  1
  6  7  1  0
  6 10  1  0
  6 42  1  6
  7  8  1  0
  7  9  1  0
  8 43  1  0
  8 44  1  0
  8 45  1  0
  9 46  1  0
  9 47  1  0
  9 48  1  0
 10 28  1  0
 10 11  1  6
 10 34  1  0
 11 25  1  0
 11 12  2  0
 12 13  1  0
 12 49  1  0
 13 14  1  0
 14 24  1  0
 14 15  1  0
 14 50  1  1
 15 16  1  0
 15 51  1  0
 15 52  1  0
 16 17  1  0
 16 22  1  0
 16 53  1  6
 17 21  2  0
 17 18  1  0
 18 19  2  0
 18 54  1  0
 19 20  1  0
 19 55  1  0
 20 21  1  0
 21 56  1  0
 22 23  1  0
 22 24  2  0
 23 57  1  0
 23 58  1  0
 23 59  1  0
 24 25  1  0
 25 26  1  0
 25 60  1  6
 26 27  1  0
 26 61  1  0
 26 62  1  0
 27 28  1  0
 27 63  1  0
 27 64  1  0
 28 29  1  0
 28 65  1  6
 29 30  1  0
 29 66  1  6
 30 31  1  0
 31 32  1  0
 31 33  2  0
 32 67  1  0
 32 68  1  0
 32 69  1  0
 34 35  1  0
 34 70  1  6
 35 71  1  0
M  END
>  <i_m_ct_stereo_status>  (376) 
1

>  <s_m_source_file>  (376) 
/var/tmp/pbs.5076255.sched01/tmp0i_w_vt9/132llf9lao3.sdf

>  <i_m_source_file_index>  (376) 
23

>  <i_lp_mmshare_version>  (376) 
48012

>  <i_f3d_flags>  (376) 
0

>  <s_epik_input>  (376) 
W0NIM11DMShbQ0gzXSlbQ0BIXShbQ0BASF0xW0NAQF0yMzQpW0NIMl1bQ0BASF0oW0NAQEhdNFtPSF0pQyg9W0NIMl0pW0NASF0oT0MoPU8pW0NIM10pW0NAQEhdM1tDSDJdW0NIMl1bQ0BIXTVDMj1bQ0hdT1tDQEhdNkM1PUMoW0NIM10pW0NAQEhdKFtDSDJdNiljN1tjSF1bY0hdb1tjSF03

>  <s_epik_cmdline>  (376) 
J2VwaWtfcHl0aG9uJywgJy1waHQnLCAnMi4wJywgJy1waCcsICc3LjAnLCAnLXRuJywgJzgnLCAnLW1hJywgJzIwMCcsICctaW1hZScsICc8aW5maWxlLm1hZT4nLCAnLW9tYWUnLCAnPG91dGZpbGUubWFlPic=

>  <r_lp_tautomer_probability>  (376) 
1

>  <r_epik_Ionization_Penalty>  (376) 
4.77314e-08

>  <r_epik_Ionization_Penalty_Charging>  (376) 
0

>  <r_epik_Ionization_Penalty_Neutral>  (376) 
4.77314e-08

>  <r_epik_State_Penalty>  (376) 
-0

>  <r_epik_Charging_Adjusted_Penalty>  (376) 
0

>  <i_epik_Tot_Q>  (376) 
0

>  <i_epik_Tot_abs_Q>  (376) 
0

>  <s_epik_Chemistry_Notes>  (376) 
This compound has an ester and may undergo hydrolysis at high or low pH.

>  <s_lp_Force_Field>  (376) 
OPLS3e

>  <r_lp_Energy>  (376) 
85.4929

>  <b_lp_Chiralities_Consistent>  (376) 
1

>  <s_lp_Variant>  (376) 
107:0-1

>  <s_i_glide_gridfile>  (376) 
pfpi4k_grid

>  <i_i_glide_lignum>  (376) 
23

>  <i_i_glide_rotatable_bonds>  (376) 
4

>  <r_i_docking_score>  (376) 
-2.44609

>  <r_i_glide_ligand_efficiency>  (376) 
-0.0698883

>  <r_i_glide_ligand_efficiency_sa>  (376) 
-0.228609

>  <r_i_glide_ligand_efficiency_ln>  (376) 
-0.536972

>  <r_i_glide_gscore>  (376) 
-2.44609

>  <r_i_glide_lipo>  (376) 
-0.242849

>  <r_i_glide_hbond>  (376) 
0

>  <r_i_glide_metal>  (376) 
-0

>  <r_i_glide_rewards>  (376) 
-0.159519

>  <r_i_glide_evdw>  (376) 
-32.5772

>  <r_i_glide_ecoul>  (376) 
-3.84671

>  <r_i_glide_erotb>  (376) 
0.178304

>  <r_i_glide_esite>  (376) 
-0.0161618

>  <r_i_glide_emodel>  (376) 
-38.8214

>  <r_i_glide_energy>  (376) 
-36.4239

>  <r_i_glide_einternal>  (376) 
5.95175

>  <r_i_glide_intrahb_reward>  (376) 
-0

>  <i_i_glide_confnum>  (376) 
5

>  <i_i_glide_posenum>  (376) 
25

>  <r_i_glide_eff_state_penalty>  (376) 
0

>  <ligand_id>  (376) 
107

>  <original_smiles>  (376) 
C=C1C2CC3C(C3(C)C)C3(C4=COC5CC(c6ccoc6)C(C)=C5C4CCC3C1OC(C)=O)C2O

>  <smiles>  (376) 
[H]OC1([H])C2([H])C(=C([H])[H])C([H])(OC(=O)C([H])([H])[H])C3([H])C([H])([H])C([H])([H])C4([H])C5=C(C([H])([H])[H])C([H])(c6c([H])oc([H])c6[H])C([H])([H])C5([H])OC([H])=C4C13C1([H])C([H])(C2([H])[H])C1(C([H])([H])[H])C([H])([H])[H]

$$$$
107:0:1
     RDKit          3D

 71 77  0  0  1  0  0  0  0  0999 V2000
    2.2048    1.4762    2.5092 C   0  0  0  0  0  0  0  0  0  0  0  0
    2.5335    0.2840    3.0342 C   0  0  0  0  0  0  0  0  0  0  0  0
    3.9738   -0.2285    2.9620 C   0  0  1  0  0  0  0  0  0  0  0  0
    4.6951   -0.2118    4.3523 C   0  0  0  0  0  0  0  0  0  0  0  0
    4.0582   -1.2485    5.2648 C   0  0  1  0  0  0  0  0  0  0  0  0
    4.2815   -2.5400    4.4865 C   0  0  1  0  0  0  0  0  0  0  0  0
    4.4055   -2.5365    5.9774 C   0  0  0  0  0  0  0  0  0  0  0  0
    5.7693   -2.6057    6.6492 C   0  0  0  0  0  0  0  0  0  0  0  0
    3.3900   -3.2754    6.8227 C   0  0  0  0  0  0  0  0  0  0  0  0
    3.2981   -2.6583    3.2899 C   0  0  1  0  0  0  0  0  0  0  0  0
    3.3552   -4.1096    2.7554 C   0  0  0  0  0  0  0  0  0  0  0  0
    4.5096   -4.6673    2.3230 C   0  0  0  0  0  0  0  0  0  0  0  0
    4.6477   -5.9875    1.9956 O   0  0  0  0  0  0  0  0  0  0  0  0
    3.7198   -6.8832    2.6093 C   0  0  2  0  0  0  0  0  0  0  0  0
    3.6565   -8.2526    1.9063 C   0  0  0  0  0  0  0  0  0  0  0  0
    2.1760   -8.6883    1.9653 C   0  0  1  0  0  0  0  0  0  0  0  0
    1.9240   -9.6979    3.0679 C   0  0  0  0  0  0  0  0  0  0  0  0
    2.6152  -10.9340    3.2664 C   0  0  0  0  0  0  0  0  0  0  0  0
    2.0627  -11.5109    4.3687 C   0  0  0  0  0  0  0  0  0  0  0  0
    1.0715  -10.7403    4.8769 O   0  0  0  0  0  0  0  0  0  0  0  0
    1.0120   -9.6496    4.0806 C   0  0  0  0  0  0  0  0  0  0  0  0
    1.4612   -7.3613    2.1781 C   0  0  0  0  0  0  0  0  0  0  0  0
   -0.0313   -7.2745    1.9059 C   0  0  0  0  0  0  0  0  0  0  0  0
    2.3033   -6.3932    2.5591 C   0  0  0  0  0  0  0  0  0  0  0  0
    2.0456   -4.9112    2.7851 C   0  0  1  0  0  0  0  0  0  0  0  0
    1.2879   -4.6267    4.0879 C   0  0  0  0  0  0  0  0  0  0  0  0
    0.8514   -3.1509    4.1724 C   0  0  0  0  0  0  0  0  0  0  0  0
    1.8007   -2.1839    3.4291 C   0  0  1  0  0  0  0  0  0  0  0  0
    1.4628   -0.6535    3.5920 C   0  0  1  0  0  0  0  0  0  0  0  0
    1.0910   -0.2242    4.9033 O   0  0  0  0  0  0  0  0  0  0  0  0
   -0.1898   -0.2078    5.3199 C   0  0  0  0  0  0  0  0  0  0  0  0
   -0.3293    0.3662    6.7248 C   0  0  0  0  0  0  0  0  0  0  0  0
   -1.1684   -0.6178    4.6952 O   0  0  0  0  0  0  0  0  0  0  0  0
    3.9849   -1.6434    2.3158 C   0  0  1  0  0  0  0  0  0  0  0  0
    3.4374   -1.6273    1.0112 O   0  0  0  0  0  0  0  0  0  0  0  0
    1.1829    1.8323    2.5026 H   0  0  0  0  0  0  0  0  0  0  0  0
    2.9578    2.1223    2.0853 H   0  0  0  0  0  0  0  0  0  0  0  0
    4.5322    0.4422    2.3094 H   0  0  0  0  0  0  0  0  0  0  0  0
    5.7606   -0.4020    4.2375 H   0  0  0  0  0  0  0  0  0  0  0  0
    4.6051    0.7644    4.8317 H   0  0  0  0  0  0  0  0  0  0  0  0
    3.1185   -0.9345    5.6423 H   0  0  0  0  0  0  0  0  0  0  0  0
    5.2707   -2.7443    4.1268 H   0  0  0  0  0  0  0  0  0  0  0  0
    6.1231   -3.6361    6.7185 H   0  0  0  0  0  0  0  0  0  0  0  0
    5.7226   -2.1749    7.6502 H   0  0  0  0  0  0  0  0  0  0  0  0
    6.4955   -2.0292    6.0796 H   0  0  0  0  0  0  0  0  0  0  0  0
    3.5970   -4.3471    6.8075 H   0  0  0  0  0  0  0  0  0  0  0  0
    2.3999   -3.1037    6.4267 H   0  0  0  0  0  0  0  0  0  0  0  0
    3.4080   -2.9155    7.8523 H   0  0  0  0  0  0  0  0  0  0  0  0
    5.4625   -4.1556    2.2961 H   0  0  0  0  0  0  0  0  0  0  0  0
    3.9696   -7.0099    3.6573 H   0  0  0  0  0  0  0  0  0  0  0  0
    3.9218   -8.0921    0.8594 H   0  0  0  0  0  0  0  0  0  0  0  0
    4.3746   -8.9815    2.2986 H   0  0  0  0  0  0  0  0  0  0  0  0
    1.8761   -9.1306    1.0098 H   0  0  0  0  0  0  0  0  0  0  0  0
    3.4172  -11.3569    2.6760 H   0  0  0  0  0  0  0  0  0  0  0  0
    2.2280  -12.4364    4.9090 H   0  0  0  0  0  0  0  0  0  0  0  0
    0.2508   -8.9425    4.3905 H   0  0  0  0  0  0  0  0  0  0  0  0
   -0.2538   -7.5802    0.8809 H   0  0  0  0  0  0  0  0  0  0  0  0
   -0.4199   -6.2696    2.0636 H   0  0  0  0  0  0  0  0  0  0  0  0
   -0.5903   -7.9526    2.5530 H   0  0  0  0  0  0  0  0  0  0  0  0
    1.4350   -4.5799    1.9468 H   0  0  0  0  0  0  0  0  0  0  0  0
    0.4159   -5.2753    4.1948 H   0  0  0  0  0  0  0  0  0  0  0  0
    1.9429   -4.8604    4.9244 H   0  0  0  0  0  0  0  0  0  0  0  0
   -0.1193   -3.0537    3.6934 H   0  0  0  0  0  0  0  0  0  0  0  0
    0.6753   -2.8718    5.2122 H   0  0  0  0  0  0  0  0  0  0  0  0
    1.4506   -2.3084    2.4015 H   0  0  0  0  0  0  0  0  0  0  0  0
    0.5977   -0.4585    2.9537 H   0  0  0  0  0  0  0  0  0  0  0  0
    0.1719    1.3315    6.7842 H   0  0  0  0  0  0  0  0  0  0  0  0
    0.1251   -0.3018    7.4575 H   0  0  0  0  0  0  0  0  0  0  0  0
   -1.3780    0.5126    6.9812 H   0  0  0  0  0  0  0  0  0  0  0  0
    5.0296   -1.9117    2.1588 H   0  0  0  0  0  0  0  0  0  0  0  0
    2.5558   -1.2613    1.0229 H   0  0  0  0  0  0  0  0  0  0  0  0
  1  2  2  0
  1 36  1  0
  1 37  1  0
  2 29  1  0
  2  3  1  0
  3 34  1  0
  3  4  1  0
  3 38  1  6
  4  5  1  0
  4 39  1  0
  4 40  1  0
  5  7  1  0
  5  6  1  0
  5 41  1  1
  6  7  1  0
  6 10  1  0
  6 42  1  6
  7  8  1  0
  7  9  1  0
  8 43  1  0
  8 44  1  0
  8 45  1  0
  9 46  1  0
  9 47  1  0
  9 48  1  0
 10 28  1  0
 10 11  1  6
 10 34  1  0
 11 25  1  0
 11 12  2  0
 12 13  1  0
 12 49  1  0
 13 14  1  0
 14 24  1  0
 14 15  1  0
 14 50  1  1
 15 16  1  0
 15 51  1  0
 15 52  1  0
 16 17  1  0
 16 22  1  0
 16 53  1  6
 17 21  2  0
 17 18  1  0
 18 19  2  0
 18 54  1  0
 19 20  1  0
 19 55  1  0
 20 21  1  0
 21 56  1  0
 22 23  1  0
 22 24  2  0
 23 57  1  0
 23 58  1  0
 23 59  1  0
 24 25  1  0
 25 26  1  0
 25 60  1  6
 26 27  1  0
 26 61  1  0
 26 62  1  0
 27 28  1  0
 27 63  1  0
 27 64  1  0
 28 29  1  0
 28 65  1  6
 29 30  1  0
 29 66  1  6
 30 31  1  0
 31 32  1  0
 31 33  2  0
 32 67  1  0
 32 68  1  0
 32 69  1  0
 34 35  1  0
 34 70  1  6
 35 71  1  0
M  END
>  <i_m_ct_stereo_status>  (377) 
1

>  <s_m_source_file>  (377) 
/var/tmp/pbs.5076255.sched01/tmp0i_w_vt9/132llf9lao3.sdf

>  <i_m_source_file_index>  (377) 
23

>  <i_lp_mmshare_version>  (377) 
48012

>  <i_f3d_flags>  (377) 
0

>  <s_epik_input>  (377) 
W0NIM11DMShbQ0gzXSlbQ0BIXShbQ0BASF0xW0NAQF0yMzQpW0NIMl1bQ0BASF0oW0NAQEhdNFtPSF0pQyg9W0NIMl0pW0NASF0oT0MoPU8pW0NIM10pW0NAQEhdM1tDSDJdW0NIMl1bQ0BIXTVDMj1bQ0hdT1tDQEhdNkM1PUMoW0NIM10pW0NAQEhdKFtDSDJdNiljN1tjSF1bY0hdb1tjSF03

>  <s_epik_cmdline>  (377) 
J2VwaWtfcHl0aG9uJywgJy1waHQnLCAnMi4wJywgJy1waCcsICc3LjAnLCAnLXRuJywgJzgnLCAnLW1hJywgJzIwMCcsICctaW1hZScsICc8aW5maWxlLm1hZT4nLCAnLW9tYWUnLCAnPG91dGZpbGUubWFlPic=

>  <r_lp_tautomer_probability>  (377) 
1

>  <r_epik_Ionization_Penalty>  (377) 
4.77314e-08

>  <r_epik_Ionization_Penalty_Charging>  (377) 
0

>  <r_epik_Ionization_Penalty_Neutral>  (377) 
4.77314e-08

>  <r_epik_State_Penalty>  (377) 
-0

>  <r_epik_Charging_Adjusted_Penalty>  (377) 
0

>  <i_epik_Tot_Q>  (377) 
0

>  <i_epik_Tot_abs_Q>  (377) 
0

>  <s_epik_Chemistry_Notes>  (377) 
This compound has an ester and may undergo hydrolysis at high or low pH.

>  <s_lp_Force_Field>  (377) 
OPLS3e

>  <r_lp_Energy>  (377) 
85.4929

>  <b_lp_Chiralities_Consistent>  (377) 
1

>  <s_lp_Variant>  (377) 
107:0-1

>  <s_i_glide_gridfile>  (377) 
pfpi4k_grid

>  <i_i_glide_lignum>  (377) 
23

>  <i_i_glide_rotatable_bonds>  (377) 
4

>  <r_i_docking_score>  (377) 
-2.02499

>  <r_i_glide_ligand_efficiency>  (377) 
-0.0578569

>  <r_i_glide_ligand_efficiency_sa>  (377) 
-0.189254

>  <r_i_glide_ligand_efficiency_ln>  (377) 
-0.444531

>  <r_i_glide_gscore>  (377) 
-2.02499

>  <r_i_glide_lipo>  (377) 
-0.242482

>  <r_i_glide_hbond>  (377) 
0

>  <r_i_glide_metal>  (377) 
-0

>  <r_i_glide_rewards>  (377) 
-0.159519

>  <r_i_glide_evdw>  (377) 
-33.0699

>  <r_i_glide_ecoul>  (377) 
-0.871026

>  <r_i_glide_erotb>  (377) 
0.178304

>  <r_i_glide_esite>  (377) 
-0.0171454

>  <r_i_glide_emodel>  (377) 
-37.9678

>  <r_i_glide_energy>  (377) 
-33.9409

>  <r_i_glide_einternal>  (377) 
0.744737

>  <r_i_glide_intrahb_reward>  (377) 
-0

>  <i_i_glide_confnum>  (377) 
5

>  <i_i_glide_posenum>  (377) 
10

>  <r_i_glide_eff_state_penalty>  (377) 
0

>  <ligand_id>  (377) 
107

>  <original_smiles>  (377) 
C=C1C2CC3C(C3(C)C)C3(C4=COC5CC(c6ccoc6)C(C)=C5C4CCC3C1OC(C)=O)C2O

>  <smiles>  (377) 
[H]OC1([H])C2([H])C(=C([H])[H])C([H])(OC(=O)C([H])([H])[H])C3([H])C([H])([H])C([H])([H])C4([H])C5=C(C([H])([H])[H])C([H])(c6c([H])oc([H])c6[H])C([H])([H])C5([H])OC([H])=C4C13C1([H])C([H])(C2([H])[H])C1(C([H])([H])[H])C([H])([H])[H]

$$$$
107:0:2
     RDKit          3D

 71 77  0  0  1  0  0  0  0  0999 V2000
    2.2231    1.3397    2.5469 C   0  0  0  0  0  0  0  0  0  0  0  0
    2.5620    0.1463    3.0696 C   0  0  0  0  0  0  0  0  0  0  0  0
    4.0012   -0.3623    2.9912 C   0  0  1  0  0  0  0  0  0  0  0  0
    4.7257   -0.3589    4.3770 C   0  0  0  0  0  0  0  0  0  0  0  0
    4.0915   -1.4063    5.2822 C   0  0  1  0  0  0  0  0  0  0  0  0
    4.3135   -2.6920    4.4944 C   0  0  1  0  0  0  0  0  0  0  0  0
    4.4419   -2.6989    5.9841 C   0  0  0  0  0  0  0  0  0  0  0  0
    5.8078   -2.7700    6.6496 C   0  0  0  0  0  0  0  0  0  0  0  0
    3.4291   -3.4467    6.8261 C   0  0  0  0  0  0  0  0  0  0  0  0
    3.3293   -2.7991    3.2982 C   0  0  1  0  0  0  0  0  0  0  0  0
    3.3790   -4.2468    2.7517 C   0  0  0  0  0  0  0  0  0  0  0  0
    4.5332   -4.8015    2.3097 C   0  0  0  0  0  0  0  0  0  0  0  0
    4.6715   -6.1169    1.9701 O   0  0  0  0  0  0  0  0  0  0  0  0
    3.7482   -7.0190    2.5780 C   0  0  2  0  0  0  0  0  0  0  0  0
    3.6892   -8.3777    1.8518 C   0  0  0  0  0  0  0  0  0  0  0  0
    2.2134   -8.8265    1.9302 C   0  0  1  0  0  0  0  0  0  0  0  0
    1.9640   -9.8477    3.0213 C   0  0  0  0  0  0  0  0  0  0  0  0
    2.8422  -10.2268    4.0872 C   0  0  0  0  0  0  0  0  0  0  0  0
    2.2026  -11.1956    4.7951 C   0  0  0  0  0  0  0  0  0  0  0  0
    0.9829  -11.4520    4.2625 O   0  0  0  0  0  0  0  0  0  0  0  0
    0.8572  -10.6237    3.1959 C   0  0  0  0  0  0  0  0  0  0  0  0
    1.4913   -7.5098    2.1735 C   0  0  0  0  0  0  0  0  0  0  0  0
   -0.0061   -7.4258    1.9175 C   0  0  0  0  0  0  0  0  0  0  0  0
    2.3272   -6.5349    2.5456 C   0  0  0  0  0  0  0  0  0  0  0  0
    2.0690   -5.0518    2.7810 C   0  0  1  0  0  0  0  0  0  0  0  0
    1.3180   -4.7741    4.0901 C   0  0  0  0  0  0  0  0  0  0  0  0
    0.8837   -3.2984    4.1856 C   0  0  0  0  0  0  0  0  0  0  0  0
    1.8321   -2.3256    3.4460 C   0  0  1  0  0  0  0  0  0  0  0  0
    1.4925   -0.7983    3.6224 C   0  0  1  0  0  0  0  0  0  0  0  0
    1.1250   -0.3841    4.9406 O   0  0  0  0  0  0  0  0  0  0  0  0
   -0.1604   -0.3410    5.3524 C   0  0  0  0  0  0  0  0  0  0  0  0
   -0.2858    0.2108    6.7687 C   0  0  0  0  0  0  0  0  0  0  0  0
   -1.1494   -0.7062    4.7172 O   0  0  0  0  0  0  0  0  0  0  0  0
    4.0161   -1.7735    2.3357 C   0  0  1  0  0  0  0  0  0  0  0  0
    3.4169   -1.7469    1.0575 O   0  0  0  0  0  0  0  0  0  0  0  0
    1.2019    1.6909    2.5503 H   0  0  0  0  0  0  0  0  0  0  0  0
    2.9687    1.9905    2.1153 H   0  0  0  0  0  0  0  0  0  0  0  0
    4.5564    0.3179    2.3435 H   0  0  0  0  0  0  0  0  0  0  0  0
    5.7894   -0.5495    4.2569 H   0  0  0  0  0  0  0  0  0  0  0  0
    4.6344    0.6118    4.8633 H   0  0  0  0  0  0  0  0  0  0  0  0
    3.1519   -1.0935    5.6702 H   0  0  0  0  0  0  0  0  0  0  0  0
    5.3029   -2.8912    4.1274 H   0  0  0  0  0  0  0  0  0  0  0  0
    6.1616   -3.8012    6.7108 H   0  0  0  0  0  0  0  0  0  0  0  0
    5.7661   -2.3459    7.6524 H   0  0  0  0  0  0  0  0  0  0  0  0
    6.5340   -2.1910    6.0799 H   0  0  0  0  0  0  0  0  0  0  0  0
    3.6344   -4.5173    6.7992 H   0  0  0  0  0  0  0  0  0  0  0  0
    2.4364   -3.2694    6.4361 H   0  0  0  0  0  0  0  0  0  0  0  0
    3.4501   -3.0959    7.8566 H   0  0  0  0  0  0  0  0  0  0  0  0
    5.4836   -4.2897    2.2861 H   0  0  0  0  0  0  0  0  0  0  0  0
    4.0036   -7.1576    3.6250 H   0  0  0  0  0  0  0  0  0  0  0  0
    3.9338   -8.1997    0.8036 H   0  0  0  0  0  0  0  0  0  0  0  0
    4.4232   -9.1074    2.2103 H   0  0  0  0  0  0  0  0  0  0  0  0
    1.9044   -9.2527    0.9683 H   0  0  0  0  0  0  0  0  0  0  0  0
    3.8307   -9.8561    4.3133 H   0  0  0  0  0  0  0  0  0  0  0  0
    2.4599  -11.7874    5.6682 H   0  0  0  0  0  0  0  0  0  0  0  0
   -0.0829  -10.7179    2.6657 H   0  0  0  0  0  0  0  0  0  0  0  0
   -0.2391   -7.7254    0.8916 H   0  0  0  0  0  0  0  0  0  0  0  0
   -0.3999   -6.4215    2.0780 H   0  0  0  0  0  0  0  0  0  0  0  0
   -0.5418   -8.1101    2.5784 H   0  0  0  0  0  0  0  0  0  0  0  0
    1.4550   -4.7109    1.9496 H   0  0  0  0  0  0  0  0  0  0  0  0
    0.4488   -5.4248    4.1995 H   0  0  0  0  0  0  0  0  0  0  0  0
    1.9792   -5.0125    4.9202 H   0  0  0  0  0  0  0  0  0  0  0  0
   -0.0850   -3.1954    3.7045 H   0  0  0  0  0  0  0  0  0  0  0  0
    0.7035   -3.0262    5.2273 H   0  0  0  0  0  0  0  0  0  0  0  0
    1.4770   -2.4407    2.4200 H   0  0  0  0  0  0  0  0  0  0  0  0
    0.6247   -0.6028    2.9878 H   0  0  0  0  0  0  0  0  0  0  0  0
    0.2390    1.1621    6.8504 H   0  0  0  0  0  0  0  0  0  0  0  0
    0.1455   -0.4820    7.4901 H   0  0  0  0  0  0  0  0  0  0  0  0
   -1.3315    0.3826    7.0235 H   0  0  0  0  0  0  0  0  0  0  0  0
    5.0594   -2.0379    2.1604 H   0  0  0  0  0  0  0  0  0  0  0  0
    3.7479   -0.9974    0.5732 H   0  0  0  0  0  0  0  0  0  0  0  0
  1  2  2  0
  1 36  1  0
  1 37  1  0
  2 29  1  0
  2  3  1  0
  3 34  1  0
  3  4  1  0
  3 38  1  6
  4  5  1  0
  4 39  1  0
  4 40  1  0
  5  7  1  0
  5  6  1  0
  5 41  1  1
  6  7  1  0
  6 10  1  0
  6 42  1  6
  7  8  1  0
  7  9  1  0
  8 43  1  0
  8 44  1  0
  8 45  1  0
  9 46  1  0
  9 47  1  0
  9 48  1  0
 10 28  1  0
 10 11  1  6
 10 34  1  0
 11 25  1  0
 11 12  2  0
 12 13  1  0
 12 49  1  0
 13 14  1  0
 14 24  1  0
 14 15  1  0
 14 50  1  1
 15 16  1  0
 15 51  1  0
 15 52  1  0
 16 17  1  0
 16 22  1  0
 16 53  1  6
 17 21  2  0
 17 18  1  0
 18 19  2  0
 18 54  1  0
 19 20  1  0
 19 55  1  0
 20 21  1  0
 21 56  1  0
 22 23  1  0
 22 24  2  0
 23 57  1  0
 23 58  1  0
 23 59  1  0
 24 25  1  0
 25 26  1  0
 25 60  1  6
 26 27  1  0
 26 61  1  0
 26 62  1  0
 27 28  1  0
 27 63  1  0
 27 64  1  0
 28 29  1  0
 28 65  1  6
 29 30  1  0
 29 66  1  6
 30 31  1  0
 31 32  1  0
 31 33  2  0
 32 67  1  0
 32 68  1  0
 32 69  1  0
 34 35  1  0
 34 70  1  6
 35 71  1  0
M  END
>  <i_m_ct_stereo_status>  (378) 
1

>  <s_m_source_file>  (378) 
/var/tmp/pbs.5076255.sched01/tmp0i_w_vt9/132llf9lao3.sdf

>  <i_m_source_file_index>  (378) 
23

>  <i_lp_mmshare_version>  (378) 
48012

>  <i_f3d_flags>  (378) 
0

>  <s_epik_input>  (378) 
W0NIM11DMShbQ0gzXSlbQ0BIXShbQ0BASF0xW0NAQF0yMzQpW0NIMl1bQ0BASF0oW0NAQEhdNFtPSF0pQyg9W0NIMl0pW0NASF0oT0MoPU8pW0NIM10pW0NAQEhdM1tDSDJdW0NIMl1bQ0BIXTVDMj1bQ0hdT1tDQEhdNkM1PUMoW0NIM10pW0NAQEhdKFtDSDJdNiljN1tjSF1bY0hdb1tjSF03

>  <s_epik_cmdline>  (378) 
J2VwaWtfcHl0aG9uJywgJy1waHQnLCAnMi4wJywgJy1waCcsICc3LjAnLCAnLXRuJywgJzgnLCAnLW1hJywgJzIwMCcsICctaW1hZScsICc8aW5maWxlLm1hZT4nLCAnLW9tYWUnLCAnPG91dGZpbGUubWFlPic=

>  <r_lp_tautomer_probability>  (378) 
1

>  <r_epik_Ionization_Penalty>  (378) 
4.77314e-08

>  <r_epik_Ionization_Penalty_Charging>  (378) 
0

>  <r_epik_Ionization_Penalty_Neutral>  (378) 
4.77314e-08

>  <r_epik_State_Penalty>  (378) 
-0

>  <r_epik_Charging_Adjusted_Penalty>  (378) 
0

>  <i_epik_Tot_Q>  (378) 
0

>  <i_epik_Tot_abs_Q>  (378) 
0

>  <s_epik_Chemistry_Notes>  (378) 
This compound has an ester and may undergo hydrolysis at high or low pH.

>  <s_lp_Force_Field>  (378) 
OPLS3e

>  <r_lp_Energy>  (378) 
85.4929

>  <b_lp_Chiralities_Consistent>  (378) 
1

>  <s_lp_Variant>  (378) 
107:0-1

>  <s_i_glide_gridfile>  (378) 
pfpi4k_grid

>  <i_i_glide_lignum>  (378) 
23

>  <i_i_glide_rotatable_bonds>  (378) 
4

>  <r_i_docking_score>  (378) 
-1.97549

>  <r_i_glide_ligand_efficiency>  (378) 
-0.0564425

>  <r_i_glide_ligand_efficiency_sa>  (378) 
-0.184627

>  <r_i_glide_ligand_efficiency_ln>  (378) 
-0.433664

>  <r_i_glide_gscore>  (378) 
-1.97549

>  <r_i_glide_lipo>  (378) 
-0.368291

>  <r_i_glide_hbond>  (378) 
0

>  <r_i_glide_metal>  (378) 
-0

>  <r_i_glide_rewards>  (378) 
-0.159519

>  <r_i_glide_evdw>  (378) 
-33.133

>  <r_i_glide_ecoul>  (378) 
0.32044

>  <r_i_glide_erotb>  (378) 
0.178304

>  <r_i_glide_esite>  (378) 
-0.0173971

>  <r_i_glide_emodel>  (378) 
-36.186

>  <r_i_glide_energy>  (378) 
-32.8126

>  <r_i_glide_einternal>  (378) 
1.8521

>  <r_i_glide_intrahb_reward>  (378) 
-0

>  <i_i_glide_confnum>  (378) 
2

>  <i_i_glide_posenum>  (378) 
27

>  <r_i_glide_eff_state_penalty>  (378) 
0

>  <ligand_id>  (378) 
107

>  <original_smiles>  (378) 
C=C1C2CC3C(C3(C)C)C3(C4=COC5CC(c6ccoc6)C(C)=C5C4CCC3C1OC(C)=O)C2O

>  <smiles>  (378) 
[H]OC1([H])C2([H])C(=C([H])[H])C([H])(OC(=O)C([H])([H])[H])C3([H])C([H])([H])C([H])([H])C4([H])C5=C(C([H])([H])[H])C([H])(c6c([H])oc([H])c6[H])C([H])([H])C5([H])OC([H])=C4C13C1([H])C([H])(C2([H])[H])C1(C([H])([H])[H])C([H])([H])[H]

$$$$
108:0:0
     RDKit          3D

118125  0  0  1  0  0  0  0  0999 V2000
    1.6650  -10.1207    2.5540 C   0  0  0  0  0  0  0  0  0  0  0  0
    1.9129   -9.3644    3.6347 C   0  0  0  0  0  0  0  0  0  0  0  0
    0.8377   -8.5090    4.3041 C   0  0  1  0  0  0  0  0  0  0  0  0
    0.4530   -9.1384    5.6663 C   0  0  0  0  0  0  0  0  0  0  0  0
    1.6082   -9.3772    6.6527 C   0  0  0  0  0  0  0  0  0  0  0  0
    2.7910   -8.3607    6.6203 C   0  0  1  0  0  0  0  0  0  0  0  0
    3.9987   -8.7807    7.5091 C   0  0  1  0  0  0  0  0  0  0  0  0
    3.8007  -10.0096    8.1765 O   0  0  0  0  0  0  0  0  0  0  0  0
    5.1145   -8.8169    6.6837 O   0  0  0  0  0  0  0  0  0  0  0  0
    4.9282   -7.9020    5.6156 C   0  0  0  0  0  0  0  0  0  0  0  0
    3.4406   -8.0522    5.2382 C   0  0  1  0  0  0  0  0  0  0  0  0
    3.3100   -9.2485    4.2309 C   0  0  1  0  0  0  0  0  0  0  0  0
    3.7518  -10.4978    4.7337 O   0  0  0  0  0  0  0  0  0  0  0  0
    2.7945   -6.8159    4.4823 C   0  0  2  0  0  0  0  0  0  0  0  0
    3.2306   -5.3467    4.8179 C   0  0  1  0  0  0  0  0  0  0  0  0
    3.1701   -4.5473    3.6355 O   0  0  0  0  0  0  0  0  0  0  0  0
    4.4136   -4.1223    3.0902 C   0  0  0  0  0  0  0  0  0  0  0  0
    4.1330   -3.1403    1.9475 C   0  0  0  0  0  0  0  0  0  0  0  0
    3.8184   -1.8701    2.4928 O   0  0  0  0  0  0  0  0  0  0  0  0
    3.3902   -0.9379    1.5151 C   0  0  0  0  0  0  0  0  0  0  0  0
    3.2624    0.4478    2.1689 C   0  0  0  0  0  0  0  0  0  0  0  0
    2.0986    0.5464    2.9760 O   0  0  0  0  0  0  0  0  0  0  0  0
    0.8912    0.6997    2.2416 C   0  0  0  0  0  0  0  0  0  0  0  0
   -0.2365    0.9473    3.2396 C   0  0  0  0  0  0  0  0  0  0  0  0
   -0.6181   -0.2687    3.8905 O   0  0  0  0  0  0  0  0  0  0  0  0
   -1.4620   -0.2729    4.9443 C   0  0  0  0  0  0  0  0  0  0  0  0
   -2.0327   -1.2738    5.3621 O   0  0  0  0  0  0  0  0  0  0  0  0
   -1.6645    1.0909    5.6172 C   0  0  0  0  0  0  0  0  0  0  0  0
   -2.2861    0.9423    6.8835 O   0  0  0  0  0  0  0  0  0  0  0  0
   -2.4987    2.2117    7.4801 C   0  0  0  0  0  0  0  0  0  0  0  0
    2.4398   -4.6273    5.9582 C   0  0  1  0  0  0  0  0  0  0  0  0
    3.2528   -3.3207    6.4501 C   0  0  1  0  0  0  0  0  0  0  0  0
    2.8457   -2.1225    5.8329 O   0  0  0  0  0  0  0  0  0  0  0  0
    3.7930   -3.1581    7.9592 C   0  0  1  0  0  0  0  0  0  0  0  0
    5.0619   -2.5332    7.9666 O   0  0  0  0  0  0  0  0  0  0  0  0
    2.8870   -2.6946    9.2199 C   0  0  1  0  0  0  0  0  0  0  0  0
    2.5857   -1.1725    9.1885 C   0  0  0  0  0  0  0  0  0  0  0  0
    1.8618   -0.6847   10.4697 C   0  0  0  0  0  0  0  0  0  0  0  0
    3.7309   -0.1802    8.9096 C   0  0  0  0  0  0  0  0  0  0  0  0
    1.7690   -1.1589    8.0373 O   0  0  0  0  0  0  0  0  0  0  0  0
    0.9372   -2.2933    8.1306 C   0  0  1  0  0  0  0  0  0  0  0  0
   -0.0211   -2.5932    7.0142 C   0  0  0  0  0  0  0  0  0  0  0  0
   -0.1582   -4.0928    6.8691 C   0  0  2  0  0  0  0  0  0  0  0  0
   -0.3210   -4.7179    8.3576 C   0  0  1  0  0  0  0  0  0  0  0  0
    0.7701   -5.6755    8.5094 C   0  0  0  0  0  0  0  0  0  0  0  0
    1.8270   -4.9778    8.8979 C   0  0  0  0  0  0  0  0  0  0  0  0
    2.9617   -5.7093    9.6131 C   0  0  0  0  0  0  0  0  0  0  0  0
    1.5288   -3.4449    9.0514 C   0  0  1  0  0  0  0  0  0  0  0  0
    0.1281   -3.8392    9.6448 C   0  0  1  0  0  0  0  0  0  0  0  0
   -0.8784   -2.9459   10.1084 O   0  0  0  0  0  0  0  0  0  0  0  0
    0.8370   -4.6433    5.6897 C   0  0  1  0  0  0  0  0  0  0  0  0
    0.5175   -3.8058    4.4058 C   0  0  0  0  0  0  0  0  0  0  0  0
    0.4161   -6.1345    5.3493 C   0  0  1  0  0  0  0  0  0  0  0  0
   -0.9658   -6.2613    5.0292 O   0  0  0  0  0  0  0  0  0  0  0  0
    1.2467   -6.9829    4.3133 C   0  0  2  0  0  0  0  0  0  0  0  0
    0.9315   -6.5909    2.9828 O   0  0  0  0  0  0  0  0  0  0  0  0
    2.4620  -10.6861    2.0907 H   0  0  0  0  0  0  0  0  0  0  0  0
    0.6810  -10.1811    2.1127 H   0  0  0  0  0  0  0  0  0  0  0  0
   -0.0709   -8.6166    3.7040 H   0  0  0  0  0  0  0  0  0  0  0  0
   -0.3499   -8.5924    6.1505 H   0  0  0  0  0  0  0  0  0  0  0  0
    0.0051  -10.1128    5.4680 H   0  0  0  0  0  0  0  0  0  0  0  0
    1.1983   -9.4077    7.6638 H   0  0  0  0  0  0  0  0  0  0  0  0
    1.9693  -10.3860    6.4732 H   0  0  0  0  0  0  0  0  0  0  0  0
    2.4355   -7.4301    7.0578 H   0  0  0  0  0  0  0  0  0  0  0  0
    4.1824   -8.0449    8.2863 H   0  0  0  0  0  0  0  0  0  0  0  0
    3.4935  -10.6416    7.5499 H   0  0  0  0  0  0  0  0  0  0  0  0
    5.1983   -6.9242    6.0036 H   0  0  0  0  0  0  0  0  0  0  0  0
    5.6031   -8.1326    4.7889 H   0  0  0  0  0  0  0  0  0  0  0  0
    3.9655   -9.0471    3.3854 H   0  0  0  0  0  0  0  0  0  0  0  0
    3.1060  -10.8153    5.3453 H   0  0  0  0  0  0  0  0  0  0  0  0
    3.2298   -6.9168    3.4887 H   0  0  0  0  0  0  0  0  0  0  0  0
    4.2743   -5.3692    5.1174 H   0  0  0  0  0  0  0  0  0  0  0  0
    5.0447   -3.6399    3.8372 H   0  0  0  0  0  0  0  0  0  0  0  0
    4.9545   -4.9936    2.7187 H   0  0  0  0  0  0  0  0  0  0  0  0
    5.0243   -3.0337    1.3289 H   0  0  0  0  0  0  0  0  0  0  0  0
    3.3299   -3.5149    1.3109 H   0  0  0  0  0  0  0  0  0  0  0  0
    4.1320   -0.8783    0.7189 H   0  0  0  0  0  0  0  0  0  0  0  0
    2.4614   -1.2781    1.0562 H   0  0  0  0  0  0  0  0  0  0  0  0
    4.1401    0.6370    2.7903 H   0  0  0  0  0  0  0  0  0  0  0  0
    3.2500    1.2326    1.4115 H   0  0  0  0  0  0  0  0  0  0  0  0
    0.9758    1.5763    1.5965 H   0  0  0  0  0  0  0  0  0  0  0  0
    0.6762   -0.1717    1.6144 H   0  0  0  0  0  0  0  0  0  0  0  0
    0.0947    1.7276    3.9345 H   0  0  0  0  0  0  0  0  0  0  0  0
   -1.1095    1.3142    2.6938 H   0  0  0  0  0  0  0  0  0  0  0  0
   -0.7087    1.6008    5.7568 H   0  0  0  0  0  0  0  0  0  0  0  0
   -2.2756    1.7262    4.9745 H   0  0  0  0  0  0  0  0  0  0  0  0
   -2.9855    2.0962    8.4497 H   0  0  0  0  0  0  0  0  0  0  0  0
   -3.1404    2.8221    6.8470 H   0  0  0  0  0  0  0  0  0  0  0  0
   -1.5596    2.7420    7.6368 H   0  0  0  0  0  0  0  0  0  0  0  0
    2.6450   -5.3599    6.7122 H   0  0  0  0  0  0  0  0  0  0  0  0
    4.1995   -3.4254    5.9301 H   0  0  0  0  0  0  0  0  0  0  0  0
    2.1046   -1.7752    6.3113 H   0  0  0  0  0  0  0  0  0  0  0  0
    4.1688   -4.1430    8.1692 H   0  0  0  0  0  0  0  0  0  0  0  0
    5.5960   -2.9385    7.3034 H   0  0  0  0  0  0  0  0  0  0  0  0
    3.3905   -2.9353   10.1571 H   0  0  0  0  0  0  0  0  0  0  0  0
    2.5755   -0.5779   11.2881 H   0  0  0  0  0  0  0  0  0  0  0  0
    1.0925   -1.3694   10.8217 H   0  0  0  0  0  0  0  0  0  0  0  0
    1.3895    0.2878   10.3138 H   0  0  0  0  0  0  0  0  0  0  0  0
    4.5723   -0.3551    9.5798 H   0  0  0  0  0  0  0  0  0  0  0  0
    3.4029    0.8504    9.0543 H   0  0  0  0  0  0  0  0  0  0  0  0
    4.0842   -0.2392    7.8799 H   0  0  0  0  0  0  0  0  0  0  0  0
    0.2923   -1.6571    8.7153 H   0  0  0  0  0  0  0  0  0  0  0  0
   -1.0068   -2.1889    7.1987 H   0  0  0  0  0  0  0  0  0  0  0  0
    0.2861   -2.0540    6.1337 H   0  0  0  0  0  0  0  0  0  0  0  0
   -1.1562   -4.2002    6.4455 H   0  0  0  0  0  0  0  0  0  0  0  0
   -1.2862   -5.1994    8.5111 H   0  0  0  0  0  0  0  0  0  0  0  0
    0.6486   -6.7488    8.5086 H   0  0  0  0  0  0  0  0  0  0  0  0
    3.3505   -5.1208   10.4427 H   0  0  0  0  0  0  0  0  0  0  0  0
    3.7712   -5.9821    8.9384 H   0  0  0  0  0  0  0  0  0  0  0  0
    2.5791   -6.6403   10.0349 H   0  0  0  0  0  0  0  0  0  0  0  0
    0.2436   -4.4630   10.5392 H   0  0  0  0  0  0  0  0  0  0  0  0
   -0.6128   -2.6001   10.9525 H   0  0  0  0  0  0  0  0  0  0  0  0
   -0.5454   -3.5829    4.3401 H   0  0  0  0  0  0  0  0  0  0  0  0
    0.7845   -4.2922    3.4761 H   0  0  0  0  0  0  0  0  0  0  0  0
    1.0366   -2.8533    4.3485 H   0  0  0  0  0  0  0  0  0  0  0  0
    0.5198   -6.6642    6.2804 H   0  0  0  0  0  0  0  0  0  0  0  0
   -1.1708   -7.1841    4.9538 H   0  0  0  0  0  0  0  0  0  0  0  0
    1.3782   -7.1847    2.3977 H   0  0  0  0  0  0  0  0  0  0  0  0
  1  2  2  0
  1 57  1  0
  1 58  1  0
  2 12  1  0
  2  3  1  0
  3 55  1  0
  3  4  1  0
  3 59  1  6
  4  5  1  0
  4 60  1  0
  4 61  1  0
  5  6  1  0
  5 62  1  0
  5 63  1  0
  6 11  1  0
  6  7  1  0
  6 64  1  1
  7  8  1  0
  7  9  1  0
  7 65  1  1
  8 66  1  0
  9 10  1  0
 11 10  1  1
 10 67  1  0
 10 68  1  0
 11 12  1  0
 11 14  1  0
 12 13  1  0
 12 69  1  6
 13 70  1  0
 14 55  1  0
 14 15  1  0
 14 71  1  6
 15 16  1  0
 15 31  1  0
 15 72  1  1
 16 17  1  0
 17 18  1  0
 17 73  1  0
 17 74  1  0
 18 19  1  0
 18 75  1  0
 18 76  1  0
 19 20  1  0
 20 21  1  0
 20 77  1  0
 20 78  1  0
 21 22  1  0
 21 79  1  0
 21 80  1  0
 22 23  1  0
 23 24  1  0
 23 81  1  0
 23 82  1  0
 24 25  1  0
 24 83  1  0
 24 84  1  0
 25 26  1  0
 26 27  2  0
 26 28  1  0
 28 29  1  0
 28 85  1  0
 28 86  1  0
 29 30  1  0
 30 87  1  0
 30 88  1  0
 30 89  1  0
 31 51  1  0
 31 32  1  0
 31 90  1  1
 32 33  1  0
 32 34  1  0
 32 91  1  6
 33 92  1  0
 34 35  1  0
 34 36  1  0
 34 93  1  1
 35 94  1  0
 36 48  1  0
 36 37  1  0
 36 95  1  1
 37 38  1  0
 37 39  1  0
 37 40  1  0
 38 96  1  0
 38 97  1  0
 38 98  1  0
 39 99  1  0
 39100  1  0
 39101  1  0
 40 41  1  0
 41 48  1  0
 41 42  1  0
 41102  1  1
 42 43  1  0
 42103  1  0
 42104  1  0
 43 44  1  0
 43 51  1  0
 43105  1  6
 44 49  1  0
 44 45  1  0
 44106  1  1
 45 46  2  0
 45107  1  0
 46 47  1  0
 48 46  1  6
 47108  1  0
 47109  1  0
 47110  1  0
 48 49  1  0
 49 50  1  0
 49111  1  1
 50112  1  0
 51 52  1  6
 51 53  1  0
 52113  1  0
 52114  1  0
 52115  1  0
 53 54  1  0
 53 55  1  0
 53116  1  1
 54117  1  0
 55 56  1  6
 56118  1  0
M  END
>  <i_m_ct_stereo_status>  (379) 
1

>  <s_m_source_file>  (379) 
/var/tmp/pbs.5076255.sched01/tmp0i_w_vt9/132llf9lao3.sdf

>  <i_m_source_file_index>  (379) 
24

>  <i_lp_mmshare_version>  (379) 
48012

>  <i_f3d_flags>  (379) 
0

>  <s_epik_input>  (379) 
W0NIMl0xW0NAQEhdMk9DKFtDSDNdKShbQ0gzXSlbQ0BIXShbQ0BIXShbT0hdKVtDQEBIXTNbT0hdKUMyKFtDQEhdNFtPSF0pQyhbQ0gzXSk9W0NIXVtDQEBIXTRbQ0BASF0xW0NAXShbQ0gzXSkoW0NASF01W09IXSlbQ0BIXTNbQ0BASF0oW0NAQEhdNltDQEBdNShbT0hdKVtDQEBIXShDKD1bQ0gyXSlbQ0BASF03W09IXSlbQ0gyXVtDSDJdW0NASF0oW0NAXTY3OClbQ0BASF0oW09IXSlPW0NIMl04KU9bQ0gyXVtDSDJdT1tDSDJdW0NIMl1PW0NIMl1bQ0gyXU9DKD1PKVtDSDJdT1tDSDNd

>  <s_epik_cmdline>  (379) 
J2VwaWtfcHl0aG9uJywgJy1waHQnLCAnMi4wJywgJy1waCcsICc3LjAnLCAnLXRuJywgJzgnLCAnLW1hJywgJzIwMCcsICctaW1hZScsICc8aW5maWxlLm1hZT4nLCAnLW9tYWUnLCAnPG91dGZpbGUubWFlPic=

>  <r_lp_tautomer_probability>  (379) 
1

>  <r_epik_Ionization_Penalty>  (379) 
5.83094e-07

>  <r_epik_Ionization_Penalty_Charging>  (379) 
0

>  <r_epik_Ionization_Penalty_Neutral>  (379) 
5.83094e-07

>  <r_epik_State_Penalty>  (379) 
-0

>  <r_epik_Charging_Adjusted_Penalty>  (379) 
0

>  <i_epik_Tot_Q>  (379) 
0

>  <i_epik_Tot_abs_Q>  (379) 
0

>  <s_epik_Chemistry_Notes>  (379) 
This compound has an ester and may undergo hydrolysis at high or low pH. This compound contains an acetal/aminal-like group ( X-CH(R)-Y where X, Y are N, S, or O) that may be acid/base labile, releasing an aldehyde.

>  <s_lp_Force_Field>  (379) 
OPLS3e

>  <r_lp_Energy>  (379) 
257.33

>  <b_lp_Chiralities_Consistent>  (379) 
1

>  <s_lp_Variant>  (379) 
108:0-1

>  <s_i_glide_gridfile>  (379) 
pfpi4k_grid

>  <i_i_glide_lignum>  (379) 
24

>  <i_i_glide_rotatable_bonds>  (379) 
20

>  <r_i_docking_score>  (379) 
-3.40606

>  <r_i_glide_ligand_efficiency>  (379) 
-0.0608226

>  <r_i_glide_ligand_efficiency_sa>  (379) 
-0.232699

>  <r_i_glide_ligand_efficiency_ln>  (379) 
-0.677776

>  <r_i_glide_gscore>  (379) 
-3.40606

>  <r_i_glide_lipo>  (379) 
-0.208047

>  <r_i_glide_hbond>  (379) 
-0.32

>  <r_i_glide_metal>  (379) 
-0

>  <r_i_glide_rewards>  (379) 
0

>  <r_i_glide_evdw>  (379) 
-30.435

>  <r_i_glide_ecoul>  (379) 
-10.0932

>  <r_i_glide_erotb>  (379) 
0.210134

>  <r_i_glide_esite>  (379) 
-0.0524239

>  <r_i_glide_emodel>  (379) 
-45.8241

>  <r_i_glide_energy>  (379) 
-40.5282

>  <r_i_glide_einternal>  (379) 
9.2191

>  <r_i_glide_intrahb_reward>  (379) 
-0

>  <i_i_glide_confnum>  (379) 
10

>  <i_i_glide_posenum>  (379) 
26

>  <r_i_glide_eff_state_penalty>  (379) 
0

>  <ligand_id>  (379) 
108

>  <original_smiles>  (379) 
C=C1C2CCC3C(O)OCC3(C1O)C1C(OCCOCCOCCOC(=O)COC)C3C(O)C(O)C4C(C)(C)OC5CC(C6C=C(C)C54C6O)C3(C)C(O)C21O

>  <smiles>  (379) 
[H]OC1([H])OC([H])([H])C23C([H])(O[H])C(=C([H])[H])C([H])(C([H])([H])C([H])([H])C12[H])C1(O[H])C([H])(O[H])C2(C([H])([H])[H])C([H])(C([H])(O[H])C([H])(O[H])C4([H])C(C([H])([H])[H])(C([H])([H])[H])OC5([H])C([H])([H])C2([H])C2([H])C([H])=C(C([H])([H])[H])C54C2([H])O[H])C([H])(OC([H])([H])C([H])([H])OC([H])([H])C([H])([H])OC([H])([H])C([H])([H])OC(=O)C([H])([H])OC([H])([H])[H])C13[H]

$$$$
108:0:1
     RDKit          3D

118125  0  0  1  0  0  0  0  0999 V2000
   -1.9070    4.1918    3.1323 C   0  0  0  0  0  0  0  0  0  0  0  0
   -1.2389    3.5973    4.1287 C   0  0  0  0  0  0  0  0  0  0  0  0
    0.2614    3.7803    4.3396 C   0  0  1  0  0  0  0  0  0  0  0  0
    0.5006    4.6561    5.5927 C   0  0  0  0  0  0  0  0  0  0  0  0
   -0.1547    4.1710    6.8994 C   0  0  0  0  0  0  0  0  0  0  0  0
   -0.2793    2.6247    7.0840 C   0  0  1  0  0  0  0  0  0  0  0  0
   -1.1187    2.2236    8.3404 C   0  0  1  0  0  0  0  0  0  0  0  0
   -1.6511    3.3251    9.0361 O   0  0  0  0  0  0  0  0  0  0  0  0
   -2.1336    1.3878    7.8832 O   0  0  0  0  0  0  0  0  0  0  0  0
   -1.7030    0.7414    6.7010 C   0  0  0  0  0  0  0  0  0  0  0  0
   -0.9094    1.8010    5.9228 C   0  0  1  0  0  0  0  0  0  0  0  0
   -1.9272    2.6440    5.0834 C   0  0  1  0  0  0  0  0  0  0  0  0
   -2.9081    3.3205    5.8467 O   0  0  0  0  0  0  0  0  0  0  0  0
    0.1500    1.2421    4.8832 C   0  0  2  0  0  0  0  0  0  0  0  0
    0.9434   -0.0919    5.1668 C   0  0  1  0  0  0  0  0  0  0  0  0
    1.1592   -0.7910    3.9427 O   0  0  0  0  0  0  0  0  0  0  0  0
    0.7387   -2.1474    3.8556 C   0  0  0  0  0  0  0  0  0  0  0  0
    1.4982   -2.7957    2.6987 C   0  0  0  0  0  0  0  0  0  0  0  0
    2.8665   -2.9289    3.0448 O   0  0  0  0  0  0  0  0  0  0  0  0
    3.6455   -3.5344    2.0221 C   0  0  0  0  0  0  0  0  0  0  0  0
    5.0587   -3.8114    2.5538 C   0  0  0  0  0  0  0  0  0  0  0  0
    5.6873   -4.7392    1.6892 O   0  0  0  0  0  0  0  0  0  0  0  0
    6.9132   -5.2665    2.1695 C   0  0  0  0  0  0  0  0  0  0  0  0
    7.2562   -6.5452    1.3868 C   0  0  0  0  0  0  0  0  0  0  0  0
    6.4501   -7.6426    1.8088 O   0  0  0  0  0  0  0  0  0  0  0  0
    5.1781   -7.7882    1.3778 C   0  0  0  0  0  0  0  0  0  0  0  0
    4.6016   -7.0663    0.5499 O   0  0  0  0  0  0  0  0  0  0  0  0
    4.4750   -8.9765    2.0190 C   0  0  0  0  0  0  0  0  0  0  0  0
    3.0725   -8.8454    1.8631 O   0  0  0  0  0  0  0  0  0  0  0  0
    2.3703   -9.8978    2.4965 C   0  0  0  0  0  0  0  0  0  0  0  0
    2.2977    0.0656    5.9265 C   0  0  1  0  0  0  0  0  0  0  0  0
    2.7855   -1.3575    6.5006 C   0  0  1  0  0  0  0  0  0  0  0  0
    3.6471   -2.0758    5.6489 O   0  0  0  0  0  0  0  0  0  0  0  0
    2.9745   -1.6620    8.0654 C   0  0  1  0  0  0  0  0  0  0  0  0
    2.5396   -2.9687    8.3632 O   0  0  0  0  0  0  0  0  0  0  0  0
    4.2687   -1.2436    8.9334 C   0  0  1  0  0  0  0  0  0  0  0  0
    5.4853   -2.1561    8.6314 C   0  0  0  0  0  0  0  0  0  0  0  0
    6.6703   -1.8720    9.5818 C   0  0  0  0  0  0  0  0  0  0  0  0
    5.2857   -3.6856    8.5948 C   0  0  0  0  0  0  0  0  0  0  0  0
    5.7476   -1.7615    7.3015 O   0  0  0  0  0  0  0  0  0  0  0  0
    5.5368   -0.3686    7.2521 C   0  0  1  0  0  0  0  0  0  0  0  0
    5.6585    0.3565    5.9361 C   0  0  0  0  0  0  0  0  0  0  0  0
    4.6854    1.5270    5.9491 C   0  0  2  0  0  0  0  0  0  0  0  0
    4.8127    2.2730    7.3850 C   0  0  1  0  0  0  0  0  0  0  0  0
    3.4723    2.2489    7.9514 C   0  0  0  0  0  0  0  0  0  0  0  0
    3.3430    1.0732    8.5534 C   0  0  0  0  0  0  0  0  0  0  0  0
    2.2977    0.9446    9.6579 C   0  0  0  0  0  0  0  0  0  0  0  0
    4.6344    0.1836    8.4366 C   0  0  1  0  0  0  0  0  0  0  0  0
    5.4795    1.4867    8.6325 C   0  0  1  0  0  0  0  0  0  0  0  0
    6.8962    1.5757    8.6979 O   0  0  0  0  0  0  0  0  0  0  0  0
    3.2893    1.1214    5.1957 C   0  0  1  0  0  0  0  0  0  0  0  0
    3.6814    0.5740    3.7824 C   0  0  0  0  0  0  0  0  0  0  0  0
    2.4658    2.4536    4.9232 C   0  0  1  0  0  0  0  0  0  0  0  0
    3.2374    3.4152    4.2231 O   0  0  0  0  0  0  0  0  0  0  0  0
    1.0239    2.3937    4.2851 C   0  0  2  0  0  0  0  0  0  0  0  0
    1.1163    2.1357    2.8913 O   0  0  0  0  0  0  0  0  0  0  0  0
   -2.9607    4.0072    2.9783 H   0  0  0  0  0  0  0  0  0  0  0  0
   -1.3945    4.8378    2.4375 H   0  0  0  0  0  0  0  0  0  0  0  0
    0.6253    4.3948    3.5138 H   0  0  0  0  0  0  0  0  0  0  0  0
    1.5611    4.8462    5.7411 H   0  0  0  0  0  0  0  0  0  0  0  0
    0.1001    5.6489    5.3798 H   0  0  0  0  0  0  0  0  0  0  0  0
    0.4119    4.5815    7.7383 H   0  0  0  0  0  0  0  0  0  0  0  0
   -1.1301    4.6488    6.9727 H   0  0  0  0  0  0  0  0  0  0  0  0
    0.7181    2.2461    7.2853 H   0  0  0  0  0  0  0  0  0  0  0  0
   -0.5017    1.6737    9.0560 H   0  0  0  0  0  0  0  0  0  0  0  0
   -1.9721    3.0102    9.8763 H   0  0  0  0  0  0  0  0  0  0  0  0
   -1.0898   -0.0874    7.0374 H   0  0  0  0  0  0  0  0  0  0  0  0
   -2.5528    0.3435    6.1441 H   0  0  0  0  0  0  0  0  0  0  0  0
   -2.4802    1.9619    4.4391 H   0  0  0  0  0  0  0  0  0  0  0  0
   -2.4803    3.6712    6.6213 H   0  0  0  0  0  0  0  0  0  0  0  0
   -0.5015    0.9080    4.0774 H   0  0  0  0  0  0  0  0  0  0  0  0
    0.2958   -0.7400    5.7476 H   0  0  0  0  0  0  0  0  0  0  0  0
    0.9374   -2.7382    4.7494 H   0  0  0  0  0  0  0  0  0  0  0  0
   -0.3381   -2.1696    3.6853 H   0  0  0  0  0  0  0  0  0  0  0  0
    1.0937   -3.7951    2.5507 H   0  0  0  0  0  0  0  0  0  0  0  0
    1.3852   -2.2312    1.7691 H   0  0  0  0  0  0  0  0  0  0  0  0
    3.1838   -4.4764    1.7192 H   0  0  0  0  0  0  0  0  0  0  0  0
    3.6777   -2.8982    1.1373 H   0  0  0  0  0  0  0  0  0  0  0  0
    5.6417   -2.8952    2.6372 H   0  0  0  0  0  0  0  0  0  0  0  0
    4.9810   -4.2481    3.5483 H   0  0  0  0  0  0  0  0  0  0  0  0
    7.6852   -4.5183    2.0013 H   0  0  0  0  0  0  0  0  0  0  0  0
    6.8933   -5.4828    3.2394 H   0  0  0  0  0  0  0  0  0  0  0  0
    7.2011   -6.3798    0.3108 H   0  0  0  0  0  0  0  0  0  0  0  0
    8.2931   -6.8113    1.5933 H   0  0  0  0  0  0  0  0  0  0  0  0
    4.8240   -9.8910    1.5372 H   0  0  0  0  0  0  0  0  0  0  0  0
    4.7400   -9.0331    3.0777 H   0  0  0  0  0  0  0  0  0  0  0  0
    1.2984   -9.7562    2.3560 H   0  0  0  0  0  0  0  0  0  0  0  0
    2.5775   -9.9082    3.5674 H   0  0  0  0  0  0  0  0  0  0  0  0
    2.6496  -10.8666    2.0816 H   0  0  0  0  0  0  0  0  0  0  0  0
    1.8813    0.5569    6.7801 H   0  0  0  0  0  0  0  0  0  0  0  0
    1.8897   -1.9467    6.3726 H   0  0  0  0  0  0  0  0  0  0  0  0
    3.3175   -2.0328    4.7562 H   0  0  0  0  0  0  0  0  0  0  0  0
    2.1184   -1.1821    8.4974 H   0  0  0  0  0  0  0  0  0  0  0  0
    3.1849   -3.5690    8.0079 H   0  0  0  0  0  0  0  0  0  0  0  0
    4.0371   -1.2821   10.0018 H   0  0  0  0  0  0  0  0  0  0  0  0
    6.4929   -2.3309   10.5559 H   0  0  0  0  0  0  0  0  0  0  0  0
    6.8306   -0.8101    9.7615 H   0  0  0  0  0  0  0  0  0  0  0  0
    7.5963   -2.2852    9.1803 H   0  0  0  0  0  0  0  0  0  0  0  0
    4.7914   -4.0475    9.4973 H   0  0  0  0  0  0  0  0  0  0  0  0
    6.2430   -4.1987    8.5217 H   0  0  0  0  0  0  0  0  0  0  0  0
    4.7195   -4.0097    7.7225 H   0  0  0  0  0  0  0  0  0  0  0  0
    6.5791   -0.2962    7.5260 H   0  0  0  0  0  0  0  0  0  0  0  0
    6.6702    0.7511    5.7989 H   0  0  0  0  0  0  0  0  0  0  0  0
    5.5368   -0.3568    5.1329 H   0  0  0  0  0  0  0  0  0  0  0  0
    5.1544    2.2427    5.2772 H   0  0  0  0  0  0  0  0  0  0  0  0
    5.1737    3.2996    7.3058 H   0  0  0  0  0  0  0  0  0  0  0  0
    2.8343    3.1132    8.0632 H   0  0  0  0  0  0  0  0  0  0  0  0
    2.6635    0.3585   10.4990 H   0  0  0  0  0  0  0  0  0  0  0  0
    1.3599    0.5185    9.3036 H   0  0  0  0  0  0  0  0  0  0  0  0
    2.0480    1.9300   10.0564 H   0  0  0  0  0  0  0  0  0  0  0  0
    5.2208    1.9607    9.5875 H   0  0  0  0  0  0  0  0  0  0  0  0
    7.2681    1.2579    7.8839 H   0  0  0  0  0  0  0  0  0  0  0  0
    4.5064    1.1317    3.3464 H   0  0  0  0  0  0  0  0  0  0  0  0
    2.8870    0.6154    3.0493 H   0  0  0  0  0  0  0  0  0  0  0  0
    3.9711   -0.4737    3.7733 H   0  0  0  0  0  0  0  0  0  0  0  0
    2.3165    2.8816    5.8997 H   0  0  0  0  0  0  0  0  0  0  0  0
    3.4470    3.0656    3.3621 H   0  0  0  0  0  0  0  0  0  0  0  0
    1.0139    2.9518    2.4122 H   0  0  0  0  0  0  0  0  0  0  0  0
  1  2  2  0
  1 57  1  0
  1 58  1  0
  2 12  1  0
  2  3  1  0
  3 55  1  0
  3  4  1  0
  3 59  1  6
  4  5  1  0
  4 60  1  0
  4 61  1  0
  5  6  1  0
  5 62  1  0
  5 63  1  0
  6 11  1  0
  6  7  1  0
  6 64  1  1
  7  8  1  0
  7  9  1  0
  7 65  1  1
  8 66  1  0
  9 10  1  0
 11 10  1  1
 10 67  1  0
 10 68  1  0
 11 12  1  0
 11 14  1  0
 12 13  1  0
 12 69  1  6
 13 70  1  0
 14 55  1  0
 14 15  1  0
 14 71  1  6
 15 16  1  0
 15 31  1  0
 15 72  1  1
 16 17  1  0
 17 18  1  0
 17 73  1  0
 17 74  1  0
 18 19  1  0
 18 75  1  0
 18 76  1  0
 19 20  1  0
 20 21  1  0
 20 77  1  0
 20 78  1  0
 21 22  1  0
 21 79  1  0
 21 80  1  0
 22 23  1  0
 23 24  1  0
 23 81  1  0
 23 82  1  0
 24 25  1  0
 24 83  1  0
 24 84  1  0
 25 26  1  0
 26 27  2  0
 26 28  1  0
 28 29  1  0
 28 85  1  0
 28 86  1  0
 29 30  1  0
 30 87  1  0
 30 88  1  0
 30 89  1  0
 31 51  1  0
 31 32  1  0
 31 90  1  1
 32 33  1  0
 32 34  1  0
 32 91  1  6
 33 92  1  0
 34 35  1  0
 34 36  1  0
 34 93  1  1
 35 94  1  0
 36 48  1  0
 36 37  1  0
 36 95  1  1
 37 38  1  0
 37 39  1  0
 37 40  1  0
 38 96  1  0
 38 97  1  0
 38 98  1  0
 39 99  1  0
 39100  1  0
 39101  1  0
 40 41  1  0
 41 48  1  0
 41 42  1  0
 41102  1  1
 42 43  1  0
 42103  1  0
 42104  1  0
 43 44  1  0
 43 51  1  0
 43105  1  6
 44 49  1  0
 44 45  1  0
 44106  1  6
 45 46  2  0
 45107  1  0
 46 47  1  0
 48 46  1  6
 47108  1  0
 47109  1  0
 47110  1  0
 48 49  1  0
 49 50  1  0
 49111  1  1
 50112  1  0
 51 52  1  6
 51 53  1  0
 52113  1  0
 52114  1  0
 52115  1  0
 53 54  1  0
 53 55  1  0
 53116  1  1
 54117  1  0
 55 56  1  6
 56118  1  0
M  END
>  <i_m_ct_stereo_status>  (380) 
1

>  <s_m_source_file>  (380) 
/var/tmp/pbs.5076255.sched01/tmp0i_w_vt9/132llf9lao3.sdf

>  <i_m_source_file_index>  (380) 
24

>  <i_lp_mmshare_version>  (380) 
48012

>  <i_f3d_flags>  (380) 
0

>  <s_epik_input>  (380) 
W0NIMl0xW0NAQEhdMk9DKFtDSDNdKShbQ0gzXSlbQ0BIXShbQ0BIXShbT0hdKVtDQEBIXTNbT0hdKUMyKFtDQEhdNFtPSF0pQyhbQ0gzXSk9W0NIXVtDQEBIXTRbQ0BASF0xW0NAXShbQ0gzXSkoW0NASF01W09IXSlbQ0BIXTNbQ0BASF0oW0NAQEhdNltDQEBdNShbT0hdKVtDQEBIXShDKD1bQ0gyXSlbQ0BASF03W09IXSlbQ0gyXVtDSDJdW0NASF0oW0NAXTY3OClbQ0BASF0oW09IXSlPW0NIMl04KU9bQ0gyXVtDSDJdT1tDSDJdW0NIMl1PW0NIMl1bQ0gyXU9DKD1PKVtDSDJdT1tDSDNd

>  <s_epik_cmdline>  (380) 
J2VwaWtfcHl0aG9uJywgJy1waHQnLCAnMi4wJywgJy1waCcsICc3LjAnLCAnLXRuJywgJzgnLCAnLW1hJywgJzIwMCcsICctaW1hZScsICc8aW5maWxlLm1hZT4nLCAnLW9tYWUnLCAnPG91dGZpbGUubWFlPic=

>  <r_lp_tautomer_probability>  (380) 
1

>  <r_epik_Ionization_Penalty>  (380) 
5.83094e-07

>  <r_epik_Ionization_Penalty_Charging>  (380) 
0

>  <r_epik_Ionization_Penalty_Neutral>  (380) 
5.83094e-07

>  <r_epik_State_Penalty>  (380) 
-0

>  <r_epik_Charging_Adjusted_Penalty>  (380) 
0

>  <i_epik_Tot_Q>  (380) 
0

>  <i_epik_Tot_abs_Q>  (380) 
0

>  <s_epik_Chemistry_Notes>  (380) 
This compound has an ester and may undergo hydrolysis at high or low pH. This compound contains an acetal/aminal-like group ( X-CH(R)-Y where X, Y are N, S, or O) that may be acid/base labile, releasing an aldehyde.

>  <s_lp_Force_Field>  (380) 
OPLS3e

>  <r_lp_Energy>  (380) 
257.33

>  <b_lp_Chiralities_Consistent>  (380) 
1

>  <s_lp_Variant>  (380) 
108:0-1

>  <s_i_glide_gridfile>  (380) 
pfpi4k_grid

>  <i_i_glide_lignum>  (380) 
24

>  <i_i_glide_rotatable_bonds>  (380) 
20

>  <r_i_docking_score>  (380) 
-3.35391

>  <r_i_glide_ligand_efficiency>  (380) 
-0.0598912

>  <r_i_glide_ligand_efficiency_sa>  (380) 
-0.229135

>  <r_i_glide_ligand_efficiency_ln>  (380) 
-0.667397

>  <r_i_glide_gscore>  (380) 
-3.35391

>  <r_i_glide_lipo>  (380) 
-0.263525

>  <r_i_glide_hbond>  (380) 
-0.120405

>  <r_i_glide_metal>  (380) 
-0

>  <r_i_glide_rewards>  (380) 
-0.61739

>  <r_i_glide_evdw>  (380) 
-30.9189

>  <r_i_glide_ecoul>  (380) 
-6.66136

>  <r_i_glide_erotb>  (380) 
0.210134

>  <r_i_glide_esite>  (380) 
-0.0175693

>  <r_i_glide_emodel>  (380) 
-50.1092

>  <r_i_glide_energy>  (380) 
-37.5803

>  <r_i_glide_einternal>  (380) 
5.21679

>  <r_i_glide_intrahb_reward>  (380) 
-0.5

>  <i_i_glide_confnum>  (380) 
8

>  <i_i_glide_posenum>  (380) 
20

>  <r_i_glide_eff_state_penalty>  (380) 
0

>  <ligand_id>  (380) 
108

>  <original_smiles>  (380) 
C=C1C2CCC3C(O)OCC3(C1O)C1C(OCCOCCOCCOC(=O)COC)C3C(O)C(O)C4C(C)(C)OC5CC(C6C=C(C)C54C6O)C3(C)C(O)C21O

>  <smiles>  (380) 
[H]OC1([H])OC([H])([H])C23C([H])(O[H])C(=C([H])[H])C([H])(C([H])([H])C([H])([H])C12[H])C1(O[H])C([H])(O[H])C2(C([H])([H])[H])C([H])(C([H])(O[H])C([H])(O[H])C4([H])C(C([H])([H])[H])(C([H])([H])[H])OC5([H])C([H])([H])C2([H])C2([H])C([H])=C(C([H])([H])[H])C54C2([H])O[H])C([H])(OC([H])([H])C([H])([H])OC([H])([H])C([H])([H])OC([H])([H])C([H])([H])OC(=O)C([H])([H])OC([H])([H])[H])C13[H]

$$$$
108:0:2
     RDKit          3D

118125  0  0  1  0  0  0  0  0999 V2000
   -2.3010    3.3445    3.1985 C   0  0  0  0  0  0  0  0  0  0  0  0
   -1.4175    2.9960    4.1471 C   0  0  0  0  0  0  0  0  0  0  0  0
    0.0905    3.1004    3.9511 C   0  0  1  0  0  0  0  0  0  0  0  0
    0.6457    4.2684    4.8026 C   0  0  0  0  0  0  0  0  0  0  0  0
    0.3248    4.2180    6.3087 C   0  0  0  0  0  0  0  0  0  0  0  0
    0.2360    2.7992    6.9556 C   0  0  1  0  0  0  0  0  0  0  0  0
   -0.2704    2.8314    8.4283 C   0  0  1  0  0  0  0  0  0  0  0  0
   -0.5632    4.1342    8.9027 O   0  0  0  0  0  0  0  0  0  0  0  0
   -1.3923    2.0151    8.4762 O   0  0  0  0  0  0  0  0  0  0  0  0
   -1.2637    1.0130    7.4834 C   0  0  0  0  0  0  0  0  0  0  0  0
   -0.6742    1.7383    6.2661 C   0  0  1  0  0  0  0  0  0  0  0  0
   -1.8564    2.3933    5.4651 C   0  0  1  0  0  0  0  0  0  0  0  0
   -2.6252    3.3203    6.2069 O   0  0  0  0  0  0  0  0  0  0  0  0
    0.0811    0.8217    5.2177 C   0  0  2  0  0  0  0  0  0  0  0  0
    0.9012   -0.4434    5.6723 C   0  0  1  0  0  0  0  0  0  0  0  0
    0.7896   -1.4686    4.6780 O   0  0  0  0  0  0  0  0  0  0  0  0
    0.4161   -2.7809    5.0868 C   0  0  0  0  0  0  0  0  0  0  0  0
    0.8071   -3.7684    3.9894 C   0  0  0  0  0  0  0  0  0  0  0  0
    2.2083   -3.9475    3.9896 O   0  0  0  0  0  0  0  0  0  0  0  0
    2.6452   -5.0770    3.2541 C   0  0  0  0  0  0  0  0  0  0  0  0
    4.1793   -5.0600    3.1268 C   0  0  0  0  0  0  0  0  0  0  0  0
    4.5957   -4.3599    1.9618 O   0  0  0  0  0  0  0  0  0  0  0  0
    4.6252   -5.1657    0.7903 C   0  0  0  0  0  0  0  0  0  0  0  0
    5.1925   -4.3491   -0.3679 C   0  0  0  0  0  0  0  0  0  0  0  0
    4.1464   -3.7523   -1.1103 O   0  0  0  0  0  0  0  0  0  0  0  0
    4.4634   -2.8899   -2.0807 C   0  0  0  0  0  0  0  0  0  0  0  0
    5.6089   -2.4656   -2.3030 O   0  0  0  0  0  0  0  0  0  0  0  0
    3.2610   -2.4977   -2.9440 C   0  0  0  0  0  0  0  0  0  0  0  0
    3.6429   -1.6528   -4.0283 O   0  0  0  0  0  0  0  0  0  0  0  0
    3.8094   -0.2887   -3.6593 C   0  0  0  0  0  0  0  0  0  0  0  0
    2.4014   -0.1877    6.0198 C   0  0  1  0  0  0  0  0  0  0  0  0
    3.0022   -1.4238    6.8621 C   0  0  1  0  0  0  0  0  0  0  0  0
    3.6385   -2.4138    6.0824 O   0  0  0  0  0  0  0  0  0  0  0  0
    3.5730   -1.3003    8.3568 C   0  0  1  0  0  0  0  0  0  0  0  0
    3.2237   -2.4397    9.1106 O   0  0  0  0  0  0  0  0  0  0  0  0
    5.0505   -0.7738    8.7284 C   0  0  1  0  0  0  0  0  0  0  0  0
    6.1334   -1.8397    8.4111 C   0  0  0  0  0  0  0  0  0  0  0  0
    7.5233   -1.4090    8.9349 C   0  0  0  0  0  0  0  0  0  0  0  0
    5.9129   -3.2982    8.8655 C   0  0  0  0  0  0  0  0  0  0  0  0
    6.0411   -1.8466    7.0010 O   0  0  0  0  0  0  0  0  0  0  0  0
    5.8768   -0.5036    6.6067 C   0  0  1  0  0  0  0  0  0  0  0  0
    5.6658   -0.1791    5.1488 C   0  0  0  0  0  0  0  0  0  0  0  0
    4.7335    1.0176    5.0496 C   0  0  2  0  0  0  0  0  0  0  0  0
    5.2308    2.1194    6.1404 C   0  0  1  0  0  0  0  0  0  0  0  0
    4.0759    2.3610    6.9983 C   0  0  0  0  0  0  0  0  0  0  0  0
    4.0899    1.4184    7.9174 C   0  0  0  0  0  0  0  0  0  0  0  0
    3.3425    1.6816    9.2314 C   0  0  0  0  0  0  0  0  0  0  0  0
    5.2967    0.4227    7.7672 C   0  0  1  0  0  0  0  0  0  0  0  0
    6.1819    1.6534    7.3708 C   0  0  1  0  0  0  0  0  0  0  0  0
    7.5678    1.6289    7.0652 O   0  0  0  0  0  0  0  0  0  0  0  0
    3.1901    0.5383    4.8025 C   0  0  1  0  0  0  0  0  0  0  0  0
    3.2235   -0.3981    3.5462 C   0  0  0  0  0  0  0  0  0  0  0  0
    2.3385    1.7986    4.3681 C   0  0  1  0  0  0  0  0  0  0  0  0
    2.8850    2.4407    3.2334 O   0  0  0  0  0  0  0  0  0  0  0  0
    0.7850    1.6925    4.1333 C   0  0  2  0  0  0  0  0  0  0  0  0
    0.4970    1.0546    2.8975 O   0  0  0  0  0  0  0  0  0  0  0  0
   -3.3605    3.2162    3.3584 H   0  0  0  0  0  0  0  0  0  0  0  0
   -1.9717    3.7281    2.2466 H   0  0  0  0  0  0  0  0  0  0  0  0
    0.2455    3.4268    2.9185 H   0  0  0  0  0  0  0  0  0  0  0  0
    1.7108    4.4073    4.6460 H   0  0  0  0  0  0  0  0  0  0  0  0
    0.2169    5.1921    4.4128 H   0  0  0  0  0  0  0  0  0  0  0  0
    1.0871    4.7937    6.8367 H   0  0  0  0  0  0  0  0  0  0  0  0
   -0.5956    4.7739    6.4595 H   0  0  0  0  0  0  0  0  0  0  0  0
    1.2469    2.4080    7.0233 H   0  0  0  0  0  0  0  0  0  0  0  0
    0.4748    2.4313    9.1090 H   0  0  0  0  0  0  0  0  0  0  0  0
   -1.2656    4.4856    8.3914 H   0  0  0  0  0  0  0  0  0  0  0  0
   -0.6052    0.2541    7.9041 H   0  0  0  0  0  0  0  0  0  0  0  0
   -2.2301    0.5593    7.2657 H   0  0  0  0  0  0  0  0  0  0  0  0
   -2.5534    1.6057    5.1862 H   0  0  0  0  0  0  0  0  0  0  0  0
   -2.0220    3.8434    6.6967 H   0  0  0  0  0  0  0  0  0  0  0  0
   -0.7565    0.3381    4.7197 H   0  0  0  0  0  0  0  0  0  0  0  0
    0.4080   -0.8517    6.5476 H   0  0  0  0  0  0  0  0  0  0  0  0
    0.8814   -3.1246    6.0003 H   0  0  0  0  0  0  0  0  0  0  0  0
   -0.6639   -2.7874    5.2489 H   0  0  0  0  0  0  0  0  0  0  0  0
    0.3240   -4.7180    4.2029 H   0  0  0  0  0  0  0  0  0  0  0  0
    0.4907   -3.4323    3.0032 H   0  0  0  0  0  0  0  0  0  0  0  0
    2.3442   -5.9706    3.8041 H   0  0  0  0  0  0  0  0  0  0  0  0
    2.1581   -5.1193    2.2802 H   0  0  0  0  0  0  0  0  0  0  0  0
    4.6190   -4.5766    3.9998 H   0  0  0  0  0  0  0  0  0  0  0  0
    4.5798   -6.0767    3.1255 H   0  0  0  0  0  0  0  0  0  0  0  0
    5.3063   -5.9998    0.9611 H   0  0  0  0  0  0  0  0  0  0  0  0
    3.6490   -5.5841    0.5382 H   0  0  0  0  0  0  0  0  0  0  0  0
    5.9044   -3.6070    0.0008 H   0  0  0  0  0  0  0  0  0  0  0  0
    5.7466   -5.0071   -1.0384 H   0  0  0  0  0  0  0  0  0  0  0  0
    2.8404   -3.4149   -3.3574 H   0  0  0  0  0  0  0  0  0  0  0  0
    2.4738   -2.0432   -2.3426 H   0  0  0  0  0  0  0  0  0  0  0  0
    4.0739    0.2973   -4.5387 H   0  0  0  0  0  0  0  0  0  0  0  0
    4.6024   -0.1600   -2.9223 H   0  0  0  0  0  0  0  0  0  0  0  0
    2.8847    0.1156   -3.2462 H   0  0  0  0  0  0  0  0  0  0  0  0
    2.2185    0.5626    6.7638 H   0  0  0  0  0  0  0  0  0  0  0  0
    2.0971   -1.9273    7.1337 H   0  0  0  0  0  0  0  0  0  0  0  0
    4.5021   -2.1104    5.8420 H   0  0  0  0  0  0  0  0  0  0  0  0
    2.8590   -0.6502    8.8271 H   0  0  0  0  0  0  0  0  0  0  0  0
    3.7191   -3.1686    8.7720 H   0  0  0  0  0  0  0  0  0  0  0  0
    5.0982   -0.5004    9.7859 H   0  0  0  0  0  0  0  0  0  0  0  0
    7.5847   -1.5673   10.0136 H   0  0  0  0  0  0  0  0  0  0  0  0
    7.7377   -0.3555    8.7660 H   0  0  0  0  0  0  0  0  0  0  0  0
    8.3176   -1.9922    8.4657 H   0  0  0  0  0  0  0  0  0  0  0  0
    5.6546   -3.3535    9.9235 H   0  0  0  0  0  0  0  0  0  0  0  0
    6.8155   -3.8900    8.7222 H   0  0  0  0  0  0  0  0  0  0  0  0
    5.1434   -3.8039    8.2841 H   0  0  0  0  0  0  0  0  0  0  0  0
    6.9591   -0.4648    6.5952 H   0  0  0  0  0  0  0  0  0  0  0  0
    6.6126    0.1024    4.6810 H   0  0  0  0  0  0  0  0  0  0  0  0
    5.3574   -1.0725    4.6214 H   0  0  0  0  0  0  0  0  0  0  0  0
    5.0024    1.4546    4.0859 H   0  0  0  0  0  0  0  0  0  0  0  0
    5.5689    3.0494    5.6931 H   0  0  0  0  0  0  0  0  0  0  0  0
    3.4948    3.2765    6.9960 H   0  0  0  0  0  0  0  0  0  0  0  0
    3.8958    1.3175   10.0927 H   0  0  0  0  0  0  0  0  0  0  0  0
    2.3412    1.2553    9.2380 H   0  0  0  0  0  0  0  0  0  0  0  0
    3.2115    2.7532    9.3753 H   0  0  0  0  0  0  0  0  0  0  0  0
    6.1776    2.3941    8.1807 H   0  0  0  0  0  0  0  0  0  0  0  0
    8.0467    1.3926    7.8432 H   0  0  0  0  0  0  0  0  0  0  0  0
    3.9104   -0.0372    2.7792 H   0  0  0  0  0  0  0  0  0  0  0  0
    2.2694   -0.4934    3.0419 H   0  0  0  0  0  0  0  0  0  0  0  0
    3.4902   -1.4287    3.7698 H   0  0  0  0  0  0  0  0  0  0  0  0
    2.4501    2.5029    5.1778 H   0  0  0  0  0  0  0  0  0  0  0  0
    2.4056    3.2320    3.0567 H   0  0  0  0  0  0  0  0  0  0  0  0
    0.7654    1.6281    2.1956 H   0  0  0  0  0  0  0  0  0  0  0  0
  1  2  2  0
  1 57  1  0
  1 58  1  0
  2 12  1  0
  2  3  1  0
  3 55  1  0
  3  4  1  0
  3 59  1  6
  4  5  1  0
  4 60  1  0
  4 61  1  0
  5  6  1  0
  5 62  1  0
  5 63  1  0
  6 11  1  0
  6  7  1  0
  6 64  1  1
  7  8  1  0
  7  9  1  0
  7 65  1  1
  8 66  1  0
  9 10  1  0
 11 10  1  1
 10 67  1  0
 10 68  1  0
 11 12  1  0
 11 14  1  0
 12 13  1  0
 12 69  1  6
 13 70  1  0
 14 55  1  0
 14 15  1  0
 14 71  1  6
 15 16  1  0
 15 31  1  0
 15 72  1  1
 16 17  1  0
 17 18  1  0
 17 73  1  0
 17 74  1  0
 18 19  1  0
 18 75  1  0
 18 76  1  0
 19 20  1  0
 20 21  1  0
 20 77  1  0
 20 78  1  0
 21 22  1  0
 21 79  1  0
 21 80  1  0
 22 23  1  0
 23 24  1  0
 23 81  1  0
 23 82  1  0
 24 25  1  0
 24 83  1  0
 24 84  1  0
 25 26  1  0
 26 27  2  0
 26 28  1  0
 28 29  1  0
 28 85  1  0
 28 86  1  0
 29 30  1  0
 30 87  1  0
 30 88  1  0
 30 89  1  0
 31 51  1  0
 31 32  1  0
 31 90  1  1
 32 33  1  0
 32 34  1  0
 32 91  1  1
 33 92  1  0
 34 35  1  0
 34 36  1  0
 34 93  1  1
 35 94  1  0
 36 48  1  0
 36 37  1  0
 36 95  1  1
 37 38  1  0
 37 39  1  0
 37 40  1  0
 38 96  1  0
 38 97  1  0
 38 98  1  0
 39 99  1  0
 39100  1  0
 39101  1  0
 40 41  1  0
 41 48  1  0
 41 42  1  0
 41102  1  6
 42 43  1  0
 42103  1  0
 42104  1  0
 43 44  1  0
 43 51  1  0
 43105  1  6
 44 49  1  0
 44 45  1  0
 44106  1  6
 45 46  2  0
 45107  1  0
 46 47  1  0
 48 46  1  6
 47108  1  0
 47109  1  0
 47110  1  0
 48 49  1  0
 49 50  1  0
 49111  1  1
 50112  1  0
 51 52  1  6
 51 53  1  0
 52113  1  0
 52114  1  0
 52115  1  0
 53 54  1  0
 53 55  1  0
 53116  1  1
 54117  1  0
 55 56  1  6
 56118  1  0
M  END
>  <i_m_ct_stereo_status>  (381) 
1

>  <s_m_source_file>  (381) 
/var/tmp/pbs.5076255.sched01/tmp0i_w_vt9/132llf9lao3.sdf

>  <i_m_source_file_index>  (381) 
24

>  <i_lp_mmshare_version>  (381) 
48012

>  <i_f3d_flags>  (381) 
0

>  <s_epik_input>  (381) 
W0NIMl0xW0NAQEhdMk9DKFtDSDNdKShbQ0gzXSlbQ0BIXShbQ0BIXShbT0hdKVtDQEBIXTNbT0hdKUMyKFtDQEhdNFtPSF0pQyhbQ0gzXSk9W0NIXVtDQEBIXTRbQ0BASF0xW0NAXShbQ0gzXSkoW0NASF01W09IXSlbQ0BIXTNbQ0BASF0oW0NAQEhdNltDQEBdNShbT0hdKVtDQEBIXShDKD1bQ0gyXSlbQ0BASF03W09IXSlbQ0gyXVtDSDJdW0NASF0oW0NAXTY3OClbQ0BASF0oW09IXSlPW0NIMl04KU9bQ0gyXVtDSDJdT1tDSDJdW0NIMl1PW0NIMl1bQ0gyXU9DKD1PKVtDSDJdT1tDSDNd

>  <s_epik_cmdline>  (381) 
J2VwaWtfcHl0aG9uJywgJy1waHQnLCAnMi4wJywgJy1waCcsICc3LjAnLCAnLXRuJywgJzgnLCAnLW1hJywgJzIwMCcsICctaW1hZScsICc8aW5maWxlLm1hZT4nLCAnLW9tYWUnLCAnPG91dGZpbGUubWFlPic=

>  <r_lp_tautomer_probability>  (381) 
1

>  <r_epik_Ionization_Penalty>  (381) 
5.83094e-07

>  <r_epik_Ionization_Penalty_Charging>  (381) 
0

>  <r_epik_Ionization_Penalty_Neutral>  (381) 
5.83094e-07

>  <r_epik_State_Penalty>  (381) 
-0

>  <r_epik_Charging_Adjusted_Penalty>  (381) 
0

>  <i_epik_Tot_Q>  (381) 
0

>  <i_epik_Tot_abs_Q>  (381) 
0

>  <s_epik_Chemistry_Notes>  (381) 
This compound has an ester and may undergo hydrolysis at high or low pH. This compound contains an acetal/aminal-like group ( X-CH(R)-Y where X, Y are N, S, or O) that may be acid/base labile, releasing an aldehyde.

>  <s_lp_Force_Field>  (381) 
OPLS3e

>  <r_lp_Energy>  (381) 
257.33

>  <b_lp_Chiralities_Consistent>  (381) 
1

>  <s_lp_Variant>  (381) 
108:0-1

>  <s_i_glide_gridfile>  (381) 
pfpi4k_grid

>  <i_i_glide_lignum>  (381) 
24

>  <i_i_glide_rotatable_bonds>  (381) 
20

>  <r_i_docking_score>  (381) 
-2.37282

>  <r_i_glide_ligand_efficiency>  (381) 
-0.0423717

>  <r_i_glide_ligand_efficiency_sa>  (381) 
-0.162108

>  <r_i_glide_ligand_efficiency_ln>  (381) 
-0.47217

>  <r_i_glide_gscore>  (381) 
-2.37282

>  <r_i_glide_lipo>  (381) 
-0.545766

>  <r_i_glide_hbond>  (381) 
-0.0950813

>  <r_i_glide_metal>  (381) 
-0

>  <r_i_glide_rewards>  (381) 
-0.00418262

>  <r_i_glide_evdw>  (381) 
-37.3888

>  <r_i_glide_ecoul>  (381) 
-0.451619

>  <r_i_glide_erotb>  (381) 
0.210134

>  <r_i_glide_esite>  (381) 
-0.000738125

>  <r_i_glide_emodel>  (381) 
-40.6232

>  <r_i_glide_energy>  (381) 
-37.8404

>  <r_i_glide_einternal>  (381) 
8.21233

>  <r_i_glide_intrahb_reward>  (381) 
-0

>  <i_i_glide_confnum>  (381) 
10

>  <i_i_glide_posenum>  (381) 
2

>  <r_i_glide_eff_state_penalty>  (381) 
0

>  <ligand_id>  (381) 
108

>  <original_smiles>  (381) 
C=C1C2CCC3C(O)OCC3(C1O)C1C(OCCOCCOCCOC(=O)COC)C3C(O)C(O)C4C(C)(C)OC5CC(C6C=C(C)C54C6O)C3(C)C(O)C21O

>  <smiles>  (381) 
[H]OC1([H])OC([H])([H])C23C([H])(O[H])C(=C([H])[H])C([H])(C([H])([H])C([H])([H])C12[H])C1(O[H])C([H])(O[H])C2(C([H])([H])[H])C([H])(C([H])(O[H])C([H])(O[H])C4([H])C(C([H])([H])[H])(C([H])([H])[H])OC5([H])C([H])([H])C2([H])C2([H])C([H])=C(C([H])([H])[H])C54C2([H])O[H])C([H])(OC([H])([H])C([H])([H])OC([H])([H])C([H])([H])OC([H])([H])C([H])([H])OC(=O)C([H])([H])OC([H])([H])[H])C13[H]

$$$$
109:0:0
     RDKit          3D

 61 67  0  0  1  0  0  0  0  0999 V2000
    6.6791   -5.8818    1.3846 C   0  0  0  0  0  0  0  0  0  0  0  0
    5.7129   -5.0604    0.4925 C   0  0  2  0  0  0  0  0  0  0  0  0
    6.2743   -3.6383    0.2880 C   0  0  1  0  0  0  0  0  0  0  0  0
    6.0274   -3.0042   -1.1181 C   0  0  0  0  0  0  0  0  0  0  0  0
    5.0714   -1.8001   -1.1765 C   0  0  2  0  0  0  0  0  0  0  0  0
    5.2953   -0.8412   -0.0019 C   0  0  0  0  0  0  0  0  0  0  0  0
    5.0289   -1.5768    1.3157 C   0  0  1  0  0  0  0  0  0  0  0  0
    3.5862   -2.0852    1.3879 C   0  0  0  0  0  0  0  0  0  0  0  0
    3.1117   -2.8481    0.1224 C   0  0  1  0  0  0  0  0  0  0  0  0
    3.6018   -2.2090   -1.1948 C   0  0  0  0  0  0  0  0  0  0  0  0
    3.1865   -4.3749    0.1114 C   0  0  0  0  0  0  0  0  0  0  0  0
    4.2110   -5.2067    0.9462 C   0  0  1  0  0  0  0  0  0  0  0  0
    3.9047   -6.5872    0.6765 O   0  0  0  0  0  0  0  0  0  0  0  0
    2.4763   -6.8024    1.0300 O   0  0  0  0  0  0  0  0  0  0  0  0
    2.2964   -6.6123    2.4257 C   0  0  2  0  0  0  0  0  0  0  0  0
    3.1319   -7.6608    3.1961 C   0  0  0  0  0  0  0  0  0  0  0  0
    2.4811   -8.1195    4.4926 C   0  0  2  0  0  0  0  0  0  0  0  0
    1.4923   -9.3160    4.2866 C   0  0  0  0  0  0  0  0  0  0  0  0
    0.1147   -8.8943    3.6987 C   0  0  1  0  0  0  0  0  0  0  0  0
   -0.5088   -7.8030    4.5651 C   0  0  0  0  0  0  0  0  0  0  0  0
    0.4787   -6.6507    4.2932 C   0  0  1  0  0  0  0  0  0  0  0  0
    1.7314   -6.9340    5.1489 C   0  0  0  0  0  0  0  0  0  0  0  0
    0.7682   -6.7628    2.7713 C   0  0  2  0  0  0  0  0  0  0  0  0
    0.2689   -8.1457    2.3690 C   0  0  0  0  0  0  0  0  0  0  0  0
    2.6453   -5.2532    2.7591 O   0  0  0  0  0  0  0  0  0  0  0  0
    4.0941   -4.9750    2.3527 O   0  0  0  0  0  0  0  0  0  0  0  0
    6.0850   -2.6694    1.4869 C   0  0  0  0  0  0  0  0  0  0  0  0
    6.7603   -5.4801    2.3980 H   0  0  0  0  0  0  0  0  0  0  0  0
    7.7086   -5.8740    0.9700 H   0  0  0  0  0  0  0  0  0  0  0  0
    6.3982   -6.9295    1.4567 H   0  0  0  0  0  0  0  0  0  0  0  0
    5.7668   -5.5549   -0.4764 H   0  0  0  0  0  0  0  0  0  0  0  0
    7.3524   -3.7907    0.2674 H   0  0  0  0  0  0  0  0  0  0  0  0
    6.9959   -2.6854   -1.5345 H   0  0  0  0  0  0  0  0  0  0  0  0
    5.6748   -3.7688   -1.8086 H   0  0  0  0  0  0  0  0  0  0  0  0
    5.2506   -1.2783   -2.1144 H   0  0  0  0  0  0  0  0  0  0  0  0
    6.3138   -0.4504   -0.0161 H   0  0  0  0  0  0  0  0  0  0  0  0
    4.6177    0.0088   -0.0816 H   0  0  0  0  0  0  0  0  0  0  0  0
    5.1645   -0.8864    2.1436 H   0  0  0  0  0  0  0  0  0  0  0  0
    3.4234   -2.6717    2.2856 H   0  0  0  0  0  0  0  0  0  0  0  0
    2.9404   -1.2114    1.5042 H   0  0  0  0  0  0  0  0  0  0  0  0
    2.0514   -2.6646    0.1031 H   0  0  0  0  0  0  0  0  0  0  0  0
    3.0192   -1.3026   -1.3781 H   0  0  0  0  0  0  0  0  0  0  0  0
    3.3841   -2.8477   -2.0500 H   0  0  0  0  0  0  0  0  0  0  0  0
    2.1847   -4.6926    0.4277 H   0  0  0  0  0  0  0  0  0  0  0  0
    3.2469   -4.6924   -0.9197 H   0  0  0  0  0  0  0  0  0  0  0  0
    3.2995   -8.5151    2.5455 H   0  0  0  0  0  0  0  0  0  0  0  0
    4.1394   -7.2659    3.3937 H   0  0  0  0  0  0  0  0  0  0  0  0
    3.2701   -8.4604    5.1636 H   0  0  0  0  0  0  0  0  0  0  0  0
    1.9464  -10.0791    3.6518 H   0  0  0  0  0  0  0  0  0  0  0  0
    1.3158   -9.8031    5.2486 H   0  0  0  0  0  0  0  0  0  0  0  0
   -0.5465   -9.7626    3.6087 H   0  0  0  0  0  0  0  0  0  0  0  0
   -1.5192   -7.5671    4.2260 H   0  0  0  0  0  0  0  0  0  0  0  0
   -0.5757   -8.0971    5.6147 H   0  0  0  0  0  0  0  0  0  0  0  0
    0.0301   -5.6890    4.5800 H   0  0  0  0  0  0  0  0  0  0  0  0
    1.4619   -7.1684    6.1761 H   0  0  0  0  0  0  0  0  0  0  0  0
    2.3741   -6.0591    5.1951 H   0  0  0  0  0  0  0  0  0  0  0  0
    0.2267   -5.9959    2.2231 H   0  0  0  0  0  0  0  0  0  0  0  0
    0.9083   -8.6925    1.6805 H   0  0  0  0  0  0  0  0  0  0  0  0
   -0.7145   -8.0674    1.8934 H   0  0  0  0  0  0  0  0  0  0  0  0
    5.9231   -3.2212    2.4121 H   0  0  0  0  0  0  0  0  0  0  0  0
    7.0160   -2.1293    1.6364 H   0  0  0  0  0  0  0  0  0  0  0  0
  1  2  1  0
  1 28  1  0
  1 29  1  0
  1 30  1  0
  2 12  1  0
  2  3  1  0
  2 31  1  6
  3 27  1  0
  3  4  1  0
  3 32  1  6
  4  5  1  0
  4 33  1  0
  4 34  1  0
  5 10  1  0
  5  6  1  0
  5 35  1  6
  6  7  1  0
  6 36  1  0
  6 37  1  0
  7  8  1  0
  7 27  1  0
  7 38  1  1
  8  9  1  0
  8 39  1  0
  8 40  1  0
  9 10  1  0
  9 11  1  0
  9 41  1  6
 10 42  1  0
 10 43  1  0
 11 12  1  0
 11 44  1  0
 11 45  1  0
 12 26  1  1
 12 13  1  0
 13 14  1  0
 15 14  1  6
 15 23  1  0
 15 16  1  0
 15 25  1  0
 16 17  1  0
 16 46  1  0
 16 47  1  0
 17 22  1  0
 17 18  1  0
 17 48  1  1
 18 19  1  0
 18 49  1  0
 18 50  1  0
 19 24  1  0
 19 20  1  0
 19 51  1  6
 20 21  1  0
 20 52  1  0
 20 53  1  0
 21 22  1  0
 21 23  1  0
 21 54  1  6
 22 55  1  0
 22 56  1  0
 23 24  1  0
 23 57  1  6
 24 58  1  0
 24 59  1  0
 25 26  1  0
 27 60  1  0
 27 61  1  0
M  END
>  <i_m_ct_stereo_status>  (382) 
1

>  <s_m_source_file>  (382) 
/var/tmp/pbs.5076255.sched01/tmp0i_w_vt9/132llf9lao3.sdf

>  <i_m_source_file_index>  (382) 
25

>  <i_lp_mmshare_version>  (382) 
48012

>  <i_f3d_flags>  (382) 
0

>  <s_epik_input>  (382) 
W0NIMl0xW0NAQEhdKFtDSDJdMilbQ0gyXVtDQEBIXShbQ0gyXTMpW0NIMl1bQ0BIXTFbQ0gyXVtDQEBIXTNbQ0BASF0oW0NIM10pW0NAXTI0T09bQ0BAXTUoT080KVtDQEBIXTZbQ0BIXTdbQ0gyXVtDQEBIXShbQ0gyXTYpW0NIMl1bQ0BASF0oW0NIMl01KVtDSDJdNw==

>  <s_epik_cmdline>  (382) 
J2VwaWtfcHl0aG9uJywgJy1waHQnLCAnMi4wJywgJy1waCcsICc3LjAnLCAnLXRuJywgJzgnLCAnLW1hJywgJzIwMCcsICctaW1hZScsICc8aW5maWxlLm1hZT4nLCAnLW9tYWUnLCAnPG91dGZpbGUubWFlPic=

>  <r_lp_tautomer_probability>  (382) 
1

>  <r_epik_Ionization_Penalty>  (382) 
0

>  <r_epik_Ionization_Penalty_Charging>  (382) 
0

>  <r_epik_Ionization_Penalty_Neutral>  (382) 
0

>  <r_epik_State_Penalty>  (382) 
-0

>  <r_epik_Charging_Adjusted_Penalty>  (382) 
0

>  <i_epik_Tot_Q>  (382) 
0

>  <i_epik_Tot_abs_Q>  (382) 
0

>  <s_lp_Force_Field>  (382) 
OPLS3e

>  <r_lp_Energy>  (382) 
65.2671

>  <b_lp_Chiralities_Consistent>  (382) 
1

>  <s_lp_Variant>  (382) 
109:0-1

>  <s_i_glide_gridfile>  (382) 
pfpi4k_grid

>  <i_i_glide_lignum>  (382) 
25

>  <i_i_glide_rotatable_bonds>  (382) 
0

>  <r_i_docking_score>  (382) 
-2.94601

>  <r_i_glide_ligand_efficiency>  (382) 
-0.109112

>  <r_i_glide_ligand_efficiency_sa>  (382) 
-0.327335

>  <r_i_glide_ligand_efficiency_ln>  (382) 
-0.685783

>  <r_i_glide_gscore>  (382) 
-2.94601

>  <r_i_glide_lipo>  (382) 
-0.517961

>  <r_i_glide_hbond>  (382) 
0

>  <r_i_glide_metal>  (382) 
-0

>  <r_i_glide_rewards>  (382) 
-0.904009

>  <r_i_glide_evdw>  (382) 
-28.8693

>  <r_i_glide_ecoul>  (382) 
-0.476747

>  <r_i_glide_erotb>  (382) 
0

>  <r_i_glide_esite>  (382) 
-0.00906657

>  <r_i_glide_emodel>  (382) 
-34.0764

>  <r_i_glide_energy>  (382) 
-29.346

>  <r_i_glide_einternal>  (382) 
0

>  <r_i_glide_intrahb_reward>  (382) 
-0

>  <i_i_glide_confnum>  (382) 
3

>  <i_i_glide_posenum>  (382) 
36

>  <r_i_glide_eff_state_penalty>  (382) 
0

>  <ligand_id>  (382) 
109

>  <original_smiles>  (382) 
CC1C2CC3CC(CC(C3)CC13OOC1(CC4CC5CC(C4)C1C5)OO3)C2

>  <smiles>  (382) 
[H]C([H])([H])C1([H])C2(OOC3(OO2)C([H])([H])C2([H])C([H])([H])C4([H])C([H])([H])C([H])(C2([H])[H])C3([H])C4([H])[H])C([H])([H])C2([H])C([H])([H])C3([H])C([H])([H])C([H])(C2([H])[H])C([H])([H])C1([H])C3([H])[H]

$$$$
109:0:1
     RDKit          3D

 61 67  0  0  1  0  0  0  0  0999 V2000
    4.3173   -4.9156    4.3087 C   0  0  0  0  0  0  0  0  0  0  0  0
    3.2764   -5.9891    3.8809 C   0  0  2  0  0  0  0  0  0  0  0  0
    3.5825   -7.2941    4.6591 C   0  0  1  0  0  0  0  0  0  0  0  0
    2.3499   -8.0980    5.1628 C   0  0  0  0  0  0  0  0  0  0  0  0
    2.1315   -9.4905    4.5456 C   0  0  2  0  0  0  0  0  0  0  0  0
    3.4541  -10.2479    4.3902 C   0  0  0  0  0  0  0  0  0  0  0  0
    4.3736   -9.4576    3.4513 C   0  0  1  0  0  0  0  0  0  0  0  0
    3.7335   -9.2718    2.0611 C   0  0  0  0  0  0  0  0  0  0  0  0
    2.2708   -8.7683    2.0774 C   0  0  1  0  0  0  0  0  0  0  0  0
    1.4212   -9.4378    3.1880 C   0  0  0  0  0  0  0  0  0  0  0  0
    2.0182   -7.2438    1.9045 C   0  0  0  0  0  0  0  0  0  0  0  0
    3.0090   -6.1162    2.3228 C   0  0  1  0  0  0  0  0  0  0  0  0
    2.2256   -4.9941    1.8403 O   0  0  0  0  0  0  0  0  0  0  0  0
    3.0396   -3.7606    1.9698 O   0  0  0  0  0  0  0  0  0  0  0  0
    4.2120   -3.8442    1.1510 C   0  0  2  0  0  0  0  0  0  0  0  0
    5.0302   -2.5422    1.4260 C   0  0  0  0  0  0  0  0  0  0  0  0
    5.8528   -2.0700    0.2170 C   0  0  2  0  0  0  0  0  0  0  0  0
    5.0406   -1.1588   -0.7529 C   0  0  0  0  0  0  0  0  0  0  0  0
    4.0308   -1.9465   -1.6437 C   0  0  1  0  0  0  0  0  0  0  0  0
    4.7626   -3.0582   -2.3984 C   0  0  0  0  0  0  0  0  0  0  0  0
    5.1524   -3.9681   -1.2314 C   0  0  1  0  0  0  0  0  0  0  0  0
    6.3695   -3.3068   -0.5400 C   0  0  0  0  0  0  0  0  0  0  0  0
    3.8764   -3.9771   -0.3514 C   0  0  2  0  0  0  0  0  0  0  0  0
    3.0529   -2.7733   -0.8065 C   0  0  0  0  0  0  0  0  0  0  0  0
    4.9979   -4.9732    1.5877 O   0  0  0  0  0  0  0  0  0  0  0  0
    4.1813   -6.2569    1.4931 O   0  0  0  0  0  0  0  0  0  0  0  0
    4.7676   -8.1369    4.1218 C   0  0  0  0  0  0  0  0  0  0  0  0
    5.3232   -5.1934    3.9993 H   0  0  0  0  0  0  0  0  0  0  0  0
    4.3696   -4.7967    5.4004 H   0  0  0  0  0  0  0  0  0  0  0  0
    4.0993   -3.9242    3.9295 H   0  0  0  0  0  0  0  0  0  0  0  0
    2.3389   -5.6111    4.2792 H   0  0  0  0  0  0  0  0  0  0  0  0
    3.9750   -6.9223    5.5998 H   0  0  0  0  0  0  0  0  0  0  0  0
    2.4439   -8.2356    6.2475 H   0  0  0  0  0  0  0  0  0  0  0  0
    1.4431   -7.5181    5.0347 H   0  0  0  0  0  0  0  0  0  0  0  0
    1.4776  -10.0522    5.2125 H   0  0  0  0  0  0  0  0  0  0  0  0
    3.9222  -10.3806    5.3672 H   0  0  0  0  0  0  0  0  0  0  0  0
    3.2685  -11.2452    3.9881 H   0  0  0  0  0  0  0  0  0  0  0  0
    5.2852  -10.0253    3.2990 H   0  0  0  0  0  0  0  0  0  0  0  0
    4.3556   -8.6635    1.4074 H   0  0  0  0  0  0  0  0  0  0  0  0
    3.7257  -10.2486    1.5827 H   0  0  0  0  0  0  0  0  0  0  0  0
    1.8408   -9.1879    1.1708 H   0  0  0  0  0  0  0  0  0  0  0  0
    1.1961  -10.4689    2.8903 H   0  0  0  0  0  0  0  0  0  0  0  0
    0.4446   -8.9673    3.2813 H   0  0  0  0  0  0  0  0  0  0  0  0
    1.8740   -7.1141    0.8251 H   0  0  0  0  0  0  0  0  0  0  0  0
    1.0435   -7.0256    2.3372 H   0  0  0  0  0  0  0  0  0  0  0  0
    4.3621   -1.7529    1.7340 H   0  0  0  0  0  0  0  0  0  0  0  0
    5.6838   -2.7181    2.2798 H   0  0  0  0  0  0  0  0  0  0  0  0
    6.6960   -1.4913    0.5893 H   0  0  0  0  0  0  0  0  0  0  0  0
    4.5232   -0.3711   -0.2009 H   0  0  0  0  0  0  0  0  0  0  0  0
    5.7330   -0.6378   -1.4183 H   0  0  0  0  0  0  0  0  0  0  0  0
    3.5042   -1.2646   -2.3185 H   0  0  0  0  0  0  0  0  0  0  0  0
    4.0840   -3.5695   -3.0806 H   0  0  0  0  0  0  0  0  0  0  0  0
    5.6160   -2.6926   -2.9823 H   0  0  0  0  0  0  0  0  0  0  0  0
    5.4140   -4.9711   -1.5717 H   0  0  0  0  0  0  0  0  0  0  0  0
    7.1394   -3.0326   -1.2688 H   0  0  0  0  0  0  0  0  0  0  0  0
    6.8575   -3.9949    0.1516 H   0  0  0  0  0  0  0  0  0  0  0  0
    3.3082   -4.8887   -0.5273 H   0  0  0  0  0  0  0  0  0  0  0  0
    2.6168   -2.1803   -0.0001 H   0  0  0  0  0  0  0  0  0  0  0  0
    2.2243   -3.1043   -1.4322 H   0  0  0  0  0  0  0  0  0  0  0  0
    5.3916   -7.5535    3.4472 H   0  0  0  0  0  0  0  0  0  0  0  0
    5.4231   -8.3899    4.9669 H   0  0  0  0  0  0  0  0  0  0  0  0
  1  2  1  0
  1 28  1  0
  1 29  1  0
  1 30  1  0
  2 12  1  0
  2  3  1  0
  2 31  1  1
  3 27  1  0
  3  4  1  0
  3 32  1  1
  4  5  1  0
  4 33  1  0
  4 34  1  0
  5 10  1  0
  5  6  1  0
  5 35  1  1
  6  7  1  0
  6 36  1  0
  6 37  1  0
  7  8  1  0
  7 27  1  0
  7 38  1  6
  8  9  1  0
  8 39  1  0
  8 40  1  0
  9 10  1  0
  9 11  1  0
  9 41  1  6
 10 42  1  0
 10 43  1  0
 11 12  1  0
 11 44  1  0
 11 45  1  0
 12 26  1  6
 12 13  1  0
 13 14  1  0
 15 14  1  1
 15 23  1  0
 15 16  1  0
 15 25  1  0
 16 17  1  0
 16 46  1  0
 16 47  1  0
 17 22  1  0
 17 18  1  0
 17 48  1  1
 18 19  1  0
 18 49  1  0
 18 50  1  0
 19 24  1  0
 19 20  1  0
 19 51  1  6
 20 21  1  0
 20 52  1  0
 20 53  1  0
 21 22  1  0
 21 23  1  0
 21 54  1  6
 22 55  1  0
 22 56  1  0
 23 24  1  0
 23 57  1  1
 24 58  1  0
 24 59  1  0
 25 26  1  0
 27 60  1  0
 27 61  1  0
M  END
>  <i_m_ct_stereo_status>  (383) 
1

>  <s_m_source_file>  (383) 
/var/tmp/pbs.5076255.sched01/tmp0i_w_vt9/132llf9lao3.sdf

>  <i_m_source_file_index>  (383) 
25

>  <i_lp_mmshare_version>  (383) 
48012

>  <i_f3d_flags>  (383) 
0

>  <s_epik_input>  (383) 
W0NIMl0xW0NAQEhdKFtDSDJdMilbQ0gyXVtDQEBIXShbQ0gyXTMpW0NIMl1bQ0BIXTFbQ0gyXVtDQEBIXTNbQ0BASF0oW0NIM10pW0NAXTI0T09bQ0BAXTUoT080KVtDQEBIXTZbQ0BIXTdbQ0gyXVtDQEBIXShbQ0gyXTYpW0NIMl1bQ0BASF0oW0NIMl01KVtDSDJdNw==

>  <s_epik_cmdline>  (383) 
J2VwaWtfcHl0aG9uJywgJy1waHQnLCAnMi4wJywgJy1waCcsICc3LjAnLCAnLXRuJywgJzgnLCAnLW1hJywgJzIwMCcsICctaW1hZScsICc8aW5maWxlLm1hZT4nLCAnLW9tYWUnLCAnPG91dGZpbGUubWFlPic=

>  <r_lp_tautomer_probability>  (383) 
1

>  <r_epik_Ionization_Penalty>  (383) 
0

>  <r_epik_Ionization_Penalty_Charging>  (383) 
0

>  <r_epik_Ionization_Penalty_Neutral>  (383) 
0

>  <r_epik_State_Penalty>  (383) 
-0

>  <r_epik_Charging_Adjusted_Penalty>  (383) 
0

>  <i_epik_Tot_Q>  (383) 
0

>  <i_epik_Tot_abs_Q>  (383) 
0

>  <s_lp_Force_Field>  (383) 
OPLS3e

>  <r_lp_Energy>  (383) 
65.2671

>  <b_lp_Chiralities_Consistent>  (383) 
1

>  <s_lp_Variant>  (383) 
109:0-1

>  <s_i_glide_gridfile>  (383) 
pfpi4k_grid

>  <i_i_glide_lignum>  (383) 
25

>  <i_i_glide_rotatable_bonds>  (383) 
0

>  <r_i_docking_score>  (383) 
-2.55065

>  <r_i_glide_ligand_efficiency>  (383) 
-0.0944686

>  <r_i_glide_ligand_efficiency_sa>  (383) 
-0.283406

>  <r_i_glide_ligand_efficiency_ln>  (383) 
-0.59375

>  <r_i_glide_gscore>  (383) 
-2.55065

>  <r_i_glide_lipo>  (383) 
-0.261099

>  <r_i_glide_hbond>  (383) 
0

>  <r_i_glide_metal>  (383) 
-0

>  <r_i_glide_rewards>  (383) 
-0.879401

>  <r_i_glide_evdw>  (383) 
-26.9154

>  <r_i_glide_ecoul>  (383) 
-0.42383

>  <r_i_glide_erotb>  (383) 
0

>  <r_i_glide_esite>  (383) 
-0.000805474

>  <r_i_glide_emodel>  (383) 
-31.4415

>  <r_i_glide_energy>  (383) 
-27.3393

>  <r_i_glide_einternal>  (383) 
0

>  <r_i_glide_intrahb_reward>  (383) 
-0

>  <i_i_glide_confnum>  (383) 
4

>  <i_i_glide_posenum>  (383) 
10

>  <r_i_glide_eff_state_penalty>  (383) 
0

>  <ligand_id>  (383) 
109

>  <original_smiles>  (383) 
CC1C2CC3CC(CC(C3)CC13OOC1(CC4CC5CC(C4)C1C5)OO3)C2

>  <smiles>  (383) 
[H]C([H])([H])C1([H])C2(OOC3(OO2)C([H])([H])C2([H])C([H])([H])C4([H])C([H])([H])C([H])(C2([H])[H])C3([H])C4([H])[H])C([H])([H])C2([H])C([H])([H])C3([H])C([H])([H])C([H])(C2([H])[H])C([H])([H])C1([H])C3([H])[H]

$$$$
109:0:2
     RDKit          3D

 61 67  0  0  1  0  0  0  0  0999 V2000
    0.4702   -2.2084    4.1225 C   0  0  0  0  0  0  0  0  0  0  0  0
    1.3962   -1.8331    2.9272 C   0  0  2  0  0  0  0  0  0  0  0  0
    2.5644   -2.8399    2.8887 C   0  0  1  0  0  0  0  0  0  0  0  0
    3.0174   -3.3230    1.4799 C   0  0  0  0  0  0  0  0  0  0  0  0
    4.4279   -2.9070    1.0298 C   0  0  2  0  0  0  0  0  0  0  0  0
    5.4344   -3.0260    2.1784 C   0  0  0  0  0  0  0  0  0  0  0  0
    5.0163   -2.0812    3.3080 C   0  0  1  0  0  0  0  0  0  0  0  0
    4.9844   -0.6185    2.8286 C   0  0  0  0  0  0  0  0  0  0  0  0
    4.2066   -0.3871    1.5082 C   0  0  1  0  0  0  0  0  0  0  0  0
    4.4857   -1.4881    0.4556 C   0  0  0  0  0  0  0  0  0  0  0  0
    2.7165    0.0553    1.6022 C   0  0  0  0  0  0  0  0  0  0  0  0
    1.7292   -0.2940    2.7573 C   0  0  1  0  0  0  0  0  0  0  0  0
    0.5759    0.4300    2.2582 O   0  0  0  0  0  0  0  0  0  0  0  0
   -0.4846    0.4011    3.2902 O   0  0  0  0  0  0  0  0  0  0  0  0
   -0.0428    1.0679    4.4785 C   0  0  2  0  0  0  0  0  0  0  0  0
   -1.1980    0.9064    5.5167 C   0  0  0  0  0  0  0  0  0  0  0  0
   -1.2870    2.0720    6.5079 C   0  0  2  0  0  0  0  0  0  0  0  0
   -2.1513    3.2557    5.9828 C   0  0  0  0  0  0  0  0  0  0  0  0
   -1.4184    4.1126    4.9009 C   0  0  1  0  0  0  0  0  0  0  0  0
   -0.0776    4.6049    5.4503 C   0  0  0  0  0  0  0  0  0  0  0  0
    0.6787    3.2786    5.5515 C   0  0  1  0  0  0  0  0  0  0  0  0
    0.1354    2.5663    6.8231 C   0  0  0  0  0  0  0  0  0  0  0  0
    0.2864    2.5537    4.2388 C   0  0  2  0  0  0  0  0  0  0  0  0
   -0.9529    3.2724    3.7100 C   0  0  0  0  0  0  0  0  0  0  0  0
    1.1177    0.3749    4.9852 O   0  0  0  0  0  0  0  0  0  0  0  0
    2.2255    0.3668    3.9385 O   0  0  0  0  0  0  0  0  0  0  0  0
    3.6973   -2.5789    3.9115 C   0  0  0  0  0  0  0  0  0  0  0  0
    0.9745   -2.0620    5.0763 H   0  0  0  0  0  0  0  0  0  0  0  0
    0.1703   -3.2685    4.1035 H   0  0  0  0  0  0  0  0  0  0  0  0
   -0.4630   -1.6592    4.1278 H   0  0  0  0  0  0  0  0  0  0  0  0
    0.7833   -2.0515    2.0672 H   0  0  0  0  0  0  0  0  0  0  0  0
    2.1143   -3.7499    3.2695 H   0  0  0  0  0  0  0  0  0  0  0  0
    2.9778   -4.4206    1.4515 H   0  0  0  0  0  0  0  0  0  0  0  0
    2.3097   -2.9965    0.7253 H   0  0  0  0  0  0  0  0  0  0  0  0
    4.7288   -3.5775    0.2250 H   0  0  0  0  0  0  0  0  0  0  0  0
    5.4761   -4.0554    2.5346 H   0  0  0  0  0  0  0  0  0  0  0  0
    6.4320   -2.7663    1.8261 H   0  0  0  0  0  0  0  0  0  0  0  0
    5.7542   -2.1313    4.0997 H   0  0  0  0  0  0  0  0  0  0  0  0
    4.6206    0.0478    3.6062 H   0  0  0  0  0  0  0  0  0  0  0  0
    6.0238   -0.3107    2.6634 H   0  0  0  0  0  0  0  0  0  0  0  0
    4.6755    0.4869    1.0643 H   0  0  0  0  0  0  0  0  0  0  0  0
    5.4880   -1.3348    0.0441 H   0  0  0  0  0  0  0  0  0  0  0  0
    3.8231   -1.3944   -0.4038 H   0  0  0  0  0  0  0  0  0  0  0  0
    2.7503    1.1538    1.5700 H   0  0  0  0  0  0  0  0  0  0  0  0
    2.2424   -0.2220    0.6621 H   0  0  0  0  0  0  0  0  0  0  0  0
   -2.1378    0.8003    4.9959 H   0  0  0  0  0  0  0  0  0  0  0  0
   -1.0534   -0.0325    6.0478 H   0  0  0  0  0  0  0  0  0  0  0  0
   -1.7540    1.7113    7.4243 H   0  0  0  0  0  0  0  0  0  0  0  0
   -3.1081    2.9039    5.5921 H   0  0  0  0  0  0  0  0  0  0  0  0
   -2.4077    3.9098    6.8217 H   0  0  0  0  0  0  0  0  0  0  0  0
   -2.0476    4.9492    4.5692 H   0  0  0  0  0  0  0  0  0  0  0  0
    0.4033    5.2744    4.7371 H   0  0  0  0  0  0  0  0  0  0  0  0
   -0.1778    5.1385    6.4033 H   0  0  0  0  0  0  0  0  0  0  0  0
    1.7514    3.4364    5.6451 H   0  0  0  0  0  0  0  0  0  0  0  0
    0.1371    3.2372    7.6872 H   0  0  0  0  0  0  0  0  0  0  0  0
    0.7726    1.7262    7.1080 H   0  0  0  0  0  0  0  0  0  0  0  0
    1.0902    2.6516    3.5044 H   0  0  0  0  0  0  0  0  0  0  0  0
   -1.7539    2.6224    3.3427 H   0  0  0  0  0  0  0  0  0  0  0  0
   -0.6820    3.9264    2.8836 H   0  0  0  0  0  0  0  0  0  0  0  0
    3.3646   -1.8957    4.6920 H   0  0  0  0  0  0  0  0  0  0  0  0
    3.9153   -3.5205    4.4356 H   0  0  0  0  0  0  0  0  0  0  0  0
  1  2  1  0
  1 28  1  0
  1 29  1  0
  1 30  1  0
  2 12  1  0
  2  3  1  0
  2 31  1  6
  3 27  1  0
  3  4  1  0
  3 32  1  1
  4  5  1  0
  4 33  1  0
  4 34  1  0
  5 10  1  0
  5  6  1  0
  5 35  1  6
  6  7  1  0
  6 36  1  0
  6 37  1  0
  7  8  1  0
  7 27  1  0
  7 38  1  1
  8  9  1  0
  8 39  1  0
  8 40  1  0
  9 10  1  0
  9 11  1  0
  9 41  1  6
 10 42  1  0
 10 43  1  0
 11 12  1  0
 11 44  1  0
 11 45  1  0
 12 26  1  1
 12 13  1  0
 13 14  1  0
 15 14  1  6
 15 23  1  0
 15 16  1  0
 15 25  1  0
 16 17  1  0
 16 46  1  0
 16 47  1  0
 17 22  1  0
 17 18  1  0
 17 48  1  1
 18 19  1  0
 18 49  1  0
 18 50  1  0
 19 24  1  0
 19 20  1  0
 19 51  1  6
 20 21  1  0
 20 52  1  0
 20 53  1  0
 21 22  1  0
 21 23  1  0
 21 54  1  1
 22 55  1  0
 22 56  1  0
 23 24  1  0
 23 57  1  6
 24 58  1  0
 24 59  1  0
 25 26  1  0
 27 60  1  0
 27 61  1  0
M  END
>  <i_m_ct_stereo_status>  (384) 
1

>  <s_m_source_file>  (384) 
/var/tmp/pbs.5076255.sched01/tmp0i_w_vt9/132llf9lao3.sdf

>  <i_m_source_file_index>  (384) 
25

>  <i_lp_mmshare_version>  (384) 
48012

>  <i_f3d_flags>  (384) 
0

>  <s_epik_input>  (384) 
W0NIMl0xW0NAQEhdKFtDSDJdMilbQ0gyXVtDQEBIXShbQ0gyXTMpW0NIMl1bQ0BIXTFbQ0gyXVtDQEBIXTNbQ0BASF0oW0NIM10pW0NAXTI0T09bQ0BAXTUoT080KVtDQEBIXTZbQ0BIXTdbQ0gyXVtDQEBIXShbQ0gyXTYpW0NIMl1bQ0BASF0oW0NIMl01KVtDSDJdNw==

>  <s_epik_cmdline>  (384) 
J2VwaWtfcHl0aG9uJywgJy1waHQnLCAnMi4wJywgJy1waCcsICc3LjAnLCAnLXRuJywgJzgnLCAnLW1hJywgJzIwMCcsICctaW1hZScsICc8aW5maWxlLm1hZT4nLCAnLW9tYWUnLCAnPG91dGZpbGUubWFlPic=

>  <r_lp_tautomer_probability>  (384) 
1

>  <r_epik_Ionization_Penalty>  (384) 
0

>  <r_epik_Ionization_Penalty_Charging>  (384) 
0

>  <r_epik_Ionization_Penalty_Neutral>  (384) 
0

>  <r_epik_State_Penalty>  (384) 
-0

>  <r_epik_Charging_Adjusted_Penalty>  (384) 
0

>  <i_epik_Tot_Q>  (384) 
0

>  <i_epik_Tot_abs_Q>  (384) 
0

>  <s_lp_Force_Field>  (384) 
OPLS3e

>  <r_lp_Energy>  (384) 
65.2671

>  <b_lp_Chiralities_Consistent>  (384) 
1

>  <s_lp_Variant>  (384) 
109:0-1

>  <s_i_glide_gridfile>  (384) 
pfpi4k_grid

>  <i_i_glide_lignum>  (384) 
25

>  <i_i_glide_rotatable_bonds>  (384) 
0

>  <r_i_docking_score>  (384) 
-2.52913

>  <r_i_glide_ligand_efficiency>  (384) 
-0.0936713

>  <r_i_glide_ligand_efficiency_sa>  (384) 
-0.281014

>  <r_i_glide_ligand_efficiency_ln>  (384) 
-0.588739

>  <r_i_glide_gscore>  (384) 
-2.52913

>  <r_i_glide_lipo>  (384) 
-0.429313

>  <r_i_glide_hbond>  (384) 
0

>  <r_i_glide_metal>  (384) 
-0

>  <r_i_glide_rewards>  (384) 
-0.855589

>  <r_i_glide_evdw>  (384) 
-25.2931

>  <r_i_glide_ecoul>  (384) 
0.367577

>  <r_i_glide_erotb>  (384) 
0

>  <r_i_glide_esite>  (384) 
-0.0347041

>  <r_i_glide_emodel>  (384) 
-28.9526

>  <r_i_glide_energy>  (384) 
-24.9256

>  <r_i_glide_einternal>  (384) 
0

>  <r_i_glide_intrahb_reward>  (384) 
-0

>  <i_i_glide_confnum>  (384) 
4

>  <i_i_glide_posenum>  (384) 
14

>  <r_i_glide_eff_state_penalty>  (384) 
0

>  <ligand_id>  (384) 
109

>  <original_smiles>  (384) 
CC1C2CC3CC(CC(C3)CC13OOC1(CC4CC5CC(C4)C1C5)OO3)C2

>  <smiles>  (384) 
[H]C([H])([H])C1([H])C2(OOC3(OO2)C([H])([H])C2([H])C([H])([H])C4([H])C([H])([H])C([H])(C2([H])[H])C3([H])C4([H])[H])C([H])([H])C2([H])C([H])([H])C3([H])C([H])([H])C([H])(C2([H])[H])C([H])([H])C1([H])C3([H])[H]

$$$$
109:1:0
     RDKit          3D

 61 67  0  0  1  0  0  0  0  0999 V2000
    4.9811   -3.7911    4.4494 C   0  0  0  0  0  0  0  0  0  0  0  0
    5.0891   -3.9273    2.9190 C   0  0  2  0  0  0  0  0  0  0  0  0
    5.1524   -2.5190    2.2771 C   0  0  2  0  0  0  0  0  0  0  0  0
    6.2898   -2.0677    1.3092 C   0  0  0  0  0  0  0  0  0  0  0  0
    5.7944   -2.0161   -0.1740 C   0  0  2  0  0  0  0  0  0  0  0  0
    4.6032   -1.0457   -0.2678 C   0  0  0  0  0  0  0  0  0  0  0  0
    3.4496   -1.5546    0.6239 C   0  0  1  0  0  0  0  0  0  0  0  0
    2.9298   -2.8918    0.0283 C   0  0  0  0  0  0  0  0  0  0  0  0
    3.9906   -3.9886   -0.3244 C   0  0  1  0  0  0  0  0  0  0  0  0
    5.3821   -3.4027   -0.7658 C   0  0  0  0  0  0  0  0  0  0  0  0
    4.0857   -5.1641    0.7009 C   0  0  0  0  0  0  0  0  0  0  0  0
    4.0334   -4.9762    2.2880 C   0  0  1  0  0  0  0  0  0  0  0  0
    4.3698   -6.2359    2.8674 O   0  0  0  0  0  0  0  0  0  0  0  0
    3.4349   -7.2734    2.3301 O   0  0  0  0  0  0  0  0  0  0  0  0
    2.1033   -6.9716    2.7432 C   0  0  2  0  0  0  0  0  0  0  0  0
    2.0260   -7.0369    4.2805 C   0  0  0  0  0  0  0  0  0  0  0  0
    0.6752   -7.5447    4.8005 C   0  0  2  0  0  0  0  0  0  0  0  0
    0.6160   -9.1042    4.9120 C   0  0  0  0  0  0  0  0  0  0  0  0
    0.4124   -9.8148    3.5412 C   0  0  1  0  0  0  0  0  0  0  0  0
   -0.8277   -9.2569    2.8457 C   0  0  0  0  0  0  0  0  0  0  0  0
   -0.3499   -7.8253    2.5435 C   0  0  1  0  0  0  0  0  0  0  0  0
   -0.4569   -7.0480    3.8734 C   0  0  0  0  0  0  0  0  0  0  0  0
    1.1353   -8.0051    2.0964 C   0  0  2  0  0  0  0  0  0  0  0  0
    1.5038   -9.4298    2.5340 C   0  0  0  0  0  0  0  0  0  0  0  0
    1.7324   -5.6807    2.2279 O   0  0  0  0  0  0  0  0  0  0  0  0
    2.7175   -4.6179    2.7112 O   0  0  0  0  0  0  0  0  0  0  0  0
    3.8998   -1.6280    2.1191 C   0  0  0  0  0  0  0  0  0  0  0  0
    4.0391   -3.3295    4.7475 H   0  0  0  0  0  0  0  0  0  0  0  0
    5.7964   -3.1497    4.8322 H   0  0  0  0  0  0  0  0  0  0  0  0
    5.0751   -4.7544    4.9478 H   0  0  0  0  0  0  0  0  0  0  0  0
    6.0705   -4.3738    2.7464 H   0  0  0  0  0  0  0  0  0  0  0  0
    4.8763   -3.1205    1.5248 H   0  0  0  0  0  0  0  0  0  0  0  0
    6.6325   -1.0759    1.6095 H   0  0  0  0  0  0  0  0  0  0  0  0
    7.1574   -2.7254    1.3858 H   0  0  0  0  0  0  0  0  0  0  0  0
    6.6240   -1.6359   -0.7670 H   0  0  0  0  0  0  0  0  0  0  0  0
    4.9009   -0.0460    0.0500 H   0  0  0  0  0  0  0  0  0  0  0  0
    4.2644   -0.9714   -1.3005 H   0  0  0  0  0  0  0  0  0  0  0  0
    2.6292   -0.8391    0.5822 H   0  0  0  0  0  0  0  0  0  0  0  0
    2.1828   -3.2980    0.6980 H   0  0  0  0  0  0  0  0  0  0  0  0
    2.3888   -2.6574   -0.8921 H   0  0  0  0  0  0  0  0  0  0  0  0
    3.6114   -4.4696   -1.2071 H   0  0  0  0  0  0  0  0  0  0  0  0
    5.3916   -3.3359   -1.8611 H   0  0  0  0  0  0  0  0  0  0  0  0
    6.1663   -4.1098   -0.5197 H   0  0  0  0  0  0  0  0  0  0  0  0
    3.2553   -5.8136    0.4011 H   0  0  0  0  0  0  0  0  0  0  0  0
    4.9597   -5.7611    0.4613 H   0  0  0  0  0  0  0  0  0  0  0  0
    2.8211   -7.6836    4.6488 H   0  0  0  0  0  0  0  0  0  0  0  0
    2.2448   -6.0558    4.7199 H   0  0  0  0  0  0  0  0  0  0  0  0
    0.5252   -7.1404    5.8037 H   0  0  0  0  0  0  0  0  0  0  0  0
    1.5135   -9.4902    5.3963 H   0  0  0  0  0  0  0  0  0  0  0  0
   -0.2170   -9.3871    5.5600 H   0  0  0  0  0  0  0  0  0  0  0  0
    0.3416  -10.8972    3.6795 H   0  0  0  0  0  0  0  0  0  0  0  0
   -1.0414   -9.8157    1.9339 H   0  0  0  0  0  0  0  0  0  0  0  0
   -1.7210   -9.3090    3.4770 H   0  0  0  0  0  0  0  0  0  0  0  0
   -0.9772   -7.3728    1.7696 H   0  0  0  0  0  0  0  0  0  0  0  0
   -1.4324   -7.1925    4.3369 H   0  0  0  0  0  0  0  0  0  0  0  0
   -0.3550   -5.9763    3.7076 H   0  0  0  0  0  0  0  0  0  0  0  0
    1.2007   -7.9341    1.0117 H   0  0  0  0  0  0  0  0  0  0  0  0
    2.4990   -9.5453    2.9538 H   0  0  0  0  0  0  0  0  0  0  0  0
    1.4398  -10.1120    1.6828 H   0  0  0  0  0  0  0  0  0  0  0  0
    3.0851   -1.9808    2.7549 H   0  0  0  0  0  0  0  0  0  0  0  0
    4.1420   -0.6214    2.4687 H   0  0  0  0  0  0  0  0  0  0  0  0
  1  2  1  0
  1 28  1  0
  1 29  1  0
  1 30  1  0
  2 12  1  0
  2  3  1  0
  2 31  1  1
  3 27  1  0
  3  4  1  0
  3 32  1  1
  4  5  1  0
  4 33  1  0
  4 34  1  0
  5 10  1  0
  5  6  1  0
  5 35  1  6
  6  7  1  0
  6 36  1  0
  6 37  1  0
  7  8  1  0
  7 27  1  0
  7 38  1  1
  8  9  1  0
  8 39  1  0
  8 40  1  0
  9 10  1  0
  9 11  1  0
  9 41  1  6
 10 42  1  0
 10 43  1  0
 11 12  1  0
 11 44  1  0
 11 45  1  0
 12 26  1  6
 12 13  1  0
 13 14  1  0
 15 14  1  1
 15 23  1  0
 15 16  1  0
 15 25  1  0
 16 17  1  0
 16 46  1  0
 16 47  1  0
 17 22  1  0
 17 18  1  0
 17 48  1  1
 18 19  1  0
 18 49  1  0
 18 50  1  0
 19 24  1  0
 19 20  1  0
 19 51  1  1
 20 21  1  0
 20 52  1  0
 20 53  1  0
 21 22  1  0
 21 23  1  0
 21 54  1  6
 22 55  1  0
 22 56  1  0
 23 24  1  0
 23 57  1  6
 24 58  1  0
 24 59  1  0
 25 26  1  0
 27 60  1  0
 27 61  1  0
M  END
>  <i_m_ct_stereo_status>  (385) 
1

>  <s_m_source_file>  (385) 
/var/tmp/pbs.5076255.sched01/tmp0i_w_vt9/132llf9lao3.sdf

>  <i_m_source_file_index>  (385) 
26

>  <i_lp_mmshare_version>  (385) 
48012

>  <i_f3d_flags>  (385) 
0

>  <s_epik_input>  (385) 
W0NIMl0xW0NAQEhdKFtDSDJdMilbQ0gyXVtDQEBIXShbQ0gyXTMpW0NIMl1bQ0BIXTFbQ0gyXVtDQEBIXTNbQ0BASF0oW0NIM10pW0NAXTI0T09bQ0BAXTUoT080KVtDQEBIXTZbQ0BIXTdbQ0gyXVtDQEBIXShbQ0gyXTYpW0NIMl1bQ0BASF0oW0NIMl01KVtDSDJdNw==

>  <s_epik_cmdline>  (385) 
J2VwaWtfcHl0aG9uJywgJy1waHQnLCAnMi4wJywgJy1waCcsICc3LjAnLCAnLXRuJywgJzgnLCAnLW1hJywgJzIwMCcsICctaW1hZScsICc8aW5maWxlLm1hZT4nLCAnLW9tYWUnLCAnPG91dGZpbGUubWFlPic=

>  <r_lp_tautomer_probability>  (385) 
1

>  <r_epik_Ionization_Penalty>  (385) 
0

>  <r_epik_Ionization_Penalty_Charging>  (385) 
0

>  <r_epik_Ionization_Penalty_Neutral>  (385) 
0

>  <r_epik_State_Penalty>  (385) 
-0

>  <r_epik_Charging_Adjusted_Penalty>  (385) 
0

>  <i_epik_Tot_Q>  (385) 
0

>  <i_epik_Tot_abs_Q>  (385) 
0

>  <s_lp_Force_Field>  (385) 
OPLS3e

>  <r_lp_Energy>  (385) 
116.797

>  <b_lp_Chiralities_Consistent>  (385) 
1

>  <s_lp_Variant>  (385) 
109:0-2

>  <s_i_glide_gridfile>  (385) 
pfpi4k_grid

>  <i_i_glide_lignum>  (385) 
26

>  <i_i_glide_rotatable_bonds>  (385) 
0

>  <r_i_docking_score>  (385) 
-2.80367

>  <r_i_glide_ligand_efficiency>  (385) 
-0.10384

>  <r_i_glide_ligand_efficiency_sa>  (385) 
-0.311519

>  <r_i_glide_ligand_efficiency_ln>  (385) 
-0.652649

>  <r_i_glide_gscore>  (385) 
-2.80367

>  <r_i_glide_lipo>  (385) 
-0.397633

>  <r_i_glide_hbond>  (385) 
0

>  <r_i_glide_metal>  (385) 
-0

>  <r_i_glide_rewards>  (385) 
-0.858152

>  <r_i_glide_evdw>  (385) 
-29.3251

>  <r_i_glide_ecoul>  (385) 
-0.488359

>  <r_i_glide_erotb>  (385) 
0

>  <r_i_glide_esite>  (385) 
-0.00837659

>  <r_i_glide_emodel>  (385) 
-34.5088

>  <r_i_glide_energy>  (385) 
-29.8135

>  <r_i_glide_einternal>  (385) 
0

>  <r_i_glide_intrahb_reward>  (385) 
-0

>  <i_i_glide_confnum>  (385) 
2

>  <i_i_glide_posenum>  (385) 
35

>  <r_i_glide_eff_state_penalty>  (385) 
0

>  <ligand_id>  (385) 
109

>  <original_smiles>  (385) 
CC1C2CC3CC(CC(C3)CC13OOC1(CC4CC5CC(C4)C1C5)OO3)C2

>  <smiles>  (385) 
[H]C([H])([H])C1([H])C2(OOC3(OO2)C([H])([H])C2([H])C([H])([H])C4([H])C([H])([H])C([H])(C2([H])[H])C3([H])C4([H])[H])C([H])([H])C2([H])C([H])([H])C3([H])C([H])([H])C([H])(C2([H])[H])C([H])([H])C1([H])C3([H])[H]

$$$$
109:1:1
     RDKit          3D

 61 67  0  0  1  0  0  0  0  0999 V2000
    2.2115   -2.0545    2.6940 C   0  0  0  0  0  0  0  0  0  0  0  0
    3.5541   -2.6829    2.2624 C   0  0  2  0  0  0  0  0  0  0  0  0
    4.0380   -2.0077    0.9351 C   0  0  2  0  0  0  0  0  0  0  0  0
    5.4207   -1.3270    0.7826 C   0  0  0  0  0  0  0  0  0  0  0  0
    6.3860   -2.2272   -0.0792 C   0  0  2  0  0  0  0  0  0  0  0  0
    5.7502   -2.4711   -1.4612 C   0  0  0  0  0  0  0  0  0  0  0  0
    4.4113   -3.2175   -1.2863 C   0  0  1  0  0  0  0  0  0  0  0  0
    4.7032   -4.6407   -0.7269 C   0  0  0  0  0  0  0  0  0  0  0  0
    5.6574   -4.7411    0.5026 C   0  0  1  0  0  0  0  0  0  0  0  0
    6.7499   -3.6085    0.5638 C   0  0  0  0  0  0  0  0  0  0  0  0
    4.9286   -5.0122    1.8724 C   0  0  0  0  0  0  0  0  0  0  0  0
    3.5786   -4.2840    2.3067 C   0  0  1  0  0  0  0  0  0  0  0  0
    3.3565   -4.6306    3.6739 O   0  0  0  0  0  0  0  0  0  0  0  0
    3.3653   -6.1198    3.8285 O   0  0  0  0  0  0  0  0  0  0  0  0
    2.2803   -6.6723    3.0861 C   0  0  2  0  0  0  0  0  0  0  0  0
    0.9661   -6.1528    3.6990 C   0  0  0  0  0  0  0  0  0  0  0  0
   -0.1814   -7.1907    3.6336 C   0  0  2  0  0  0  0  0  0  0  0  0
   -0.1953   -8.1566    4.8620 C   0  0  0  0  0  0  0  0  0  0  0  0
    0.8837   -9.2763    4.7862 C   0  0  1  0  0  0  0  0  0  0  0  0
    0.7478  -10.0408    3.4733 C   0  0  0  0  0  0  0  0  0  0  0  0
    1.1619   -8.9463    2.4738 C   0  0  1  0  0  0  0  0  0  0  0  0
   -0.0565   -8.0056    2.3310 C   0  0  0  0  0  0  0  0  0  0  0  0
    2.3626   -8.2093    3.1645 C   0  0  2  0  0  0  0  0  0  0  0  0
    2.2949   -8.6992    4.6345 C   0  0  0  0  0  0  0  0  0  0  0  0
    2.4044   -6.3041    1.7057 O   0  0  0  0  0  0  0  0  0  0  0  0
    2.4746   -4.7991    1.5634 O   0  0  0  0  0  0  0  0  0  0  0  0
    3.4209   -2.3655   -0.4288 C   0  0  0  0  0  0  0  0  0  0  0  0
    1.4180   -2.2891    1.9843 H   0  0  0  0  0  0  0  0  0  0  0  0
    2.2918   -0.9661    2.7397 H   0  0  0  0  0  0  0  0  0  0  0  0
    1.9139   -2.4040    3.6793 H   0  0  0  0  0  0  0  0  0  0  0  0
    4.2725   -2.3543    3.0237 H   0  0  0  0  0  0  0  0  0  0  0  0
    4.5470   -2.8703    0.9818 H   0  0  0  0  0  0  0  0  0  0  0  0
    5.2920   -0.3678    0.2809 H   0  0  0  0  0  0  0  0  0  0  0  0
    5.8736   -1.0991    1.7486 H   0  0  0  0  0  0  0  0  0  0  0  0
    7.3150   -1.6714   -0.1955 H   0  0  0  0  0  0  0  0  0  0  0  0
    5.5844   -1.5249   -1.9758 H   0  0  0  0  0  0  0  0  0  0  0  0
    6.4278   -3.0627   -2.0849 H   0  0  0  0  0  0  0  0  0  0  0  0
    3.9459   -3.3450   -2.2629 H   0  0  0  0  0  0  0  0  0  0  0  0
    3.7628   -5.1374   -0.5221 H   0  0  0  0  0  0  0  0  0  0  0  0
    5.1372   -5.2242   -1.5444 H   0  0  0  0  0  0  0  0  0  0  0  0
    6.2269   -5.6488    0.3507 H   0  0  0  0  0  0  0  0  0  0  0  0
    7.6686   -3.9849    0.0951 H   0  0  0  0  0  0  0  0  0  0  0  0
    7.0159   -3.4216    1.6008 H   0  0  0  0  0  0  0  0  0  0  0  0
    4.7779   -6.0822    1.8355 H   0  0  0  0  0  0  0  0  0  0  0  0
    5.6566   -4.8820    2.6659 H   0  0  0  0  0  0  0  0  0  0  0  0
    1.1382   -5.8807    4.7413 H   0  0  0  0  0  0  0  0  0  0  0  0
    0.6483   -5.2301    3.2168 H   0  0  0  0  0  0  0  0  0  0  0  0
   -1.1270   -6.6498    3.6397 H   0  0  0  0  0  0  0  0  0  0  0  0
   -0.0830   -7.5978    5.7907 H   0  0  0  0  0  0  0  0  0  0  0  0
   -1.1735   -8.6408    4.9190 H   0  0  0  0  0  0  0  0  0  0  0  0
    0.8055   -9.9446    5.6484 H   0  0  0  0  0  0  0  0  0  0  0  0
    1.4302  -10.8929    3.4445 H   0  0  0  0  0  0  0  0  0  0  0  0
   -0.2642  -10.4279    3.3176 H   0  0  0  0  0  0  0  0  0  0  0  0
    1.4359   -9.3853    1.5170 H   0  0  0  0  0  0  0  0  0  0  0  0
   -0.9663   -8.5773    2.1392 H   0  0  0  0  0  0  0  0  0  0  0  0
    0.0659   -7.3484    1.4662 H   0  0  0  0  0  0  0  0  0  0  0  0
    3.2938   -8.5696    2.7248 H   0  0  0  0  0  0  0  0  0  0  0  0
    2.5001   -7.9254    5.3722 H   0  0  0  0  0  0  0  0  0  0  0  0
    3.0224   -9.4978    4.7999 H   0  0  0  0  0  0  0  0  0  0  0  0
    2.4670   -2.8860   -0.3117 H   0  0  0  0  0  0  0  0  0  0  0  0
    3.1891   -1.4431   -0.9623 H   0  0  0  0  0  0  0  0  0  0  0  0
  1  2  1  0
  1 28  1  0
  1 29  1  0
  1 30  1  0
  2 12  1  0
  2  3  1  0
  2 31  1  1
  3 27  1  0
  3  4  1  0
  3 32  1  1
  4  5  1  0
  4 33  1  0
  4 34  1  0
  5 10  1  0
  5  6  1  0
  5 35  1  6
  6  7  1  0
  6 36  1  0
  6 37  1  0
  7  8  1  0
  7 27  1  0
  7 38  1  6
  8  9  1  0
  8 39  1  0
  8 40  1  0
  9 10  1  0
  9 11  1  0
  9 41  1  6
 10 42  1  0
 10 43  1  0
 11 12  1  0
 11 44  1  0
 11 45  1  0
 12 26  1  6
 12 13  1  0
 13 14  1  0
 15 14  1  1
 15 23  1  0
 15 16  1  0
 15 25  1  0
 16 17  1  0
 16 46  1  0
 16 47  1  0
 17 22  1  0
 17 18  1  0
 17 48  1  6
 18 19  1  0
 18 49  1  0
 18 50  1  0
 19 24  1  0
 19 20  1  0
 19 51  1  1
 20 21  1  0
 20 52  1  0
 20 53  1  0
 21 22  1  0
 21 23  1  0
 21 54  1  6
 22 55  1  0
 22 56  1  0
 23 24  1  0
 23 57  1  6
 24 58  1  0
 24 59  1  0
 25 26  1  0
 27 60  1  0
 27 61  1  0
M  END
>  <i_m_ct_stereo_status>  (386) 
1

>  <s_m_source_file>  (386) 
/var/tmp/pbs.5076255.sched01/tmp0i_w_vt9/132llf9lao3.sdf

>  <i_m_source_file_index>  (386) 
26

>  <i_lp_mmshare_version>  (386) 
48012

>  <i_f3d_flags>  (386) 
0

>  <s_epik_input>  (386) 
W0NIMl0xW0NAQEhdKFtDSDJdMilbQ0gyXVtDQEBIXShbQ0gyXTMpW0NIMl1bQ0BIXTFbQ0gyXVtDQEBIXTNbQ0BASF0oW0NIM10pW0NAXTI0T09bQ0BAXTUoT080KVtDQEBIXTZbQ0BIXTdbQ0gyXVtDQEBIXShbQ0gyXTYpW0NIMl1bQ0BASF0oW0NIMl01KVtDSDJdNw==

>  <s_epik_cmdline>  (386) 
J2VwaWtfcHl0aG9uJywgJy1waHQnLCAnMi4wJywgJy1waCcsICc3LjAnLCAnLXRuJywgJzgnLCAnLW1hJywgJzIwMCcsICctaW1hZScsICc8aW5maWxlLm1hZT4nLCAnLW9tYWUnLCAnPG91dGZpbGUubWFlPic=

>  <r_lp_tautomer_probability>  (386) 
1

>  <r_epik_Ionization_Penalty>  (386) 
0

>  <r_epik_Ionization_Penalty_Charging>  (386) 
0

>  <r_epik_Ionization_Penalty_Neutral>  (386) 
0

>  <r_epik_State_Penalty>  (386) 
-0

>  <r_epik_Charging_Adjusted_Penalty>  (386) 
0

>  <i_epik_Tot_Q>  (386) 
0

>  <i_epik_Tot_abs_Q>  (386) 
0

>  <s_lp_Force_Field>  (386) 
OPLS3e

>  <r_lp_Energy>  (386) 
116.797

>  <b_lp_Chiralities_Consistent>  (386) 
1

>  <s_lp_Variant>  (386) 
109:0-2

>  <s_i_glide_gridfile>  (386) 
pfpi4k_grid

>  <i_i_glide_lignum>  (386) 
26

>  <i_i_glide_rotatable_bonds>  (386) 
0

>  <r_i_docking_score>  (386) 
-2.76183

>  <r_i_glide_ligand_efficiency>  (386) 
-0.10229

>  <r_i_glide_ligand_efficiency_sa>  (386) 
-0.30687

>  <r_i_glide_ligand_efficiency_ln>  (386) 
-0.642909

>  <r_i_glide_gscore>  (386) 
-2.76183

>  <r_i_glide_lipo>  (386) 
-0.333546

>  <r_i_glide_hbond>  (386) 
0

>  <r_i_glide_metal>  (386) 
-0

>  <r_i_glide_rewards>  (386) 
-0.856498

>  <r_i_glide_evdw>  (386) 
-29.6538

>  <r_i_glide_ecoul>  (386) 
-0.567079

>  <r_i_glide_erotb>  (386) 
0

>  <r_i_glide_esite>  (386) 
-0.00403601

>  <r_i_glide_emodel>  (386) 
-34.8213

>  <r_i_glide_energy>  (386) 
-30.2209

>  <r_i_glide_einternal>  (386) 
0

>  <r_i_glide_intrahb_reward>  (386) 
-0

>  <i_i_glide_confnum>  (386) 
2

>  <i_i_glide_posenum>  (386) 
40

>  <r_i_glide_eff_state_penalty>  (386) 
0

>  <ligand_id>  (386) 
109

>  <original_smiles>  (386) 
CC1C2CC3CC(CC(C3)CC13OOC1(CC4CC5CC(C4)C1C5)OO3)C2

>  <smiles>  (386) 
[H]C([H])([H])C1([H])C2(OOC3(OO2)C([H])([H])C2([H])C([H])([H])C4([H])C([H])([H])C([H])(C2([H])[H])C3([H])C4([H])[H])C([H])([H])C2([H])C([H])([H])C3([H])C([H])([H])C([H])(C2([H])[H])C([H])([H])C1([H])C3([H])[H]

$$$$
109:1:2
     RDKit          3D

 61 67  0  0  1  0  0  0  0  0999 V2000
    4.7883   -9.0310    1.2660 C   0  0  0  0  0  0  0  0  0  0  0  0
    4.1095   -8.4738    2.5358 C   0  0  2  0  0  0  0  0  0  0  0  0
    2.8475   -9.3427    2.8704 C   0  0  2  0  0  0  0  0  0  0  0  0
    2.6348  -10.0386    4.2340 C   0  0  0  0  0  0  0  0  0  0  0  0
    1.5340   -9.2841    5.0724 C   0  0  2  0  0  0  0  0  0  0  0  0
    0.2198   -9.2488    4.2705 C   0  0  0  0  0  0  0  0  0  0  0  0
    0.4376   -8.4847    2.9496 C   0  0  1  0  0  0  0  0  0  0  0  0
    0.7160   -6.9871    3.2880 C   0  0  0  0  0  0  0  0  0  0  0  0
    1.8094   -6.7116    4.3705 C   0  0  1  0  0  0  0  0  0  0  0  0
    1.9090   -7.8174    5.4864 C   0  0  0  0  0  0  0  0  0  0  0  0
    3.2029   -6.2349    3.8086 C   0  0  0  0  0  0  0  0  0  0  0  0
    3.9034   -6.8840    2.5357 C   0  0  1  0  0  0  0  0  0  0  0  0
    5.2167   -6.3390    2.4650 O   0  0  0  0  0  0  0  0  0  0  0  0
    5.1516   -4.8371    2.4641 O   0  0  0  0  0  0  0  0  0  0  0  0
    4.4635   -4.4170    1.2971 C   0  0  2  0  0  0  0  0  0  0  0  0
    5.2994   -4.8327    0.0727 C   0  0  0  0  0  0  0  0  0  0  0  0
    5.2192   -3.8164   -1.0921 C   0  0  2  0  0  0  0  0  0  0  0  0
    6.2839   -2.6781   -0.9806 C   0  0  0  0  0  0  0  0  0  0  0  0
    5.9108   -1.5817    0.0647 C   0  0  1  0  0  0  0  0  0  0  0  0
    4.5222   -1.0269   -0.2434 C   0  0  0  0  0  0  0  0  0  0  0  0
    3.6609   -2.2587    0.0678 C   0  0  1  0  0  0  0  0  0  0  0  0
    3.8027   -3.2073   -1.1406 C   0  0  0  0  0  0  0  0  0  0  0  0
    4.2989   -2.8833    1.3556 C   0  0  2  0  0  0  0  0  0  0  0  0
    5.6772   -2.1748    1.4558 C   0  0  0  0  0  0  0  0  0  0  0  0
    3.1526   -4.9803    1.2697 O   0  0  0  0  0  0  0  0  0  0  0  0
    3.2289   -6.4884    1.3506 O   0  0  0  0  0  0  0  0  0  0  0  0
    1.5373   -9.1902    2.0839 C   0  0  0  0  0  0  0  0  0  0  0  0
    4.1511   -8.9035    0.3916 H   0  0  0  0  0  0  0  0  0  0  0  0
    4.9881  -10.1000    1.3710 H   0  0  0  0  0  0  0  0  0  0  0  0
    5.7379   -8.5349    1.0816 H   0  0  0  0  0  0  0  0  0  0  0  0
    4.8174   -8.6861    3.3467 H   0  0  0  0  0  0  0  0  0  0  0  0
    2.7008   -8.4832    3.3657 H   0  0  0  0  0  0  0  0  0  0  0  0
    2.2994  -11.0642    4.0680 H   0  0  0  0  0  0  0  0  0  0  0  0
    3.5587  -10.1186    4.8057 H   0  0  0  0  0  0  0  0  0  0  0  0
    1.3851   -9.8606    5.9869 H   0  0  0  0  0  0  0  0  0  0  0  0
   -0.1231  -10.2655    4.0691 H   0  0  0  0  0  0  0  0  0  0  0  0
   -0.5628   -8.7671    4.8630 H   0  0  0  0  0  0  0  0  0  0  0  0
   -0.4827   -8.5223    2.3667 H   0  0  0  0  0  0  0  0  0  0  0  0
    0.9573   -6.4667    2.3674 H   0  0  0  0  0  0  0  0  0  0  0  0
   -0.2220   -6.5431    3.6330 H   0  0  0  0  0  0  0  0  0  0  0  0
    1.4625   -5.8358    4.9077 H   0  0  0  0  0  0  0  0  0  0  0  0
    1.2831   -7.5213    6.3366 H   0  0  0  0  0  0  0  0  0  0  0  0
    2.9214   -7.8491    5.8789 H   0  0  0  0  0  0  0  0  0  0  0  0
    3.0254   -5.1838    3.6401 H   0  0  0  0  0  0  0  0  0  0  0  0
    3.9125   -6.2460    4.6290 H   0  0  0  0  0  0  0  0  0  0  0  0
    6.3446   -4.9472    0.3675 H   0  0  0  0  0  0  0  0  0  0  0  0
    5.0015   -5.8140   -0.2918 H   0  0  0  0  0  0  0  0  0  0  0  0
    5.4088   -4.3595   -2.0189 H   0  0  0  0  0  0  0  0  0  0  0  0
    7.2659   -3.0927   -0.7489 H   0  0  0  0  0  0  0  0  0  0  0  0
    6.3840   -2.2015   -1.9582 H   0  0  0  0  0  0  0  0  0  0  0  0
    6.6633   -0.7898    0.0913 H   0  0  0  0  0  0  0  0  0  0  0  0
    4.2828   -0.1891    0.4142 H   0  0  0  0  0  0  0  0  0  0  0  0
    4.4292   -0.6675   -1.2735 H   0  0  0  0  0  0  0  0  0  0  0  0
    2.6159   -1.9668    0.2051 H   0  0  0  0  0  0  0  0  0  0  0  0
    3.6366   -2.6772   -2.0780 H   0  0  0  0  0  0  0  0  0  0  0  0
    3.0448   -3.9954   -1.1108 H   0  0  0  0  0  0  0  0  0  0  0  0
    3.7021   -2.5931    2.2229 H   0  0  0  0  0  0  0  0  0  0  0  0
    6.4926   -2.8274    1.7594 H   0  0  0  0  0  0  0  0  0  0  0  0
    5.6323   -1.3608    2.1848 H   0  0  0  0  0  0  0  0  0  0  0  0
    1.6903   -8.6596    1.1458 H   0  0  0  0  0  0  0  0  0  0  0  0
    1.1789  -10.1855    1.8187 H   0  0  0  0  0  0  0  0  0  0  0  0
  1  2  1  0
  1 28  1  0
  1 29  1  0
  1 30  1  0
  2 12  1  0
  2  3  1  0
  2 31  1  1
  3 27  1  0
  3  4  1  0
  3 32  1  6
  4  5  1  0
  4 33  1  0
  4 34  1  0
  5 10  1  0
  5  6  1  0
  5 35  1  1
  6  7  1  0
  6 36  1  0
  6 37  1  0
  7  8  1  0
  7 27  1  0
  7 38  1  6
  8  9  1  0
  8 39  1  0
  8 40  1  0
  9 10  1  0
  9 11  1  0
  9 41  1  1
 10 42  1  0
 10 43  1  0
 11 12  1  0
 11 44  1  0
 11 45  1  0
 12 26  1  6
 12 13  1  0
 13 14  1  0
 15 14  1  1
 15 23  1  0
 15 16  1  0
 15 25  1  0
 16 17  1  0
 16 46  1  0
 16 47  1  0
 17 22  1  0
 17 18  1  0
 17 48  1  6
 18 19  1  0
 18 49  1  0
 18 50  1  0
 19 24  1  0
 19 20  1  0
 19 51  1  1
 20 21  1  0
 20 52  1  0
 20 53  1  0
 21 22  1  0
 21 23  1  0
 21 54  1  1
 22 55  1  0
 22 56  1  0
 23 24  1  0
 23 57  1  1
 24 58  1  0
 24 59  1  0
 25 26  1  0
 27 60  1  0
 27 61  1  0
M  END
>  <i_m_ct_stereo_status>  (387) 
1

>  <s_m_source_file>  (387) 
/var/tmp/pbs.5076255.sched01/tmp0i_w_vt9/132llf9lao3.sdf

>  <i_m_source_file_index>  (387) 
26

>  <i_lp_mmshare_version>  (387) 
48012

>  <i_f3d_flags>  (387) 
0

>  <s_epik_input>  (387) 
W0NIMl0xW0NAQEhdKFtDSDJdMilbQ0gyXVtDQEBIXShbQ0gyXTMpW0NIMl1bQ0BIXTFbQ0gyXVtDQEBIXTNbQ0BASF0oW0NIM10pW0NAXTI0T09bQ0BAXTUoT080KVtDQEBIXTZbQ0BIXTdbQ0gyXVtDQEBIXShbQ0gyXTYpW0NIMl1bQ0BASF0oW0NIMl01KVtDSDJdNw==

>  <s_epik_cmdline>  (387) 
J2VwaWtfcHl0aG9uJywgJy1waHQnLCAnMi4wJywgJy1waCcsICc3LjAnLCAnLXRuJywgJzgnLCAnLW1hJywgJzIwMCcsICctaW1hZScsICc8aW5maWxlLm1hZT4nLCAnLW9tYWUnLCAnPG91dGZpbGUubWFlPic=

>  <r_lp_tautomer_probability>  (387) 
1

>  <r_epik_Ionization_Penalty>  (387) 
0

>  <r_epik_Ionization_Penalty_Charging>  (387) 
0

>  <r_epik_Ionization_Penalty_Neutral>  (387) 
0

>  <r_epik_State_Penalty>  (387) 
-0

>  <r_epik_Charging_Adjusted_Penalty>  (387) 
0

>  <i_epik_Tot_Q>  (387) 
0

>  <i_epik_Tot_abs_Q>  (387) 
0

>  <s_lp_Force_Field>  (387) 
OPLS3e

>  <r_lp_Energy>  (387) 
116.797

>  <b_lp_Chiralities_Consistent>  (387) 
1

>  <s_lp_Variant>  (387) 
109:0-2

>  <s_i_glide_gridfile>  (387) 
pfpi4k_grid

>  <i_i_glide_lignum>  (387) 
26

>  <i_i_glide_rotatable_bonds>  (387) 
0

>  <r_i_docking_score>  (387) 
-2.67873

>  <r_i_glide_ligand_efficiency>  (387) 
-0.0992123

>  <r_i_glide_ligand_efficiency_sa>  (387) 
-0.297637

>  <r_i_glide_ligand_efficiency_ln>  (387) 
-0.623564

>  <r_i_glide_gscore>  (387) 
-2.67873

>  <r_i_glide_lipo>  (387) 
-0.243547

>  <r_i_glide_hbond>  (387) 
0

>  <r_i_glide_metal>  (387) 
-0

>  <r_i_glide_rewards>  (387) 
-0.889156

>  <r_i_glide_evdw>  (387) 
-29.169

>  <r_i_glide_ecoul>  (387) 
-0.58386

>  <r_i_glide_erotb>  (387) 
0

>  <r_i_glide_esite>  (387) 
0

>  <r_i_glide_emodel>  (387) 
-34.3296

>  <r_i_glide_energy>  (387) 
-29.7528

>  <r_i_glide_einternal>  (387) 
0

>  <r_i_glide_intrahb_reward>  (387) 
-0

>  <i_i_glide_confnum>  (387) 
2

>  <i_i_glide_posenum>  (387) 
13

>  <r_i_glide_eff_state_penalty>  (387) 
0

>  <ligand_id>  (387) 
109

>  <original_smiles>  (387) 
CC1C2CC3CC(CC(C3)CC13OOC1(CC4CC5CC(C4)C1C5)OO3)C2

>  <smiles>  (387) 
[H]C([H])([H])C1([H])C2(OOC3(OO2)C([H])([H])C2([H])C([H])([H])C4([H])C([H])([H])C([H])(C2([H])[H])C3([H])C4([H])[H])C([H])([H])C2([H])C([H])([H])C3([H])C([H])([H])C([H])(C2([H])[H])C([H])([H])C1([H])C3([H])[H]

$$$$
109:2:0
     RDKit          3D

 61 67  0  0  1  0  0  0  0  0999 V2000
    2.1505   -2.0319    2.8696 C   0  0  0  0  0  0  0  0  0  0  0  0
    3.5231   -2.5899    2.4101 C   0  0  2  0  0  0  0  0  0  0  0  0
    3.9933   -1.7462    1.1311 C   0  0  1  0  0  0  0  0  0  0  0  0
    5.5426   -1.4096    1.0821 C   0  0  0  0  0  0  0  0  0  0  0  0
    6.4352   -2.2085    0.0665 C   0  0  2  0  0  0  0  0  0  0  0  0
    5.7115   -2.2767   -1.2948 C   0  0  0  0  0  0  0  0  0  0  0  0
    4.3937   -3.0684   -1.1504 C   0  0  1  0  0  0  0  0  0  0  0  0
    4.6899   -4.5294   -0.6712 C   0  0  0  0  0  0  0  0  0  0  0  0
    5.5149   -4.5289    0.6259 C   0  0  2  0  0  0  0  0  0  0  0  0
    6.7895   -3.6703    0.5245 C   0  0  0  0  0  0  0  0  0  0  0  0
    4.8959   -4.9354    1.9822 C   0  0  0  0  0  0  0  0  0  0  0  0
    3.5424   -4.1946    2.4318 C   0  0  1  0  0  0  0  0  0  0  0  0
    3.3287   -4.5541    3.8083 O   0  0  0  0  0  0  0  0  0  0  0  0
    3.3265   -6.0454    3.9029 O   0  0  0  0  0  0  0  0  0  0  0  0
    2.2355   -6.5885    3.1410 C   0  0  2  0  0  0  0  0  0  0  0  0
    0.8997   -6.0829    3.7392 C   0  0  0  0  0  0  0  0  0  0  0  0
   -0.2389   -7.1220    3.6338 C   0  0  2  0  0  0  0  0  0  0  0  0
   -0.2710   -8.1060    4.8450 C   0  0  0  0  0  0  0  0  0  0  0  0
    0.8166   -9.2171    4.7757 C   0  0  1  0  0  0  0  0  0  0  0  0
    0.7112   -9.9640    3.4486 C   0  0  0  0  0  0  0  0  0  0  0  0
    1.1377   -8.8555    2.4755 C   0  0  1  0  0  0  0  0  0  0  0  0
   -0.0810   -7.9157    2.3205 C   0  0  0  0  0  0  0  0  0  0  0  0
    2.3194   -8.1381    3.2066 C   0  0  2  0  0  0  0  0  0  0  0  0
    2.2251   -8.6334    4.6666 C   0  0  0  0  0  0  0  0  0  0  0  0
    2.3767   -6.2071    1.7557 O   0  0  0  0  0  0  0  0  0  0  0  0
    2.4442   -4.6871    1.6383 O   0  0  0  0  0  0  0  0  0  0  0  0
    3.4222   -2.2640   -0.2340 C   0  0  0  0  0  0  0  0  0  0  0  0
    1.3716   -2.2103    2.1268 H   0  0  0  0  0  0  0  0  0  0  0  0
    2.1916   -0.9490    3.0209 H   0  0  0  0  0  0  0  0  0  0  0  0
    1.8235   -2.4573    3.8160 H   0  0  0  0  0  0  0  0  0  0  0  0
    4.1954   -2.2891    3.2132 H   0  0  0  0  0  0  0  0  0  0  0  0
    3.5359   -0.7633    1.2678 H   0  0  0  0  0  0  0  0  0  0  0  0
    5.6535   -0.3444    0.8606 H   0  0  0  0  0  0  0  0  0  0  0  0
    5.9792   -1.5289    2.0725 H   0  0  0  0  0  0  0  0  0  0  0  0
    7.3819   -1.6755   -0.0419 H   0  0  0  0  0  0  0  0  0  0  0  0
    5.4970   -1.2694   -1.6534 H   0  0  0  0  0  0  0  0  0  0  0  0
    6.3537   -2.7544   -2.0352 H   0  0  0  0  0  0  0  0  0  0  0  0
    3.9202   -3.1541   -2.1320 H   0  0  0  0  0  0  0  0  0  0  0  0
    3.7660   -5.0927   -0.5543 H   0  0  0  0  0  0  0  0  0  0  0  0
    5.2555   -5.0490   -1.4442 H   0  0  0  0  0  0  0  0  0  0  0  0
    5.0558   -3.6978    0.9612 H   0  0  0  0  0  0  0  0  0  0  0  0
    7.4581   -4.1233   -0.2075 H   0  0  0  0  0  0  0  0  0  0  0  0
    7.3402   -3.6598    1.4656 H   0  0  0  0  0  0  0  0  0  0  0  0
    4.7907   -6.0186    1.9518 H   0  0  0  0  0  0  0  0  0  0  0  0
    5.6397   -4.7440    2.7554 H   0  0  0  0  0  0  0  0  0  0  0  0
    1.0525   -5.8187    4.7864 H   0  0  0  0  0  0  0  0  0  0  0  0
    0.5979   -5.1519    3.2595 H   0  0  0  0  0  0  0  0  0  0  0  0
   -1.1852   -6.5862    3.6278 H   0  0  0  0  0  0  0  0  0  0  0  0
   -0.1826   -7.5608    5.7843 H   0  0  0  0  0  0  0  0  0  0  0  0
   -1.2473   -8.5947    4.8755 H   0  0  0  0  0  0  0  0  0  0  0  0
    0.7233   -9.8986    5.6253 H   0  0  0  0  0  0  0  0  0  0  0  0
    1.4033  -10.8078    3.4219 H   0  0  0  0  0  0  0  0  0  0  0  0
   -0.2917  -10.3554    3.2633 H   0  0  0  0  0  0  0  0  0  0  0  0
    1.4288   -9.2730    1.5156 H   0  0  0  0  0  0  0  0  0  0  0  0
   -0.9815   -8.4895    2.1013 H   0  0  0  0  0  0  0  0  0  0  0  0
    0.0572   -7.2439    1.4685 H   0  0  0  0  0  0  0  0  0  0  0  0
    3.2661   -8.4677    2.7786 H   0  0  0  0  0  0  0  0  0  0  0  0
    2.4094   -7.8649    5.4153 H   0  0  0  0  0  0  0  0  0  0  0  0
    2.9556   -9.4258    4.8335 H   0  0  0  0  0  0  0  0  0  0  0  0
    2.5173   -2.8472   -0.0688 H   0  0  0  0  0  0  0  0  0  0  0  0
    3.0863   -1.3929   -0.8018 H   0  0  0  0  0  0  0  0  0  0  0  0
  1  2  1  0
  1 28  1  0
  1 29  1  0
  1 30  1  0
  2 12  1  0
  2  3  1  0
  2 31  1  1
  3 27  1  0
  3  4  1  0
  3 32  1  1
  4  5  1  0
  4 33  1  0
  4 34  1  0
  5 10  1  0
  5  6  1  0
  5 35  1  6
  6  7  1  0
  6 36  1  0
  6 37  1  0
  7  8  1  0
  7 27  1  0
  7 38  1  6
  8  9  1  0
  8 39  1  0
  8 40  1  0
  9 10  1  0
  9 11  1  0
  9 41  1  6
 10 42  1  0
 10 43  1  0
 11 12  1  0
 11 44  1  0
 11 45  1  0
 12 26  1  6
 12 13  1  0
 13 14  1  0
 15 14  1  1
 15 23  1  0
 15 16  1  0
 15 25  1  0
 16 17  1  0
 16 46  1  0
 16 47  1  0
 17 22  1  0
 17 18  1  0
 17 48  1  6
 18 19  1  0
 18 49  1  0
 18 50  1  0
 19 24  1  0
 19 20  1  0
 19 51  1  1
 20 21  1  0
 20 52  1  0
 20 53  1  0
 21 22  1  0
 21 23  1  0
 21 54  1  6
 22 55  1  0
 22 56  1  0
 23 24  1  0
 23 57  1  6
 24 58  1  0
 24 59  1  0
 25 26  1  0
 27 60  1  0
 27 61  1  0
M  END
>  <i_m_ct_stereo_status>  (388) 
1

>  <s_m_source_file>  (388) 
/var/tmp/pbs.5076255.sched01/tmp0i_w_vt9/132llf9lao3.sdf

>  <i_m_source_file_index>  (388) 
27

>  <i_lp_mmshare_version>  (388) 
48012

>  <i_f3d_flags>  (388) 
0

>  <s_epik_input>  (388) 
W0NIMl0xW0NAQEhdKFtDSDJdMilbQ0gyXVtDQEBIXShbQ0gyXTMpW0NIMl1bQ0BIXTFbQ0gyXVtDQEBIXTNbQ0BASF0oW0NIM10pW0NAXTI0T09bQ0BAXTUoT080KVtDQEBIXTZbQ0BIXTdbQ0gyXVtDQEBIXShbQ0gyXTYpW0NIMl1bQ0BASF0oW0NIMl01KVtDSDJdNw==

>  <s_epik_cmdline>  (388) 
J2VwaWtfcHl0aG9uJywgJy1waHQnLCAnMi4wJywgJy1waCcsICc3LjAnLCAnLXRuJywgJzgnLCAnLW1hJywgJzIwMCcsICctaW1hZScsICc8aW5maWxlLm1hZT4nLCAnLW9tYWUnLCAnPG91dGZpbGUubWFlPic=

>  <r_lp_tautomer_probability>  (388) 
1

>  <r_epik_Ionization_Penalty>  (388) 
0

>  <r_epik_Ionization_Penalty_Charging>  (388) 
0

>  <r_epik_Ionization_Penalty_Neutral>  (388) 
0

>  <r_epik_State_Penalty>  (388) 
-0

>  <r_epik_Charging_Adjusted_Penalty>  (388) 
0

>  <i_epik_Tot_Q>  (388) 
0

>  <i_epik_Tot_abs_Q>  (388) 
0

>  <s_lp_Force_Field>  (388) 
OPLS3e

>  <r_lp_Energy>  (388) 
118.432

>  <b_lp_Chiralities_Consistent>  (388) 
1

>  <s_lp_Variant>  (388) 
109:0-3

>  <s_i_glide_gridfile>  (388) 
pfpi4k_grid

>  <i_i_glide_lignum>  (388) 
27

>  <i_i_glide_rotatable_bonds>  (388) 
0

>  <r_i_docking_score>  (388) 
-2.77115

>  <r_i_glide_ligand_efficiency>  (388) 
-0.102635

>  <r_i_glide_ligand_efficiency_sa>  (388) 
-0.307906

>  <r_i_glide_ligand_efficiency_ln>  (388) 
-0.645078

>  <r_i_glide_gscore>  (388) 
-2.77115

>  <r_i_glide_lipo>  (388) 
-0.335437

>  <r_i_glide_hbond>  (388) 
0

>  <r_i_glide_metal>  (388) 
-0

>  <r_i_glide_rewards>  (388) 
-0.855838

>  <r_i_glide_evdw>  (388) 
-29.5783

>  <r_i_glide_ecoul>  (388) 
-0.648408

>  <r_i_glide_erotb>  (388) 
0

>  <r_i_glide_esite>  (388) 
-0.00369753

>  <r_i_glide_emodel>  (388) 
-35.2874

>  <r_i_glide_energy>  (388) 
-30.2268

>  <r_i_glide_einternal>  (388) 
0

>  <r_i_glide_intrahb_reward>  (388) 
-0

>  <i_i_glide_confnum>  (388) 
1

>  <i_i_glide_posenum>  (388) 
2

>  <r_i_glide_eff_state_penalty>  (388) 
0

>  <ligand_id>  (388) 
109

>  <original_smiles>  (388) 
CC1C2CC3CC(CC(C3)CC13OOC1(CC4CC5CC(C4)C1C5)OO3)C2

>  <smiles>  (388) 
[H]C([H])([H])C1([H])C2(OOC3(OO2)C([H])([H])C2([H])C([H])([H])C4([H])C([H])([H])C([H])(C2([H])[H])C3([H])C4([H])[H])C([H])([H])C2([H])C([H])([H])C3([H])C([H])([H])C([H])(C2([H])[H])C([H])([H])C1([H])C3([H])[H]

$$$$
109:2:1
     RDKit          3D

 61 67  0  0  1  0  0  0  0  0999 V2000
    4.9612   -3.9138    4.3832 C   0  0  0  0  0  0  0  0  0  0  0  0
    5.1131   -4.0373    2.8441 C   0  0  2  0  0  0  0  0  0  0  0  0
    5.3032   -2.5666    2.2503 C   0  0  1  0  0  0  0  0  0  0  0  0
    6.3521   -2.4478    1.0651 C   0  0  0  0  0  0  0  0  0  0  0  0
    5.8009   -2.2597   -0.3921 C   0  0  2  0  0  0  0  0  0  0  0  0
    4.6833   -1.1975   -0.3736 C   0  0  0  0  0  0  0  0  0  0  0  0
    3.5019   -1.7015    0.4837 C   0  0  1  0  0  0  0  0  0  0  0  0
    2.9273   -3.0293   -0.1143 C   0  0  0  0  0  0  0  0  0  0  0  0
    4.0223   -4.0934   -0.2664 C   0  0  2  0  0  0  0  0  0  0  0  0
    5.2470   -3.5748   -1.0433 C   0  0  0  0  0  0  0  0  0  0  0  0
    4.0854   -5.3336    0.6456 C   0  0  0  0  0  0  0  0  0  0  0  0
    4.0532   -5.0885    2.2345 C   0  0  1  0  0  0  0  0  0  0  0  0
    4.3884   -6.3421    2.8446 O   0  0  0  0  0  0  0  0  0  0  0  0
    3.4268   -7.3712    2.3225 O   0  0  0  0  0  0  0  0  0  0  0  0
    2.0923   -7.0317    2.7189 C   0  0  2  0  0  0  0  0  0  0  0  0
    1.9880   -7.0500    4.2650 C   0  0  0  0  0  0  0  0  0  0  0  0
    0.6166   -7.5310    4.7803 C   0  0  2  0  0  0  0  0  0  0  0  0
    0.5424   -9.0804    4.9356 C   0  0  0  0  0  0  0  0  0  0  0  0
    0.3596   -9.8326    3.5839 C   0  0  1  0  0  0  0  0  0  0  0  0
   -0.8616   -9.2849    2.8443 C   0  0  0  0  0  0  0  0  0  0  0  0
   -0.3696   -7.8735    2.5073 C   0  0  1  0  0  0  0  0  0  0  0  0
   -0.4850   -7.0512    3.8111 C   0  0  0  0  0  0  0  0  0  0  0  0
    1.1233   -8.0853    2.0926 C   0  0  2  0  0  0  0  0  0  0  0  0
    1.4703   -9.5024    2.5887 C   0  0  0  0  0  0  0  0  0  0  0  0
    1.7281   -5.7538    2.1641 O   0  0  0  0  0  0  0  0  0  0  0  0
    2.7279   -4.6900    2.6267 O   0  0  0  0  0  0  0  0  0  0  0  0
    3.9650   -1.7994    1.9692 C   0  0  0  0  0  0  0  0  0  0  0  0
    4.0430   -3.3928    4.6613 H   0  0  0  0  0  0  0  0  0  0  0  0
    5.7901   -3.3404    4.8170 H   0  0  0  0  0  0  0  0  0  0  0  0
    4.9707   -4.8795    4.8839 H   0  0  0  0  0  0  0  0  0  0  0  0
    6.0802   -4.5227    2.7269 H   0  0  0  0  0  0  0  0  0  0  0  0
    5.7859   -2.0026    3.0558 H   0  0  0  0  0  0  0  0  0  0  0  0
    7.0106   -1.6051    1.2841 H   0  0  0  0  0  0  0  0  0  0  0  0
    7.0076   -3.3161    1.0669 H   0  0  0  0  0  0  0  0  0  0  0  0
    6.6245   -1.9163   -1.0259 H   0  0  0  0  0  0  0  0  0  0  0  0
    5.0651   -0.2601    0.0319 H   0  0  0  0  0  0  0  0  0  0  0  0
    4.3432   -0.9957   -1.3891 H   0  0  0  0  0  0  0  0  0  0  0  0
    2.6957   -0.9630    0.4484 H   0  0  0  0  0  0  0  0  0  0  0  0
    2.1030   -3.3974    0.4926 H   0  0  0  0  0  0  0  0  0  0  0  0
    2.5095   -2.8232   -1.0991 H   0  0  0  0  0  0  0  0  0  0  0  0
    4.4942   -3.7796    0.5643 H   0  0  0  0  0  0  0  0  0  0  0  0
    4.9450   -3.3749   -2.0705 H   0  0  0  0  0  0  0  0  0  0  0  0
    6.0271   -4.3309   -1.0965 H   0  0  0  0  0  0  0  0  0  0  0  0
    3.2834   -5.9995    0.3131 H   0  0  0  0  0  0  0  0  0  0  0  0
    5.0056   -5.8717    0.4174 H   0  0  0  0  0  0  0  0  0  0  0  0
    2.7703   -7.6924    4.6703 H   0  0  0  0  0  0  0  0  0  0  0  0
    2.2074   -6.0591    4.6699 H   0  0  0  0  0  0  0  0  0  0  0  0
    0.4561   -7.0879    5.7607 H   0  0  0  0  0  0  0  0  0  0  0  0
    1.4233   -9.4607    5.4536 H   0  0  0  0  0  0  0  0  0  0  0  0
   -0.3077   -9.3312    5.5755 H   0  0  0  0  0  0  0  0  0  0  0  0
    0.2727  -10.9088    3.7568 H   0  0  0  0  0  0  0  0  0  0  0  0
   -1.0590   -9.8701    1.9467 H   0  0  0  0  0  0  0  0  0  0  0  0
   -1.7684   -9.3072    3.4556 H   0  0  0  0  0  0  0  0  0  0  0  0
   -0.9708   -7.4349    1.7079 H   0  0  0  0  0  0  0  0  0  0  0  0
   -1.4720   -7.1694    4.2585 H   0  0  0  0  0  0  0  0  0  0  0  0
   -0.3659   -5.9840    3.6191 H   0  0  0  0  0  0  0  0  0  0  0  0
    1.2183   -8.0483    1.0084 H   0  0  0  0  0  0  0  0  0  0  0  0
    2.4583   -9.6032    3.0304 H   0  0  0  0  0  0  0  0  0  0  0  0
    1.4215  -10.2001    1.7511 H   0  0  0  0  0  0  0  0  0  0  0  0
    3.1584   -2.2141    2.5703 H   0  0  0  0  0  0  0  0  0  0  0  0
    4.0868   -0.7794    2.3377 H   0  0  0  0  0  0  0  0  0  0  0  0
  1  2  1  0
  1 28  1  0
  1 29  1  0
  1 30  1  0
  2 12  1  0
  2  3  1  0
  2 31  1  1
  3 27  1  0
  3  4  1  0
  3 32  1  1
  4  5  1  0
  4 33  1  0
  4 34  1  0
  5 10  1  0
  5  6  1  0
  5 35  1  6
  6  7  1  0
  6 36  1  0
  6 37  1  0
  7  8  1  0
  7 27  1  0
  7 38  1  1
  8  9  1  0
  8 39  1  0
  8 40  1  0
  9 10  1  0
  9 11  1  0
  9 41  1  6
 10 42  1  0
 10 43  1  0
 11 12  1  0
 11 44  1  0
 11 45  1  0
 12 26  1  1
 12 13  1  0
 13 14  1  0
 15 14  1  1
 15 23  1  0
 15 16  1  0
 15 25  1  0
 16 17  1  0
 16 46  1  0
 16 47  1  0
 17 22  1  0
 17 18  1  0
 17 48  1  1
 18 19  1  0
 18 49  1  0
 18 50  1  0
 19 24  1  0
 19 20  1  0
 19 51  1  1
 20 21  1  0
 20 52  1  0
 20 53  1  0
 21 22  1  0
 21 23  1  0
 21 54  1  6
 22 55  1  0
 22 56  1  0
 23 24  1  0
 23 57  1  6
 24 58  1  0
 24 59  1  0
 25 26  1  0
 27 60  1  0
 27 61  1  0
M  END
>  <i_m_ct_stereo_status>  (389) 
1

>  <s_m_source_file>  (389) 
/var/tmp/pbs.5076255.sched01/tmp0i_w_vt9/132llf9lao3.sdf

>  <i_m_source_file_index>  (389) 
27

>  <i_lp_mmshare_version>  (389) 
48012

>  <i_f3d_flags>  (389) 
0

>  <s_epik_input>  (389) 
W0NIMl0xW0NAQEhdKFtDSDJdMilbQ0gyXVtDQEBIXShbQ0gyXTMpW0NIMl1bQ0BIXTFbQ0gyXVtDQEBIXTNbQ0BASF0oW0NIM10pW0NAXTI0T09bQ0BAXTUoT080KVtDQEBIXTZbQ0BIXTdbQ0gyXVtDQEBIXShbQ0gyXTYpW0NIMl1bQ0BASF0oW0NIMl01KVtDSDJdNw==

>  <s_epik_cmdline>  (389) 
J2VwaWtfcHl0aG9uJywgJy1waHQnLCAnMi4wJywgJy1waCcsICc3LjAnLCAnLXRuJywgJzgnLCAnLW1hJywgJzIwMCcsICctaW1hZScsICc8aW5maWxlLm1hZT4nLCAnLW9tYWUnLCAnPG91dGZpbGUubWFlPic=

>  <r_lp_tautomer_probability>  (389) 
1

>  <r_epik_Ionization_Penalty>  (389) 
0

>  <r_epik_Ionization_Penalty_Charging>  (389) 
0

>  <r_epik_Ionization_Penalty_Neutral>  (389) 
0

>  <r_epik_State_Penalty>  (389) 
-0

>  <r_epik_Charging_Adjusted_Penalty>  (389) 
0

>  <i_epik_Tot_Q>  (389) 
0

>  <i_epik_Tot_abs_Q>  (389) 
0

>  <s_lp_Force_Field>  (389) 
OPLS3e

>  <r_lp_Energy>  (389) 
118.432

>  <b_lp_Chiralities_Consistent>  (389) 
1

>  <s_lp_Variant>  (389) 
109:0-3

>  <s_i_glide_gridfile>  (389) 
pfpi4k_grid

>  <i_i_glide_lignum>  (389) 
27

>  <i_i_glide_rotatable_bonds>  (389) 
0

>  <r_i_docking_score>  (389) 
-2.71397

>  <r_i_glide_ligand_efficiency>  (389) 
-0.100517

>  <r_i_glide_ligand_efficiency_sa>  (389) 
-0.301552

>  <r_i_glide_ligand_efficiency_ln>  (389) 
-0.631767

>  <r_i_glide_gscore>  (389) 
-2.71397

>  <r_i_glide_lipo>  (389) 
-0.350094

>  <r_i_glide_hbond>  (389) 
0

>  <r_i_glide_metal>  (389) 
-0

>  <r_i_glide_rewards>  (389) 
-0.85991

>  <r_i_glide_evdw>  (389) 
-30.1081

>  <r_i_glide_ecoul>  (389) 
0.06847

>  <r_i_glide_erotb>  (389) 
0

>  <r_i_glide_esite>  (389) 
-0.00883004

>  <r_i_glide_emodel>  (389) 
-34.9953

>  <r_i_glide_energy>  (389) 
-30.0396

>  <r_i_glide_einternal>  (389) 
0

>  <r_i_glide_intrahb_reward>  (389) 
-0

>  <i_i_glide_confnum>  (389) 
1

>  <i_i_glide_posenum>  (389) 
6

>  <r_i_glide_eff_state_penalty>  (389) 
0

>  <ligand_id>  (389) 
109

>  <original_smiles>  (389) 
CC1C2CC3CC(CC(C3)CC13OOC1(CC4CC5CC(C4)C1C5)OO3)C2

>  <smiles>  (389) 
[H]C([H])([H])C1([H])C2(OOC3(OO2)C([H])([H])C2([H])C([H])([H])C4([H])C([H])([H])C([H])(C2([H])[H])C3([H])C4([H])[H])C([H])([H])C2([H])C([H])([H])C3([H])C([H])([H])C([H])(C2([H])[H])C([H])([H])C1([H])C3([H])[H]

$$$$
109:2:2
     RDKit          3D

 61 67  0  0  1  0  0  0  0  0999 V2000
    4.7680   -9.0087    1.1997 C   0  0  0  0  0  0  0  0  0  0  0  0
    4.0803   -8.5025    2.4992 C   0  0  2  0  0  0  0  0  0  0  0  0
    2.8720   -9.5106    2.8261 C   0  0  1  0  0  0  0  0  0  0  0  0
    2.6722   -9.8624    4.3591 C   0  0  0  0  0  0  0  0  0  0  0  0
    1.4682   -9.1894    5.1086 C   0  0  2  0  0  0  0  0  0  0  0  0
    0.2103   -9.2914    4.2285 C   0  0  0  0  0  0  0  0  0  0  0  0
    0.4090   -8.4826    2.9284 C   0  0  1  0  0  0  0  0  0  0  0  0
    0.6564   -6.9722    3.2609 C   0  0  0  0  0  0  0  0  0  0  0  0
    1.8383   -6.8240    4.2274 C   0  0  2  0  0  0  0  0  0  0  0  0
    1.6928   -7.6819    5.4981 C   0  0  0  0  0  0  0  0  0  0  0  0
    3.1933   -6.2432    3.7811 C   0  0  0  0  0  0  0  0  0  0  0  0
    3.8834   -6.9162    2.5050 C   0  0  1  0  0  0  0  0  0  0  0  0
    5.2072   -6.3865    2.4231 O   0  0  0  0  0  0  0  0  0  0  0  0
    5.1570   -4.8947    2.4170 O   0  0  0  0  0  0  0  0  0  0  0  0
    4.4579   -4.4568    1.2527 C   0  0  2  0  0  0  0  0  0  0  0  0
    5.2635   -4.8838    0.0114 C   0  0  0  0  0  0  0  0  0  0  0  0
    5.1685   -3.8581   -1.1439 C   0  0  2  0  0  0  0  0  0  0  0  0
    6.2496   -2.7359   -1.0502 C   0  0  0  0  0  0  0  0  0  0  0  0
    5.9114   -1.6413    0.0094 C   0  0  1  0  0  0  0  0  0  0  0  0
    4.5240   -1.0647   -0.2626 C   0  0  0  0  0  0  0  0  0  0  0  0
    3.6494   -2.2884    0.0577 C   0  0  1  0  0  0  0  0  0  0  0  0
    3.7591   -3.2354   -1.1582 C   0  0  0  0  0  0  0  0  0  0  0  0
    4.3152   -2.9282    1.3271 C   0  0  2  0  0  0  0  0  0  0  0  0
    5.7026   -2.2435    1.4013 C   0  0  0  0  0  0  0  0  0  0  0  0
    3.1352   -5.0118    1.2514 O   0  0  0  0  0  0  0  0  0  0  0  0
    3.1978   -6.5151    1.3234 O   0  0  0  0  0  0  0  0  0  0  0  0
    1.5308   -9.1712    2.0994 C   0  0  0  0  0  0  0  0  0  0  0  0
    4.1110   -8.9217    0.3332 H   0  0  0  0  0  0  0  0  0  0  0  0
    5.0435  -10.0678    1.2743 H   0  0  0  0  0  0  0  0  0  0  0  0
    5.6859   -8.4694    0.9858 H   0  0  0  0  0  0  0  0  0  0  0  0
    4.8300   -8.7177    3.2690 H   0  0  0  0  0  0  0  0  0  0  0  0
    3.1797  -10.4622    2.4012 H   0  0  0  0  0  0  0  0  0  0  0  0
    2.5694  -10.9509    4.4565 H   0  0  0  0  0  0  0  0  0  0  0  0
    3.5765   -9.6168    4.9094 H   0  0  0  0  0  0  0  0  0  0  0  0
    1.3040   -9.7400    6.0355 H   0  0  0  0  0  0  0  0  0  0  0  0
    0.0038  -10.3385    3.9904 H   0  0  0  0  0  0  0  0  0  0  0  0
   -0.6586   -8.9206    4.7728 H   0  0  0  0  0  0  0  0  0  0  0  0
   -0.5057   -8.5312    2.3390 H   0  0  0  0  0  0  0  0  0  0  0  0
    0.8102   -6.4008    2.3473 H   0  0  0  0  0  0  0  0  0  0  0  0
   -0.2374   -6.5618    3.7342 H   0  0  0  0  0  0  0  0  0  0  0  0
    2.3282   -7.6074    3.8262 H   0  0  0  0  0  0  0  0  0  0  0  0
    0.8317   -7.3318    6.0698 H   0  0  0  0  0  0  0  0  0  0  0  0
    2.5535   -7.5861    6.1571 H   0  0  0  0  0  0  0  0  0  0  0  0
    3.0340   -5.1786    3.6641 H   0  0  0  0  0  0  0  0  0  0  0  0
    3.8896   -6.3428    4.6088 H   0  0  0  0  0  0  0  0  0  0  0  0
    6.3111   -5.0157    0.2850 H   0  0  0  0  0  0  0  0  0  0  0  0
    4.9431   -5.8607   -0.3508 H   0  0  0  0  0  0  0  0  0  0  0  0
    5.3306   -4.4013   -2.0784 H   0  0  0  0  0  0  0  0  0  0  0  0
    7.2303   -3.1635   -0.8442 H   0  0  0  0  0  0  0  0  0  0  0  0
    6.3336   -2.2549   -2.0271 H   0  0  0  0  0  0  0  0  0  0  0  0
    6.6733   -0.8614    0.0297 H   0  0  0  0  0  0  0  0  0  0  0  0
    4.3087   -0.2312    0.4072 H   0  0  0  0  0  0  0  0  0  0  0  0
    4.4113   -0.6986   -1.2882 H   0  0  0  0  0  0  0  0  0  0  0  0
    2.6167   -1.9922    0.2203 H   0  0  0  0  0  0  0  0  0  0  0  0
    3.5795   -2.6964   -2.0884 H   0  0  0  0  0  0  0  0  0  0  0  0
    2.9940   -4.0137   -1.1177 H   0  0  0  0  0  0  0  0  0  0  0  0
    3.7395   -2.6410    2.2117 H   0  0  0  0  0  0  0  0  0  0  0  0
    6.5163   -2.9089    1.6811 H   0  0  0  0  0  0  0  0  0  0  0  0
    5.6854   -1.4351    2.1379 H   0  0  0  0  0  0  0  0  0  0  0  0
    1.7295   -8.5731    1.2093 H   0  0  0  0  0  0  0  0  0  0  0  0
    1.1185  -10.1118    1.7121 H   0  0  0  0  0  0  0  0  0  0  0  0
  1  2  1  0
  1 28  1  0
  1 29  1  0
  1 30  1  0
  2 12  1  0
  2  3  1  0
  2 31  1  1
  3 27  1  0
  3  4  1  0
  3 32  1  6
  4  5  1  0
  4 33  1  0
  4 34  1  0
  5 10  1  0
  5  6  1  0
  5 35  1  1
  6  7  1  0
  6 36  1  0
  6 37  1  0
  7  8  1  0
  7 27  1  0
  7 38  1  6
  8  9  1  0
  8 39  1  0
  8 40  1  0
  9 10  1  0
  9 11  1  0
  9 41  1  1
 10 42  1  0
 10 43  1  0
 11 12  1  0
 11 44  1  0
 11 45  1  0
 12 26  1  6
 12 13  1  0
 13 14  1  0
 15 14  1  1
 15 23  1  0
 15 16  1  0
 15 25  1  0
 16 17  1  0
 16 46  1  0
 16 47  1  0
 17 22  1  0
 17 18  1  0
 17 48  1  6
 18 19  1  0
 18 49  1  0
 18 50  1  0
 19 24  1  0
 19 20  1  0
 19 51  1  1
 20 21  1  0
 20 52  1  0
 20 53  1  0
 21 22  1  0
 21 23  1  0
 21 54  1  1
 22 55  1  0
 22 56  1  0
 23 24  1  0
 23 57  1  1
 24 58  1  0
 24 59  1  0
 25 26  1  0
 27 60  1  0
 27 61  1  0
M  END
>  <i_m_ct_stereo_status>  (390) 
1

>  <s_m_source_file>  (390) 
/var/tmp/pbs.5076255.sched01/tmp0i_w_vt9/132llf9lao3.sdf

>  <i_m_source_file_index>  (390) 
27

>  <i_lp_mmshare_version>  (390) 
48012

>  <i_f3d_flags>  (390) 
0

>  <s_epik_input>  (390) 
W0NIMl0xW0NAQEhdKFtDSDJdMilbQ0gyXVtDQEBIXShbQ0gyXTMpW0NIMl1bQ0BIXTFbQ0gyXVtDQEBIXTNbQ0BASF0oW0NIM10pW0NAXTI0T09bQ0BAXTUoT080KVtDQEBIXTZbQ0BIXTdbQ0gyXVtDQEBIXShbQ0gyXTYpW0NIMl1bQ0BASF0oW0NIMl01KVtDSDJdNw==

>  <s_epik_cmdline>  (390) 
J2VwaWtfcHl0aG9uJywgJy1waHQnLCAnMi4wJywgJy1waCcsICc3LjAnLCAnLXRuJywgJzgnLCAnLW1hJywgJzIwMCcsICctaW1hZScsICc8aW5maWxlLm1hZT4nLCAnLW9tYWUnLCAnPG91dGZpbGUubWFlPic=

>  <r_lp_tautomer_probability>  (390) 
1

>  <r_epik_Ionization_Penalty>  (390) 
0

>  <r_epik_Ionization_Penalty_Charging>  (390) 
0

>  <r_epik_Ionization_Penalty_Neutral>  (390) 
0

>  <r_epik_State_Penalty>  (390) 
-0

>  <r_epik_Charging_Adjusted_Penalty>  (390) 
0

>  <i_epik_Tot_Q>  (390) 
0

>  <i_epik_Tot_abs_Q>  (390) 
0

>  <s_lp_Force_Field>  (390) 
OPLS3e

>  <r_lp_Energy>  (390) 
118.432

>  <b_lp_Chiralities_Consistent>  (390) 
1

>  <s_lp_Variant>  (390) 
109:0-3

>  <s_i_glide_gridfile>  (390) 
pfpi4k_grid

>  <i_i_glide_lignum>  (390) 
27

>  <i_i_glide_rotatable_bonds>  (390) 
0

>  <r_i_docking_score>  (390) 
-2.71262

>  <r_i_glide_ligand_efficiency>  (390) 
-0.100467

>  <r_i_glide_ligand_efficiency_sa>  (390) 
-0.301402

>  <r_i_glide_ligand_efficiency_ln>  (390) 
-0.631453

>  <r_i_glide_gscore>  (390) 
-2.71262

>  <r_i_glide_lipo>  (390) 
-0.228165

>  <r_i_glide_hbond>  (390) 
0

>  <r_i_glide_metal>  (390) 
-0

>  <r_i_glide_rewards>  (390) 
-0.89061

>  <r_i_glide_evdw>  (390) 
-29.479

>  <r_i_glide_ecoul>  (390) 
-0.799303

>  <r_i_glide_erotb>  (390) 
0

>  <r_i_glide_esite>  (390) 
0

>  <r_i_glide_emodel>  (390) 
-35.2244

>  <r_i_glide_energy>  (390) 
-30.2783

>  <r_i_glide_einternal>  (390) 
0

>  <r_i_glide_intrahb_reward>  (390) 
-0

>  <i_i_glide_confnum>  (390) 
2

>  <i_i_glide_posenum>  (390) 
31

>  <r_i_glide_eff_state_penalty>  (390) 
0

>  <ligand_id>  (390) 
109

>  <original_smiles>  (390) 
CC1C2CC3CC(CC(C3)CC13OOC1(CC4CC5CC(C4)C1C5)OO3)C2

>  <smiles>  (390) 
[H]C([H])([H])C1([H])C2(OOC3(OO2)C([H])([H])C2([H])C([H])([H])C4([H])C([H])([H])C([H])(C2([H])[H])C3([H])C4([H])[H])C([H])([H])C2([H])C([H])([H])C3([H])C([H])([H])C([H])(C2([H])[H])C([H])([H])C1([H])C3([H])[H]

$$$$
109:3:0
     RDKit          3D

 61 67  0  0  1  0  0  0  0  0999 V2000
    2.2265   -2.0358    2.6951 C   0  0  0  0  0  0  0  0  0  0  0  0
    3.6043   -2.6233    2.3190 C   0  0  2  0  0  0  0  0  0  0  0  0
    4.1358   -1.8867    1.0092 C   0  0  2  0  0  0  0  0  0  0  0  0
    5.6568   -1.4397    1.0293 C   0  0  0  0  0  0  0  0  0  0  0  0
    6.6236   -2.2220    0.0494 C   0  0  2  0  0  0  0  0  0  0  0  0
    6.0017   -2.2792   -1.3587 C   0  0  0  0  0  0  0  0  0  0  0  0
    4.6360   -2.9745   -1.2748 C   0  0  1  0  0  0  0  0  0  0  0  0
    4.8220   -4.4288   -0.6824 C   0  0  0  0  0  0  0  0  0  0  0  0
    5.6875   -4.5183    0.6311 C   0  0  2  0  0  0  0  0  0  0  0  0
    6.9846   -3.6984    0.4787 C   0  0  0  0  0  0  0  0  0  0  0  0
    4.9831   -5.0239    1.9319 C   0  0  0  0  0  0  0  0  0  0  0  0
    3.6373   -4.2664    2.3948 C   0  0  1  0  0  0  0  0  0  0  0  0
    3.3890   -4.5833    3.7521 O   0  0  0  0  0  0  0  0  0  0  0  0
    3.3347   -6.0810    3.9047 O   0  0  0  0  0  0  0  0  0  0  0  0
    2.2672   -6.5927    3.1184 C   0  0  2  0  0  0  0  0  0  0  0  0
    0.9056   -6.0542    3.6222 C   0  0  0  0  0  0  0  0  0  0  0  0
   -0.2404   -7.0846    3.4696 C   0  0  2  0  0  0  0  0  0  0  0  0
   -0.3767   -8.0189    4.7109 C   0  0  0  0  0  0  0  0  0  0  0  0
    0.6945   -9.1437    4.7595 C   0  0  1  0  0  0  0  0  0  0  0  0
    0.6704   -9.9410    3.4601 C   0  0  0  0  0  0  0  0  0  0  0  0
    1.1809   -8.8779    2.4768 C   0  0  1  0  0  0  0  0  0  0  0  0
   -0.0085   -7.9290    2.1994 C   0  0  0  0  0  0  0  0  0  0  0  0
    2.3211   -8.1411    3.2507 C   0  0  2  0  0  0  0  0  0  0  0  0
    2.1166   -8.5795    4.7230 C   0  0  0  0  0  0  0  0  0  0  0  0
    2.4525   -6.2575    1.7487 O   0  0  0  0  0  0  0  0  0  0  0  0
    2.5461   -4.7469    1.6117 O   0  0  0  0  0  0  0  0  0  0  0  0
    3.6647   -2.0215   -0.4654 C   0  0  0  0  0  0  0  0  0  0  0  0
    1.4717   -2.2709    1.9451 H   0  0  0  0  0  0  0  0  0  0  0  0
    2.2701   -0.9470    2.7701 H   0  0  0  0  0  0  0  0  0  0  0  0
    1.8816   -2.4086    3.6564 H   0  0  0  0  0  0  0  0  0  0  0  0
    4.2576   -2.2834    3.1271 H   0  0  0  0  0  0  0  0  0  0  0  0
    3.9562   -2.8814    0.7940 H   0  0  0  0  0  0  0  0  0  0  0  0
    5.7044   -0.3736    0.8008 H   0  0  0  0  0  0  0  0  0  0  0  0
    6.0638   -1.5218    2.0374 H   0  0  0  0  0  0  0  0  0  0  0  0
    7.5655   -1.6738    0.0045 H   0  0  0  0  0  0  0  0  0  0  0  0
    5.8739   -1.2749   -1.7631 H   0  0  0  0  0  0  0  0  0  0  0  0
    6.6613   -2.8195   -2.0410 H   0  0  0  0  0  0  0  0  0  0  0  0
    4.2261   -3.0738   -2.2812 H   0  0  0  0  0  0  0  0  0  0  0  0
    3.8428   -4.8778   -0.5296 H   0  0  0  0  0  0  0  0  0  0  0  0
    5.2856   -5.0552   -1.4437 H   0  0  0  0  0  0  0  0  0  0  0  0
    5.5806   -3.7238    1.3065 H   0  0  0  0  0  0  0  0  0  0  0  0
    7.6054   -4.1536   -0.2963 H   0  0  0  0  0  0  0  0  0  0  0  0
    7.5912   -3.7047    1.3862 H   0  0  0  0  0  0  0  0  0  0  0  0
    4.8147   -6.0868    1.7898 H   0  0  0  0  0  0  0  0  0  0  0  0
    5.6944   -4.9940    2.7650 H   0  0  0  0  0  0  0  0  0  0  0  0
    0.9948   -5.7507    4.6670 H   0  0  0  0  0  0  0  0  0  0  0  0
    0.6375   -5.1424    3.0882 H   0  0  0  0  0  0  0  0  0  0  0  0
   -1.1771   -6.5421    3.3753 H   0  0  0  0  0  0  0  0  0  0  0  0
   -0.3442   -7.4345    5.6302 H   0  0  0  0  0  0  0  0  0  0  0  0
   -1.3600   -8.4922    4.6900 H   0  0  0  0  0  0  0  0  0  0  0  0
    0.5327   -9.7886    5.6263 H   0  0  0  0  0  0  0  0  0  0  0  0
    1.3470  -10.7957    3.5131 H   0  0  0  0  0  0  0  0  0  0  0  0
   -0.3241  -10.3239    3.2205 H   0  0  0  0  0  0  0  0  0  0  0  0
    1.5302   -9.3400    1.5534 H   0  0  0  0  0  0  0  0  0  0  0  0
   -0.8997   -8.4977    1.9383 H   0  0  0  0  0  0  0  0  0  0  0  0
    0.1970   -7.2939    1.3323 H   0  0  0  0  0  0  0  0  0  0  0  0
    3.2892   -8.5090    2.9068 H   0  0  0  0  0  0  0  0  0  0  0  0
    2.2622   -7.7837    5.4530 H   0  0  0  0  0  0  0  0  0  0  0  0
    2.8218   -9.3746    4.9766 H   0  0  0  0  0  0  0  0  0  0  0  0
    2.6287   -2.3647   -0.5425 H   0  0  0  0  0  0  0  0  0  0  0  0
    3.6677   -1.0360   -0.9290 H   0  0  0  0  0  0  0  0  0  0  0  0
  1  2  1  0
  1 28  1  0
  1 29  1  0
  1 30  1  0
  2 12  1  0
  2  3  1  0
  2 31  1  1
  3 27  1  0
  3  4  1  0
  3 32  1  1
  4  5  1  0
  4 33  1  0
  4 34  1  0
  5 10  1  0
  5  6  1  0
  5 35  1  6
  6  7  1  0
  6 36  1  0
  6 37  1  0
  7  8  1  0
  7 27  1  0
  7 38  1  6
  8  9  1  0
  8 39  1  0
  8 40  1  0
  9 10  1  0
  9 11  1  0
  9 41  1  6
 10 42  1  0
 10 43  1  0
 11 12  1  0
 11 44  1  0
 11 45  1  0
 12 26  1  6
 12 13  1  0
 13 14  1  0
 15 14  1  1
 15 23  1  0
 15 16  1  0
 15 25  1  0
 16 17  1  0
 16 46  1  0
 16 47  1  0
 17 22  1  0
 17 18  1  0
 17 48  1  6
 18 19  1  0
 18 49  1  0
 18 50  1  0
 19 24  1  0
 19 20  1  0
 19 51  1  1
 20 21  1  0
 20 52  1  0
 20 53  1  0
 21 22  1  0
 21 23  1  0
 21 54  1  6
 22 55  1  0
 22 56  1  0
 23 24  1  0
 23 57  1  6
 24 58  1  0
 24 59  1  0
 25 26  1  0
 27 60  1  0
 27 61  1  0
M  END
>  <i_m_ct_stereo_status>  (391) 
1

>  <s_m_source_file>  (391) 
/var/tmp/pbs.5076255.sched01/tmp0i_w_vt9/132llf9lao3.sdf

>  <i_m_source_file_index>  (391) 
28

>  <i_lp_mmshare_version>  (391) 
48012

>  <i_f3d_flags>  (391) 
0

>  <s_epik_input>  (391) 
W0NIMl0xW0NAQEhdKFtDSDJdMilbQ0gyXVtDQEBIXShbQ0gyXTMpW0NIMl1bQ0BIXTFbQ0gyXVtDQEBIXTNbQ0BASF0oW0NIM10pW0NAXTI0T09bQ0BAXTUoT080KVtDQEBIXTZbQ0BIXTdbQ0gyXVtDQEBIXShbQ0gyXTYpW0NIMl1bQ0BASF0oW0NIMl01KVtDSDJdNw==

>  <s_epik_cmdline>  (391) 
J2VwaWtfcHl0aG9uJywgJy1waHQnLCAnMi4wJywgJy1waCcsICc3LjAnLCAnLXRuJywgJzgnLCAnLW1hJywgJzIwMCcsICctaW1hZScsICc8aW5maWxlLm1hZT4nLCAnLW9tYWUnLCAnPG91dGZpbGUubWFlPic=

>  <r_lp_tautomer_probability>  (391) 
1

>  <r_epik_Ionization_Penalty>  (391) 
0

>  <r_epik_Ionization_Penalty_Charging>  (391) 
0

>  <r_epik_Ionization_Penalty_Neutral>  (391) 
0

>  <r_epik_State_Penalty>  (391) 
-0

>  <r_epik_Charging_Adjusted_Penalty>  (391) 
0

>  <i_epik_Tot_Q>  (391) 
0

>  <i_epik_Tot_abs_Q>  (391) 
0

>  <s_lp_Force_Field>  (391) 
OPLS3e

>  <r_lp_Energy>  (391) 
187.697

>  <b_lp_Chiralities_Consistent>  (391) 
1

>  <s_lp_Variant>  (391) 
109:0-4

>  <s_i_glide_gridfile>  (391) 
pfpi4k_grid

>  <i_i_glide_lignum>  (391) 
28

>  <i_i_glide_rotatable_bonds>  (391) 
0

>  <r_i_docking_score>  (391) 
-2.78306

>  <r_i_glide_ligand_efficiency>  (391) 
-0.103076

>  <r_i_glide_ligand_efficiency_sa>  (391) 
-0.309229

>  <r_i_glide_ligand_efficiency_ln>  (391) 
-0.64785

>  <r_i_glide_gscore>  (391) 
-2.78306

>  <r_i_glide_lipo>  (391) 
-0.360787

>  <r_i_glide_hbond>  (391) 
0

>  <r_i_glide_metal>  (391) 
-0

>  <r_i_glide_rewards>  (391) 
-0.855765

>  <r_i_glide_evdw>  (391) 
-30.0505

>  <r_i_glide_ecoul>  (391) 
-0.40152

>  <r_i_glide_erotb>  (391) 
0

>  <r_i_glide_esite>  (391) 
-0.00375306

>  <r_i_glide_emodel>  (391) 
-35.5772

>  <r_i_glide_energy>  (391) 
-30.452

>  <r_i_glide_einternal>  (391) 
0

>  <r_i_glide_intrahb_reward>  (391) 
-0

>  <i_i_glide_confnum>  (391) 
2

>  <i_i_glide_posenum>  (391) 
21

>  <r_i_glide_eff_state_penalty>  (391) 
0

>  <ligand_id>  (391) 
109

>  <original_smiles>  (391) 
CC1C2CC3CC(CC(C3)CC13OOC1(CC4CC5CC(C4)C1C5)OO3)C2

>  <smiles>  (391) 
[H]C([H])([H])C1([H])C2(OOC3(OO2)C([H])([H])C2([H])C([H])([H])C4([H])C([H])([H])C([H])(C2([H])[H])C3([H])C4([H])[H])C([H])([H])C2([H])C([H])([H])C3([H])C([H])([H])C([H])(C2([H])[H])C([H])([H])C1([H])C3([H])[H]

$$$$
109:3:1
     RDKit          3D

 61 67  0  0  1  0  0  0  0  0999 V2000
    4.9764   -3.9620    4.3061 C   0  0  0  0  0  0  0  0  0  0  0  0
    5.1102   -4.0968    2.7692 C   0  0  2  0  0  0  0  0  0  0  0  0
    5.2612   -2.6497    2.1480 C   0  0  2  0  0  0  0  0  0  0  0  0
    6.3779   -2.4813    1.0159 C   0  0  0  0  0  0  0  0  0  0  0  0
    5.8567   -2.2336   -0.4543 C   0  0  2  0  0  0  0  0  0  0  0  0
    4.8090   -1.1073   -0.4406 C   0  0  0  0  0  0  0  0  0  0  0  0
    3.6532   -1.5071    0.4886 C   0  0  1  0  0  0  0  0  0  0  0  0
    3.0246   -2.8638   -0.0194 C   0  0  0  0  0  0  0  0  0  0  0  0
    4.0517   -4.0249   -0.3220 C   0  0  2  0  0  0  0  0  0  0  0  0
    5.2226   -3.4859   -1.1696 C   0  0  0  0  0  0  0  0  0  0  0  0
    3.9722   -5.3134    0.5324 C   0  0  0  0  0  0  0  0  0  0  0  0
    4.0201   -5.1512    2.1361 C   0  0  1  0  0  0  0  0  0  0  0  0
    4.3318   -6.4120    2.7144 O   0  0  0  0  0  0  0  0  0  0  0  0
    3.3370   -7.4173    2.2457 O   0  0  0  0  0  0  0  0  0  0  0  0
    2.0290   -7.0535    2.6896 C   0  0  2  0  0  0  0  0  0  0  0  0
    1.9490   -7.0335    4.2268 C   0  0  0  0  0  0  0  0  0  0  0  0
    0.5660   -7.4572    4.7545 C   0  0  2  0  0  0  0  0  0  0  0  0
    0.4442   -9.0007    4.9529 C   0  0  0  0  0  0  0  0  0  0  0  0
    0.2388   -9.7791    3.6206 C   0  0  1  0  0  0  0  0  0  0  0  0
   -0.9688   -9.2213    2.8699 C   0  0  0  0  0  0  0  0  0  0  0  0
   -0.4370   -7.8274    2.4970 C   0  0  1  0  0  0  0  0  0  0  0  0
   -0.5353   -6.9751    3.7822 C   0  0  0  0  0  0  0  0  0  0  0  0
    1.0425   -8.0817    2.0858 C   0  0  2  0  0  0  0  0  0  0  0  0
    1.3578   -9.4937    2.6142 C   0  0  0  0  0  0  0  0  0  0  0  0
    1.6968   -5.7651    2.1439 O   0  0  0  0  0  0  0  0  0  0  0  0
    2.7217   -4.7418    2.5989 O   0  0  0  0  0  0  0  0  0  0  0  0
    4.2079   -1.5184    1.9697 C   0  0  0  0  0  0  0  0  0  0  0  0
    4.0527   -3.4603    4.5897 H   0  0  0  0  0  0  0  0  0  0  0  0
    5.8049   -3.3604    4.7191 H   0  0  0  0  0  0  0  0  0  0  0  0
    5.0177   -4.9285    4.8015 H   0  0  0  0  0  0  0  0  0  0  0  0
    6.0801   -4.5760    2.6383 H   0  0  0  0  0  0  0  0  0  0  0  0
    4.3708   -3.0599    1.8421 H   0  0  0  0  0  0  0  0  0  0  0  0
    7.0280   -1.6497    1.3022 H   0  0  0  0  0  0  0  0  0  0  0  0
    7.0295   -3.3517    1.0049 H   0  0  0  0  0  0  0  0  0  0  0  0
    6.7039   -1.9228   -1.0612 H   0  0  0  0  0  0  0  0  0  0  0  0
    5.2599   -0.1799   -0.0901 H   0  0  0  0  0  0  0  0  0  0  0  0
    4.4340   -0.9260   -1.4480 H   0  0  0  0  0  0  0  0  0  0  0  0
    2.8836   -0.7394    0.4466 H   0  0  0  0  0  0  0  0  0  0  0  0
    2.2770   -3.1961    0.6942 H   0  0  0  0  0  0  0  0  0  0  0  0
    2.4637   -2.6722   -0.9389 H   0  0  0  0  0  0  0  0  0  0  0  0
    4.8864   -4.0739    0.3195 H   0  0  0  0  0  0  0  0  0  0  0  0
    4.8438   -3.1886   -2.1515 H   0  0  0  0  0  0  0  0  0  0  0  0
    5.9782   -4.2502   -1.3614 H   0  0  0  0  0  0  0  0  0  0  0  0
    3.0667   -5.8374    0.2133 H   0  0  0  0  0  0  0  0  0  0  0  0
    4.7715   -6.0059    0.2435 H   0  0  0  0  0  0  0  0  0  0  0  0
    2.7197   -7.6834    4.6412 H   0  0  0  0  0  0  0  0  0  0  0  0
    2.1890   -6.0388    4.6188 H   0  0  0  0  0  0  0  0  0  0  0  0
    0.4147   -6.9840    5.7250 H   0  0  0  0  0  0  0  0  0  0  0  0
    1.3173   -9.3882    5.4783 H   0  0  0  0  0  0  0  0  0  0  0  0
   -0.4109   -9.2104    5.5994 H   0  0  0  0  0  0  0  0  0  0  0  0
    0.1298  -10.8478    3.8200 H   0  0  0  0  0  0  0  0  0  0  0  0
   -1.1838   -9.8231    1.9862 H   0  0  0  0  0  0  0  0  0  0  0  0
   -1.8750   -9.2040    3.4831 H   0  0  0  0  0  0  0  0  0  0  0  0
   -1.0310   -7.3976    1.6868 H   0  0  0  0  0  0  0  0  0  0  0  0
   -1.5221   -7.0570    4.2333 H   0  0  0  0  0  0  0  0  0  0  0  0
   -0.3863   -5.9165    3.5664 H   0  0  0  0  0  0  0  0  0  0  0  0
    1.1323   -8.0794    1.0041 H   0  0  0  0  0  0  0  0  0  0  0  0
    2.3436   -9.6155    3.0578 H   0  0  0  0  0  0  0  0  0  0  0  0
    1.2872  -10.2191    1.7981 H   0  0  0  0  0  0  0  0  0  0  0  0
    3.3866   -1.6010    2.6928 H   0  0  0  0  0  0  0  0  0  0  0  0
    4.6762   -0.5563    2.1835 H   0  0  0  0  0  0  0  0  0  0  0  0
  1  2  1  0
  1 28  1  0
  1 29  1  0
  1 30  1  0
  2 12  1  0
  2  3  1  0
  2 31  1  1
  3 27  1  0
  3  4  1  0
  3 32  1  1
  4  5  1  0
  4 33  1  0
  4 34  1  0
  5 10  1  0
  5  6  1  0
  5 35  1  6
  6  7  1  0
  6 36  1  0
  6 37  1  0
  7  8  1  0
  7 27  1  0
  7 38  1  1
  8  9  1  0
  8 39  1  0
  8 40  1  0
  9 10  1  0
  9 11  1  0
  9 41  1  6
 10 42  1  0
 10 43  1  0
 11 12  1  0
 11 44  1  0
 11 45  1  0
 12 26  1  1
 12 13  1  0
 13 14  1  0
 15 14  1  1
 15 23  1  0
 15 16  1  0
 15 25  1  0
 16 17  1  0
 16 46  1  0
 16 47  1  0
 17 22  1  0
 17 18  1  0
 17 48  1  1
 18 19  1  0
 18 49  1  0
 18 50  1  0
 19 24  1  0
 19 20  1  0
 19 51  1  1
 20 21  1  0
 20 52  1  0
 20 53  1  0
 21 22  1  0
 21 23  1  0
 21 54  1  6
 22 55  1  0
 22 56  1  0
 23 24  1  0
 23 57  1  6
 24 58  1  0
 24 59  1  0
 25 26  1  0
 27 60  1  0
 27 61  1  0
M  END
>  <i_m_ct_stereo_status>  (392) 
1

>  <s_m_source_file>  (392) 
/var/tmp/pbs.5076255.sched01/tmp0i_w_vt9/132llf9lao3.sdf

>  <i_m_source_file_index>  (392) 
28

>  <i_lp_mmshare_version>  (392) 
48012

>  <i_f3d_flags>  (392) 
0

>  <s_epik_input>  (392) 
W0NIMl0xW0NAQEhdKFtDSDJdMilbQ0gyXVtDQEBIXShbQ0gyXTMpW0NIMl1bQ0BIXTFbQ0gyXVtDQEBIXTNbQ0BASF0oW0NIM10pW0NAXTI0T09bQ0BAXTUoT080KVtDQEBIXTZbQ0BIXTdbQ0gyXVtDQEBIXShbQ0gyXTYpW0NIMl1bQ0BASF0oW0NIMl01KVtDSDJdNw==

>  <s_epik_cmdline>  (392) 
J2VwaWtfcHl0aG9uJywgJy1waHQnLCAnMi4wJywgJy1waCcsICc3LjAnLCAnLXRuJywgJzgnLCAnLW1hJywgJzIwMCcsICctaW1hZScsICc8aW5maWxlLm1hZT4nLCAnLW9tYWUnLCAnPG91dGZpbGUubWFlPic=

>  <r_lp_tautomer_probability>  (392) 
1

>  <r_epik_Ionization_Penalty>  (392) 
0

>  <r_epik_Ionization_Penalty_Charging>  (392) 
0

>  <r_epik_Ionization_Penalty_Neutral>  (392) 
0

>  <r_epik_State_Penalty>  (392) 
-0

>  <r_epik_Charging_Adjusted_Penalty>  (392) 
0

>  <i_epik_Tot_Q>  (392) 
0

>  <i_epik_Tot_abs_Q>  (392) 
0

>  <s_lp_Force_Field>  (392) 
OPLS3e

>  <r_lp_Energy>  (392) 
187.697

>  <b_lp_Chiralities_Consistent>  (392) 
1

>  <s_lp_Variant>  (392) 
109:0-4

>  <s_i_glide_gridfile>  (392) 
pfpi4k_grid

>  <i_i_glide_lignum>  (392) 
28

>  <i_i_glide_rotatable_bonds>  (392) 
0

>  <r_i_docking_score>  (392) 
-2.75137

>  <r_i_glide_ligand_efficiency>  (392) 
-0.101903

>  <r_i_glide_ligand_efficiency_sa>  (392) 
-0.305708

>  <r_i_glide_ligand_efficiency_ln>  (392) 
-0.640474

>  <r_i_glide_gscore>  (392) 
-2.75137

>  <r_i_glide_lipo>  (392) 
-0.344038

>  <r_i_glide_hbond>  (392) 
0

>  <r_i_glide_metal>  (392) 
-0

>  <r_i_glide_rewards>  (392) 
-0.862777

>  <r_i_glide_evdw>  (392) 
-30.6491

>  <r_i_glide_ecoul>  (392) 
-0.0108024

>  <r_i_glide_erotb>  (392) 
0

>  <r_i_glide_esite>  (392) 
-0.0104849

>  <r_i_glide_emodel>  (392) 
-35.7092

>  <r_i_glide_energy>  (392) 
-30.6599

>  <r_i_glide_einternal>  (392) 
0

>  <r_i_glide_intrahb_reward>  (392) 
-0

>  <i_i_glide_confnum>  (392) 
1

>  <i_i_glide_posenum>  (392) 
32

>  <r_i_glide_eff_state_penalty>  (392) 
0

>  <ligand_id>  (392) 
109

>  <original_smiles>  (392) 
CC1C2CC3CC(CC(C3)CC13OOC1(CC4CC5CC(C4)C1C5)OO3)C2

>  <smiles>  (392) 
[H]C([H])([H])C1([H])C2(OOC3(OO2)C([H])([H])C2([H])C([H])([H])C4([H])C([H])([H])C([H])(C2([H])[H])C3([H])C4([H])[H])C([H])([H])C2([H])C([H])([H])C3([H])C([H])([H])C([H])(C2([H])[H])C([H])([H])C1([H])C3([H])[H]

$$$$
109:3:2
     RDKit          3D

 61 67  0  0  1  0  0  0  0  0999 V2000
    4.8267   -9.0067    1.2236 C   0  0  0  0  0  0  0  0  0  0  0  0
    4.2366   -8.4963    2.5549 C   0  0  2  0  0  0  0  0  0  0  0  0
    3.0213   -9.4388    2.9715 C   0  0  2  0  0  0  0  0  0  0  0  0
    2.9736   -9.8878    4.4905 C   0  0  0  0  0  0  0  0  0  0  0  0
    1.7951   -9.2830    5.3571 C   0  0  2  0  0  0  0  0  0  0  0  0
    0.4621   -9.4510    4.6098 C   0  0  0  0  0  0  0  0  0  0  0  0
    0.5531   -8.7414    3.2517 C   0  0  1  0  0  0  0  0  0  0  0  0
    0.8770   -7.2077    3.4792 C   0  0  0  0  0  0  0  0  0  0  0  0
    2.0768   -6.9144    4.4588 C   0  0  2  0  0  0  0  0  0  0  0  0
    1.9435   -7.7583    5.7433 C   0  0  0  0  0  0  0  0  0  0  0  0
    3.3403   -6.2024    3.8729 C   0  0  0  0  0  0  0  0  0  0  0  0
    4.0412   -6.8641    2.5809 C   0  0  1  0  0  0  0  0  0  0  0  0
    5.3456   -6.3283    2.4528 O   0  0  0  0  0  0  0  0  0  0  0  0
    5.2574   -4.8244    2.4001 O   0  0  0  0  0  0  0  0  0  0  0  0
    4.4975   -4.4438    1.2633 C   0  0  2  0  0  0  0  0  0  0  0  0
    5.2017   -4.8836   -0.0419 C   0  0  0  0  0  0  0  0  0  0  0  0
    4.9932   -3.8857   -1.2057 C   0  0  2  0  0  0  0  0  0  0  0  0
    6.0747   -2.7624   -1.2389 C   0  0  0  0  0  0  0  0  0  0  0  0
    5.8408   -1.6518   -0.1730 C   0  0  1  0  0  0  0  0  0  0  0  0
    4.4364   -1.0729   -0.3223 C   0  0  0  0  0  0  0  0  0  0  0  0
    3.5971   -2.2855    0.1047 C   0  0  1  0  0  0  0  0  0  0  0  0
    3.5859   -3.2558   -1.0978 C   0  0  0  0  0  0  0  0  0  0  0  0
    4.3721   -2.8945    1.3165 C   0  0  2  0  0  0  0  0  0  0  0  0
    5.7673   -2.2221    1.2441 C   0  0  0  0  0  0  0  0  0  0  0  0
    3.1884   -4.9958    1.3323 O   0  0  0  0  0  0  0  0  0  0  0  0
    3.2902   -6.5091    1.4219 O   0  0  0  0  0  0  0  0  0  0  0  0
    1.5951   -9.5419    2.3681 C   0  0  0  0  0  0  0  0  0  0  0  0
    4.1198   -8.8937    0.4022 H   0  0  0  0  0  0  0  0  0  0  0  0
    5.0733  -10.0694    1.2866 H   0  0  0  0  0  0  0  0  0  0  0  0
    5.7420   -8.4815    0.9622 H   0  0  0  0  0  0  0  0  0  0  0  0
    5.0250   -8.7066    3.2816 H   0  0  0  0  0  0  0  0  0  0  0  0
    2.6626   -8.4916    2.7651 H   0  0  0  0  0  0  0  0  0  0  0  0
    2.9145  -10.9775    4.5267 H   0  0  0  0  0  0  0  0  0  0  0  0
    3.9135   -9.6488    4.9878 H   0  0  0  0  0  0  0  0  0  0  0  0
    1.7441   -9.8462    6.2902 H   0  0  0  0  0  0  0  0  0  0  0  0
    0.2383  -10.5098    4.4713 H   0  0  0  0  0  0  0  0  0  0  0  0
   -0.3570   -9.0392    5.2011 H   0  0  0  0  0  0  0  0  0  0  0  0
   -0.4136   -8.8168    2.7511 H   0  0  0  0  0  0  0  0  0  0  0  0
    1.0482   -6.7373    2.5135 H   0  0  0  0  0  0  0  0  0  0  0  0
   -0.0117   -6.7116    3.8739 H   0  0  0  0  0  0  0  0  0  0  0  0
    2.8775   -7.5894    4.4190 H   0  0  0  0  0  0  0  0  0  0  0  0
    1.0520   -7.4410    6.2886 H   0  0  0  0  0  0  0  0  0  0  0  0
    2.7807   -7.6122    6.4284 H   0  0  0  0  0  0  0  0  0  0  0  0
    3.0451   -5.1745    3.6857 H   0  0  0  0  0  0  0  0  0  0  0  0
    4.0990   -6.1050    4.6570 H   0  0  0  0  0  0  0  0  0  0  0  0
    6.2694   -5.0194    0.1423 H   0  0  0  0  0  0  0  0  0  0  0  0
    4.8461   -5.8658   -0.3561 H   0  0  0  0  0  0  0  0  0  0  0  0
    5.0574   -4.4501   -2.1354 H   0  0  0  0  0  0  0  0  0  0  0  0
    7.0708   -3.1917   -1.1225 H   0  0  0  0  0  0  0  0  0  0  0  0
    6.0633   -2.3012   -2.2274 H   0  0  0  0  0  0  0  0  0  0  0  0
    6.6014   -0.8747   -0.2467 H   0  0  0  0  0  0  0  0  0  0  0  0
    4.2872   -0.2279    0.3517 H   0  0  0  0  0  0  0  0  0  0  0  0
    4.2222   -0.7243   -1.3344 H   0  0  0  0  0  0  0  0  0  0  0  0
    2.5846   -1.9808    0.3666 H   0  0  0  0  0  0  0  0  0  0  0  0
    3.3180   -2.7359   -2.0155 H   0  0  0  0  0  0  0  0  0  0  0  0
    2.8259   -4.0316   -0.9698 H   0  0  0  0  0  0  0  0  0  0  0  0
    3.8869   -2.5956    2.2466 H   0  0  0  0  0  0  0  0  0  0  0  0
    6.5995   -2.8895    1.4613 H   0  0  0  0  0  0  0  0  0  0  0  0
    5.8217   -1.4019    1.9630 H   0  0  0  0  0  0  0  0  0  0  0  0
    1.5612   -9.2119    1.3261 H   0  0  0  0  0  0  0  0  0  0  0  0
    1.2965  -10.5898    2.3468 H   0  0  0  0  0  0  0  0  0  0  0  0
  1  2  1  0
  1 28  1  0
  1 29  1  0
  1 30  1  0
  2 12  1  0
  2  3  1  0
  2 31  1  1
  3 27  1  0
  3  4  1  0
  3 32  1  6
  4  5  1  0
  4 33  1  0
  4 34  1  0
  5 10  1  0
  5  6  1  0
  5 35  1  1
  6  7  1  0
  6 36  1  0
  6 37  1  0
  7  8  1  0
  7 27  1  0
  7 38  1  6
  8  9  1  0
  8 39  1  0
  8 40  1  0
  9 10  1  0
  9 11  1  0
  9 41  1  1
 10 42  1  0
 10 43  1  0
 11 12  1  0
 11 44  1  0
 11 45  1  0
 12 26  1  6
 12 13  1  0
 13 14  1  0
 15 14  1  1
 15 23  1  0
 15 16  1  0
 15 25  1  0
 16 17  1  0
 16 46  1  0
 16 47  1  0
 17 22  1  0
 17 18  1  0
 17 48  1  6
 18 19  1  0
 18 49  1  0
 18 50  1  0
 19 24  1  0
 19 20  1  0
 19 51  1  1
 20 21  1  0
 20 52  1  0
 20 53  1  0
 21 22  1  0
 21 23  1  0
 21 54  1  1
 22 55  1  0
 22 56  1  0
 23 24  1  0
 23 57  1  1
 24 58  1  0
 24 59  1  0
 25 26  1  0
 27 60  1  0
 27 61  1  0
M  END
>  <i_m_ct_stereo_status>  (393) 
1

>  <s_m_source_file>  (393) 
/var/tmp/pbs.5076255.sched01/tmp0i_w_vt9/132llf9lao3.sdf

>  <i_m_source_file_index>  (393) 
28

>  <i_lp_mmshare_version>  (393) 
48012

>  <i_f3d_flags>  (393) 
0

>  <s_epik_input>  (393) 
W0NIMl0xW0NAQEhdKFtDSDJdMilbQ0gyXVtDQEBIXShbQ0gyXTMpW0NIMl1bQ0BIXTFbQ0gyXVtDQEBIXTNbQ0BASF0oW0NIM10pW0NAXTI0T09bQ0BAXTUoT080KVtDQEBIXTZbQ0BIXTdbQ0gyXVtDQEBIXShbQ0gyXTYpW0NIMl1bQ0BASF0oW0NIMl01KVtDSDJdNw==

>  <s_epik_cmdline>  (393) 
J2VwaWtfcHl0aG9uJywgJy1waHQnLCAnMi4wJywgJy1waCcsICc3LjAnLCAnLXRuJywgJzgnLCAnLW1hJywgJzIwMCcsICctaW1hZScsICc8aW5maWxlLm1hZT4nLCAnLW9tYWUnLCAnPG91dGZpbGUubWFlPic=

>  <r_lp_tautomer_probability>  (393) 
1

>  <r_epik_Ionization_Penalty>  (393) 
0

>  <r_epik_Ionization_Penalty_Charging>  (393) 
0

>  <r_epik_Ionization_Penalty_Neutral>  (393) 
0

>  <r_epik_State_Penalty>  (393) 
-0

>  <r_epik_Charging_Adjusted_Penalty>  (393) 
0

>  <i_epik_Tot_Q>  (393) 
0

>  <i_epik_Tot_abs_Q>  (393) 
0

>  <s_lp_Force_Field>  (393) 
OPLS3e

>  <r_lp_Energy>  (393) 
187.697

>  <b_lp_Chiralities_Consistent>  (393) 
1

>  <s_lp_Variant>  (393) 
109:0-4

>  <s_i_glide_gridfile>  (393) 
pfpi4k_grid

>  <i_i_glide_lignum>  (393) 
28

>  <i_i_glide_rotatable_bonds>  (393) 
0

>  <r_i_docking_score>  (393) 
-2.69103

>  <r_i_glide_ligand_efficiency>  (393) 
-0.0996676

>  <r_i_glide_ligand_efficiency_sa>  (393) 
-0.299003

>  <r_i_glide_ligand_efficiency_ln>  (393) 
-0.626426

>  <r_i_glide_gscore>  (393) 
-2.69103

>  <r_i_glide_lipo>  (393) 
-0.273555

>  <r_i_glide_hbond>  (393) 
0

>  <r_i_glide_metal>  (393) 
-0

>  <r_i_glide_rewards>  (393) 
-0.891151

>  <r_i_glide_evdw>  (393) 
-28.7774

>  <r_i_glide_ecoul>  (393) 
-0.582984

>  <r_i_glide_erotb>  (393) 
0

>  <r_i_glide_esite>  (393) 
0

>  <r_i_glide_emodel>  (393) 
-34.3126

>  <r_i_glide_energy>  (393) 
-29.3604

>  <r_i_glide_einternal>  (393) 
0

>  <r_i_glide_intrahb_reward>  (393) 
-0

>  <i_i_glide_confnum>  (393) 
1

>  <i_i_glide_posenum>  (393) 
2

>  <r_i_glide_eff_state_penalty>  (393) 
0

>  <ligand_id>  (393) 
109

>  <original_smiles>  (393) 
CC1C2CC3CC(CC(C3)CC13OOC1(CC4CC5CC(C4)C1C5)OO3)C2

>  <smiles>  (393) 
[H]C([H])([H])C1([H])C2(OOC3(OO2)C([H])([H])C2([H])C([H])([H])C4([H])C([H])([H])C([H])(C2([H])[H])C3([H])C4([H])[H])C([H])([H])C2([H])C([H])([H])C3([H])C([H])([H])C([H])(C2([H])[H])C([H])([H])C1([H])C3([H])[H]

$$$$
109:4:0
     RDKit          3D

 61 67  0  0  1  0  0  0  0  0999 V2000
    1.9833   -2.6135    2.9058 C   0  0  0  0  0  0  0  0  0  0  0  0
    3.4052   -3.1000    2.5113 C   0  0  2  0  0  0  0  0  0  0  0  0
    4.0070   -2.1358    1.4537 C   0  0  1  0  0  0  0  0  0  0  0  0
    5.5431   -1.8938    1.5743 C   0  0  0  0  0  0  0  0  0  0  0  0
    6.4373   -2.4497    0.4490 C   0  0  2  0  0  0  0  0  0  0  0  0
    5.7918   -2.2343   -0.9242 C   0  0  0  0  0  0  0  0  0  0  0  0
    4.4507   -2.9737   -0.9713 C   0  0  1  0  0  0  0  0  0  0  0  0
    4.6469   -4.4818   -0.7349 C   0  0  0  0  0  0  0  0  0  0  0  0
    5.5442   -4.8594    0.4696 C   0  0  1  0  0  0  0  0  0  0  0  0
    6.7692   -3.9370    0.6171 C   0  0  0  0  0  0  0  0  0  0  0  0
    4.8639   -5.1881    1.8089 C   0  0  0  0  0  0  0  0  0  0  0  0
    3.4652   -4.6301    2.2272 C   0  0  1  0  0  0  0  0  0  0  0  0
    3.1925   -5.2359    3.5147 O   0  0  0  0  0  0  0  0  0  0  0  0
    3.2917   -6.6965    3.3504 O   0  0  0  0  0  0  0  0  0  0  0  0
    2.2540   -7.1720    2.4642 C   0  0  1  0  0  0  0  0  0  0  0  0
    2.4257   -8.6943    2.2220 C   0  0  0  0  0  0  0  0  0  0  0  0
    1.6821   -9.5428    3.2652 C   0  0  2  0  0  0  0  0  0  0  0  0
    0.1991   -9.8483    2.8812 C   0  0  0  0  0  0  0  0  0  0  0  0
   -0.7492   -8.6266    3.0622 C   0  0  1  0  0  0  0  0  0  0  0  0
   -0.6490   -8.1047    4.4988 C   0  0  0  0  0  0  0  0  0  0  0  0
    0.7865   -7.5733    4.4994 C   0  0  1  0  0  0  0  0  0  0  0  0
    1.7106   -8.8192    4.6231 C   0  0  0  0  0  0  0  0  0  0  0  0
    0.8991   -6.8662    3.1188 C   0  0  2  0  0  0  0  0  0  0  0  0
   -0.2612   -7.4031    2.2753 C   0  0  0  0  0  0  0  0  0  0  0  0
    2.4301   -6.5230    1.1805 O   0  0  0  0  0  0  0  0  0  0  0  0
    2.4049   -5.0146    1.3323 O   0  0  0  0  0  0  0  0  0  0  0  0
    3.4735   -2.3132    0.0084 C   0  0  0  0  0  0  0  0  0  0  0  0
    1.2927   -2.6644    2.0676 H   0  0  0  0  0  0  0  0  0  0  0  0
    1.9949   -1.5547    3.2210 H   0  0  0  0  0  0  0  0  0  0  0  0
    1.5632   -3.1746    3.7338 H   0  0  0  0  0  0  0  0  0  0  0  0
    3.9804   -2.9352    3.4240 H   0  0  0  0  0  0  0  0  0  0  0  0
    3.6079   -1.1705    1.7398 H   0  0  0  0  0  0  0  0  0  0  0  0
    5.7185   -0.8011    1.6311 H   0  0  0  0  0  0  0  0  0  0  0  0
    5.9022   -2.2764    2.5224 H   0  0  0  0  0  0  0  0  0  0  0  0
    7.3864   -1.9238    0.4968 H   0  0  0  0  0  0  0  0  0  0  0  0
    5.6417   -1.1671   -1.1057 H   0  0  0  0  0  0  0  0  0  0  0  0
    6.4507   -2.6144   -1.7072 H   0  0  0  0  0  0  0  0  0  0  0  0
    4.0142   -2.8703   -1.9604 H   0  0  0  0  0  0  0  0  0  0  0  0
    3.6965   -5.0005   -0.6919 H   0  0  0  0  0  0  0  0  0  0  0  0
    5.1234   -4.8812   -1.6336 H   0  0  0  0  0  0  0  0  0  0  0  0
    5.9769   -5.8002    0.1817 H   0  0  0  0  0  0  0  0  0  0  0  0
    7.5032   -4.2109   -0.1459 H   0  0  0  0  0  0  0  0  0  0  0  0
    7.2800   -4.1102    1.5627 H   0  0  0  0  0  0  0  0  0  0  0  0
    4.8018   -6.2813    1.7878 H   0  0  0  0  0  0  0  0  0  0  0  0
    5.5569   -4.9927    2.6223 H   0  0  0  0  0  0  0  0  0  0  0  0
    2.0774   -8.9550    1.2301 H   0  0  0  0  0  0  0  0  0  0  0  0
    3.4877   -8.9377    2.2211 H   0  0  0  0  0  0  0  0  0  0  0  0
    2.1961  -10.5035    3.3545 H   0  0  0  0  0  0  0  0  0  0  0  0
    0.1392  -10.2346    1.8647 H   0  0  0  0  0  0  0  0  0  0  0  0
   -0.1809  -10.6552    3.5149 H   0  0  0  0  0  0  0  0  0  0  0  0
   -1.7758   -8.9014    2.8044 H   0  0  0  0  0  0  0  0  0  0  0  0
   -1.3644   -7.3049    4.6774 H   0  0  0  0  0  0  0  0  0  0  0  0
   -0.8278   -8.8894    5.2443 H   0  0  0  0  0  0  0  0  0  0  0  0
    0.9651   -6.8939    5.3377 H   0  0  0  0  0  0  0  0  0  0  0  0
    1.3927   -9.4781    5.4300 H   0  0  0  0  0  0  0  0  0  0  0  0
    2.7357   -8.5399    4.8747 H   0  0  0  0  0  0  0  0  0  0  0  0
    0.7607   -5.7839    3.2512 H   0  0  0  0  0  0  0  0  0  0  0  0
   -0.0072   -7.6527    1.2465 H   0  0  0  0  0  0  0  0  0  0  0  0
   -1.0673   -6.6688    2.2348 H   0  0  0  0  0  0  0  0  0  0  0  0
    2.5268   -2.8443    0.0042 H   0  0  0  0  0  0  0  0  0  0  0  0
    3.2299   -1.3170   -0.3929 H   0  0  0  0  0  0  0  0  0  0  0  0
  1  2  1  0
  1 28  1  0
  1 29  1  0
  1 30  1  0
  2 12  1  0
  2  3  1  0
  2 31  1  1
  3 27  1  0
  3  4  1  0
  3 32  1  1
  4  5  1  0
  4 33  1  0
  4 34  1  0
  5 10  1  0
  5  6  1  0
  5 35  1  6
  6  7  1  0
  6 36  1  0
  6 37  1  0
  7  8  1  0
  7 27  1  0
  7 38  1  6
  8  9  1  0
  8 39  1  0
  8 40  1  0
  9 10  1  0
  9 11  1  0
  9 41  1  6
 10 42  1  0
 10 43  1  0
 11 12  1  0
 11 44  1  0
 11 45  1  0
 12 26  1  6
 12 13  1  0
 13 14  1  0
 15 14  1  1
 15 23  1  0
 15 16  1  0
 15 25  1  0
 16 17  1  0
 16 46  1  0
 16 47  1  0
 17 22  1  0
 17 18  1  0
 17 48  1  1
 18 19  1  0
 18 49  1  0
 18 50  1  0
 19 24  1  0
 19 20  1  0
 19 51  1  6
 20 21  1  0
 20 52  1  0
 20 53  1  0
 21 22  1  0
 21 23  1  0
 21 54  1  1
 22 55  1  0
 22 56  1  0
 23 24  1  0
 23 57  1  1
 24 58  1  0
 24 59  1  0
 25 26  1  0
 27 60  1  0
 27 61  1  0
M  END
>  <i_m_ct_stereo_status>  (394) 
1

>  <s_m_source_file>  (394) 
/var/tmp/pbs.5076255.sched01/tmp0i_w_vt9/132llf9lao3.sdf

>  <i_m_source_file_index>  (394) 
29

>  <i_lp_mmshare_version>  (394) 
48012

>  <i_f3d_flags>  (394) 
0

>  <s_epik_input>  (394) 
W0NIMl0xW0NAQEhdKFtDSDJdMilbQ0gyXVtDQEBIXShbQ0gyXTMpW0NIMl1bQ0BIXTFbQ0gyXVtDQEBIXTNbQ0BASF0oW0NIM10pW0NAXTI0T09bQ0BAXTUoT080KVtDQEBIXTZbQ0BIXTdbQ0gyXVtDQEBIXShbQ0gyXTYpW0NIMl1bQ0BASF0oW0NIMl01KVtDSDJdNw==

>  <s_epik_cmdline>  (394) 
J2VwaWtfcHl0aG9uJywgJy1waHQnLCAnMi4wJywgJy1waCcsICc3LjAnLCAnLXRuJywgJzgnLCAnLW1hJywgJzIwMCcsICctaW1hZScsICc8aW5maWxlLm1hZT4nLCAnLW9tYWUnLCAnPG91dGZpbGUubWFlPic=

>  <r_lp_tautomer_probability>  (394) 
1

>  <r_epik_Ionization_Penalty>  (394) 
0

>  <r_epik_Ionization_Penalty_Charging>  (394) 
0

>  <r_epik_Ionization_Penalty_Neutral>  (394) 
0

>  <r_epik_State_Penalty>  (394) 
-0

>  <r_epik_Charging_Adjusted_Penalty>  (394) 
0

>  <i_epik_Tot_Q>  (394) 
0

>  <i_epik_Tot_abs_Q>  (394) 
0

>  <s_lp_Force_Field>  (394) 
OPLS3e

>  <r_lp_Energy>  (394) 
64.9426

>  <b_lp_Chiralities_Consistent>  (394) 
1

>  <s_lp_Variant>  (394) 
109:0-5

>  <s_i_glide_gridfile>  (394) 
pfpi4k_grid

>  <i_i_glide_lignum>  (394) 
29

>  <i_i_glide_rotatable_bonds>  (394) 
0

>  <r_i_docking_score>  (394) 
-2.90607

>  <r_i_glide_ligand_efficiency>  (394) 
-0.107632

>  <r_i_glide_ligand_efficiency_sa>  (394) 
-0.322897

>  <r_i_glide_ligand_efficiency_ln>  (394) 
-0.676485

>  <r_i_glide_gscore>  (394) 
-2.90607

>  <r_i_glide_lipo>  (394) 
-0.415199

>  <r_i_glide_hbond>  (394) 
0

>  <r_i_glide_metal>  (394) 
-0

>  <r_i_glide_rewards>  (394) 
-0.857163

>  <r_i_glide_evdw>  (394) 
-30.5445

>  <r_i_glide_ecoul>  (394) 
-0.650396

>  <r_i_glide_erotb>  (394) 
0

>  <r_i_glide_esite>  (394) 
-0.00892578

>  <r_i_glide_emodel>  (394) 
-36.3036

>  <r_i_glide_energy>  (394) 
-31.1948

>  <r_i_glide_einternal>  (394) 
0

>  <r_i_glide_intrahb_reward>  (394) 
-0

>  <i_i_glide_confnum>  (394) 
1

>  <i_i_glide_posenum>  (394) 
27

>  <r_i_glide_eff_state_penalty>  (394) 
0

>  <ligand_id>  (394) 
109

>  <original_smiles>  (394) 
CC1C2CC3CC(CC(C3)CC13OOC1(CC4CC5CC(C4)C1C5)OO3)C2

>  <smiles>  (394) 
[H]C([H])([H])C1([H])C2(OOC3(OO2)C([H])([H])C2([H])C([H])([H])C4([H])C([H])([H])C([H])(C2([H])[H])C3([H])C4([H])[H])C([H])([H])C2([H])C([H])([H])C3([H])C([H])([H])C([H])(C2([H])[H])C([H])([H])C1([H])C3([H])[H]

$$$$
109:4:1
     RDKit          3D

 61 67  0  0  1  0  0  0  0  0999 V2000
    3.4587   -3.7999    3.7239 C   0  0  0  0  0  0  0  0  0  0  0  0
    4.3540   -4.0297    2.4547 C   0  0  2  0  0  0  0  0  0  0  0  0
    4.6376   -2.6229    1.8307 C   0  0  1  0  0  0  0  0  0  0  0  0
    6.0792   -2.3383    1.3273 C   0  0  0  0  0  0  0  0  0  0  0  0
    6.2327   -2.1198   -0.1842 C   0  0  2  0  0  0  0  0  0  0  0  0
    5.1176   -1.2317   -0.7363 C   0  0  0  0  0  0  0  0  0  0  0  0
    3.7803   -1.9404   -0.5071 C   0  0  1  0  0  0  0  0  0  0  0  0
    3.7303   -3.2993   -1.2326 C   0  0  0  0  0  0  0  0  0  0  0  0
    4.9441   -4.2049   -0.9443 C   0  0  1  0  0  0  0  0  0  0  0  0
    6.2789   -3.4218   -0.9889 C   0  0  0  0  0  0  0  0  0  0  0  0
    4.8441   -5.2806    0.1746 C   0  0  0  0  0  0  0  0  0  0  0  0
    3.9507   -5.1981    1.4370 C   0  0  1  0  0  0  0  0  0  0  0  0
    4.2858   -6.4679    1.9880 O   0  0  0  0  0  0  0  0  0  0  0  0
    3.4127   -6.7286    3.1869 O   0  0  0  0  0  0  0  0  0  0  0  0
    2.0512   -6.7453    2.7711 C   0  0  1  0  0  0  0  0  0  0  0  0
    1.7495   -7.9006    1.7776 C   0  0  0  0  0  0  0  0  0  0  0  0
    1.3900   -9.2177    2.5041 C   0  0  2  0  0  0  0  0  0  0  0  0
   -0.1328   -9.3387    2.8027 C   0  0  0  0  0  0  0  0  0  0  0  0
   -0.6077   -8.4996    4.0211 C   0  0  1  0  0  0  0  0  0  0  0  0
    0.2272   -8.8471    5.2515 C   0  0  0  0  0  0  0  0  0  0  0  0
    1.5866   -8.2997    4.8170 C   0  0  1  0  0  0  0  0  0  0  0  0
    2.1847   -9.3242    3.8258 C   0  0  0  0  0  0  0  0  0  0  0  0
    1.2451   -6.9477    4.0936 C   0  0  2  0  0  0  0  0  0  0  0  0
   -0.2781   -7.0215    3.8487 C   0  0  0  0  0  0  0  0  0  0  0  0
    1.6877   -5.5002    2.1869 O   0  0  0  0  0  0  0  0  0  0  0  0
    2.5934   -5.2314    1.0003 O   0  0  0  0  0  0  0  0  0  0  0  0
    3.4939   -2.0113    0.9944 C   0  0  0  0  0  0  0  0  0  0  0  0
    2.4783   -3.4336    3.4319 H   0  0  0  0  0  0  0  0  0  0  0  0
    3.8693   -3.0364    4.3967 H   0  0  0  0  0  0  0  0  0  0  0  0
    3.3428   -4.6755    4.3507 H   0  0  0  0  0  0  0  0  0  0  0  0
    5.3107   -4.3639    2.8752 H   0  0  0  0  0  0  0  0  0  0  0  0
    4.6304   -1.9954    2.7118 H   0  0  0  0  0  0  0  0  0  0  0  0
    6.4720   -1.4585    1.8467 H   0  0  0  0  0  0  0  0  0  0  0  0
    6.7306   -3.1594    1.6050 H   0  0  0  0  0  0  0  0  0  0  0  0
    7.2020   -1.6478   -0.3340 H   0  0  0  0  0  0  0  0  0  0  0  0
    5.1216   -0.2632   -0.2333 H   0  0  0  0  0  0  0  0  0  0  0  0
    5.2639   -1.0528   -1.8006 H   0  0  0  0  0  0  0  0  0  0  0  0
    2.9875   -1.3416   -0.9445 H   0  0  0  0  0  0  0  0  0  0  0  0
    2.8042   -3.8248   -1.0170 H   0  0  0  0  0  0  0  0  0  0  0  0
    3.7006   -3.1014   -2.3081 H   0  0  0  0  0  0  0  0  0  0  0  0
    5.0049   -4.8405   -1.8281 H   0  0  0  0  0  0  0  0  0  0  0  0
    6.5113   -3.1768   -2.0292 H   0  0  0  0  0  0  0  0  0  0  0  0
    7.1156   -4.0320   -0.6589 H   0  0  0  0  0  0  0  0  0  0  0  0
    4.4961   -6.1781   -0.3317 H   0  0  0  0  0  0  0  0  0  0  0  0
    5.8568   -5.5078    0.4948 H   0  0  0  0  0  0  0  0  0  0  0  0
    0.9315   -7.5955    1.1202 H   0  0  0  0  0  0  0  0  0  0  0  0
    2.6007   -8.0641    1.1135 H   0  0  0  0  0  0  0  0  0  0  0  0
    1.6809  -10.0261    1.8374 H   0  0  0  0  0  0  0  0  0  0  0  0
   -0.7205   -9.0729    1.9249 H   0  0  0  0  0  0  0  0  0  0  0  0
   -0.3532  -10.3846    3.0094 H   0  0  0  0  0  0  0  0  0  0  0  0
   -1.6712   -8.6614    4.2067 H   0  0  0  0  0  0  0  0  0  0  0  0
   -0.1548   -8.3478    6.1403 H   0  0  0  0  0  0  0  0  0  0  0  0
    0.2352   -9.9192    5.4584 H   0  0  0  0  0  0  0  0  0  0  0  0
    2.2456   -8.1556    5.6776 H   0  0  0  0  0  0  0  0  0  0  0  0
    2.1245  -10.3307    4.2326 H   0  0  0  0  0  0  0  0  0  0  0  0
    3.2485   -9.1459    3.6620 H   0  0  0  0  0  0  0  0  0  0  0  0
    1.4526   -6.1103    4.7687 H   0  0  0  0  0  0  0  0  0  0  0  0
   -0.5894   -6.6406    2.8813 H   0  0  0  0  0  0  0  0  0  0  0  0
   -0.8005   -6.4476    4.6175 H   0  0  0  0  0  0  0  0  0  0  0  0
    2.5621   -2.5495    1.1539 H   0  0  0  0  0  0  0  0  0  0  0  0
    3.3091   -0.9943    1.3464 H   0  0  0  0  0  0  0  0  0  0  0  0
  1  2  1  0
  1 28  1  0
  1 29  1  0
  1 30  1  0
  2 12  1  0
  2  3  1  0
  2 31  1  1
  3 27  1  0
  3  4  1  0
  3 32  1  1
  4  5  1  0
  4 33  1  0
  4 34  1  0
  5 10  1  0
  5  6  1  0
  5 35  1  1
  6  7  1  0
  6 36  1  0
  6 37  1  0
  7  8  1  0
  7 27  1  0
  7 38  1  6
  8  9  1  0
  8 39  1  0
  8 40  1  0
  9 10  1  0
  9 11  1  0
  9 41  1  6
 10 42  1  0
 10 43  1  0
 11 12  1  0
 11 44  1  0
 11 45  1  0
 12 26  1  6
 12 13  1  0
 13 14  1  0
 15 14  1  1
 15 23  1  0
 15 16  1  0
 15 25  1  0
 16 17  1  0
 16 46  1  0
 16 47  1  0
 17 22  1  0
 17 18  1  0
 17 48  1  6
 18 19  1  0
 18 49  1  0
 18 50  1  0
 19 24  1  0
 19 20  1  0
 19 51  1  1
 20 21  1  0
 20 52  1  0
 20 53  1  0
 21 22  1  0
 21 23  1  0
 21 54  1  1
 22 55  1  0
 22 56  1  0
 23 24  1  0
 23 57  1  1
 24 58  1  0
 24 59  1  0
 25 26  1  0
 27 60  1  0
 27 61  1  0
M  END
>  <i_m_ct_stereo_status>  (395) 
1

>  <s_m_source_file>  (395) 
/var/tmp/pbs.5076255.sched01/tmp0i_w_vt9/132llf9lao3.sdf

>  <i_m_source_file_index>  (395) 
29

>  <i_lp_mmshare_version>  (395) 
48012

>  <i_f3d_flags>  (395) 
0

>  <s_epik_input>  (395) 
W0NIMl0xW0NAQEhdKFtDSDJdMilbQ0gyXVtDQEBIXShbQ0gyXTMpW0NIMl1bQ0BIXTFbQ0gyXVtDQEBIXTNbQ0BASF0oW0NIM10pW0NAXTI0T09bQ0BAXTUoT080KVtDQEBIXTZbQ0BIXTdbQ0gyXVtDQEBIXShbQ0gyXTYpW0NIMl1bQ0BASF0oW0NIMl01KVtDSDJdNw==

>  <s_epik_cmdline>  (395) 
J2VwaWtfcHl0aG9uJywgJy1waHQnLCAnMi4wJywgJy1waCcsICc3LjAnLCAnLXRuJywgJzgnLCAnLW1hJywgJzIwMCcsICctaW1hZScsICc8aW5maWxlLm1hZT4nLCAnLW9tYWUnLCAnPG91dGZpbGUubWFlPic=

>  <r_lp_tautomer_probability>  (395) 
1

>  <r_epik_Ionization_Penalty>  (395) 
0

>  <r_epik_Ionization_Penalty_Charging>  (395) 
0

>  <r_epik_Ionization_Penalty_Neutral>  (395) 
0

>  <r_epik_State_Penalty>  (395) 
-0

>  <r_epik_Charging_Adjusted_Penalty>  (395) 
0

>  <i_epik_Tot_Q>  (395) 
0

>  <i_epik_Tot_abs_Q>  (395) 
0

>  <s_lp_Force_Field>  (395) 
OPLS3e

>  <r_lp_Energy>  (395) 
64.9426

>  <b_lp_Chiralities_Consistent>  (395) 
1

>  <s_lp_Variant>  (395) 
109:0-5

>  <s_i_glide_gridfile>  (395) 
pfpi4k_grid

>  <i_i_glide_lignum>  (395) 
29

>  <i_i_glide_rotatable_bonds>  (395) 
0

>  <r_i_docking_score>  (395) 
-2.85208

>  <r_i_glide_ligand_efficiency>  (395) 
-0.105633

>  <r_i_glide_ligand_efficiency_sa>  (395) 
-0.316898

>  <r_i_glide_ligand_efficiency_ln>  (395) 
-0.663917

>  <r_i_glide_gscore>  (395) 
-2.85208

>  <r_i_glide_lipo>  (395) 
-0.382597

>  <r_i_glide_hbond>  (395) 
-0.000641491

>  <r_i_glide_metal>  (395) 
-0

>  <r_i_glide_rewards>  (395) 
-0.881959

>  <r_i_glide_evdw>  (395) 
-30.5902

>  <r_i_glide_ecoul>  (395) 
-0.319703

>  <r_i_glide_erotb>  (395) 
0

>  <r_i_glide_esite>  (395) 
-0.00941576

>  <r_i_glide_emodel>  (395) 
-36.0567

>  <r_i_glide_energy>  (395) 
-30.9099

>  <r_i_glide_einternal>  (395) 
0

>  <r_i_glide_intrahb_reward>  (395) 
-0

>  <i_i_glide_confnum>  (395) 
2

>  <i_i_glide_posenum>  (395) 
23

>  <r_i_glide_eff_state_penalty>  (395) 
0

>  <ligand_id>  (395) 
109

>  <original_smiles>  (395) 
CC1C2CC3CC(CC(C3)CC13OOC1(CC4CC5CC(C4)C1C5)OO3)C2

>  <smiles>  (395) 
[H]C([H])([H])C1([H])C2(OOC3(OO2)C([H])([H])C2([H])C([H])([H])C4([H])C([H])([H])C([H])(C2([H])[H])C3([H])C4([H])[H])C([H])([H])C2([H])C([H])([H])C3([H])C([H])([H])C([H])(C2([H])[H])C([H])([H])C1([H])C3([H])[H]

$$$$
109:4:2
     RDKit          3D

 61 67  0  0  1  0  0  0  0  0999 V2000
    5.1463   -8.1796    1.3033 C   0  0  0  0  0  0  0  0  0  0  0  0
    4.2574   -7.6362    2.4561 C   0  0  2  0  0  0  0  0  0  0  0  0
    3.2106   -8.7060    2.8576 C   0  0  1  0  0  0  0  0  0  0  0  0
    2.8614   -8.7636    4.3765 C   0  0  0  0  0  0  0  0  0  0  0  0
    1.4382   -8.3369    4.7890 C   0  0  2  0  0  0  0  0  0  0  0  0
    0.3929   -8.8704    3.8043 C   0  0  0  0  0  0  0  0  0  0  0  0
    0.6771   -8.2910    2.4143 C   0  0  1  0  0  0  0  0  0  0  0  0
    0.6087   -6.7538    2.4321 C   0  0  0  0  0  0  0  0  0  0  0  0
    1.3958   -6.0722    3.5787 C   0  0  1  0  0  0  0  0  0  0  0  0
    1.2716   -6.8197    4.9200 C   0  0  0  0  0  0  0  0  0  0  0  0
    2.8253   -5.5735    3.2960 C   0  0  0  0  0  0  0  0  0  0  0  0
    3.7533   -6.1768    2.1936 C   0  0  1  0  0  0  0  0  0  0  0  0
    4.9568   -5.3871    2.2335 O   0  0  0  0  0  0  0  0  0  0  0  0
    4.5684   -3.9647    2.0453 O   0  0  0  0  0  0  0  0  0  0  0  0
    3.9981   -3.7897    0.7380 C   0  0  1  0  0  0  0  0  0  0  0  0
    3.5042   -2.3183    0.5853 C   0  0  0  0  0  0  0  0  0  0  0  0
    4.5992   -1.3699    0.0666 C   0  0  2  0  0  0  0  0  0  0  0  0
    4.6643   -1.2956   -1.4918 C   0  0  0  0  0  0  0  0  0  0  0  0
    5.3299   -2.5499   -2.1355 C   0  0  1  0  0  0  0  0  0  0  0  0
    6.7137   -2.7818   -1.5248 C   0  0  0  0  0  0  0  0  0  0  0  0
    6.3273   -3.1587   -0.0937 C   0  0  1  0  0  0  0  0  0  0  0  0
    5.9638   -1.8219    0.6185 C   0  0  0  0  0  0  0  0  0  0  0  0
    5.1011   -4.0946   -0.2944 C   0  0  2  0  0  0  0  0  0  0  0  0
    4.6157   -3.8420   -1.7244 C   0  0  0  0  0  0  0  0  0  0  0  0
    2.8324   -4.6253    0.6193 O   0  0  0  0  0  0  0  0  0  0  0  0
    3.1937   -6.0800    0.8787 O   0  0  0  0  0  0  0  0  0  0  0  0
    2.0064   -8.8541    1.8963 C   0  0  0  0  0  0  0  0  0  0  0  0
    4.5839   -8.3429    0.3817 H   0  0  0  0  0  0  0  0  0  0  0  0
    5.5867   -9.1556    1.5727 H   0  0  0  0  0  0  0  0  0  0  0  0
    5.9828   -7.5228    1.0838 H   0  0  0  0  0  0  0  0  0  0  0  0
    4.9499   -7.5695    3.2952 H   0  0  0  0  0  0  0  0  0  0  0  0
    3.7459   -9.6422    2.7190 H   0  0  0  0  0  0  0  0  0  0  0  0
    3.0101   -9.8004    4.7240 H   0  0  0  0  0  0  0  0  0  0  0  0
    3.5790   -8.1807    4.9447 H   0  0  0  0  0  0  0  0  0  0  0  0
    1.2480   -8.7521    5.7771 H   0  0  0  0  0  0  0  0  0  0  0  0
    0.4234   -9.9616    3.7785 H   0  0  0  0  0  0  0  0  0  0  0  0
   -0.6071   -8.5834    4.1332 H   0  0  0  0  0  0  0  0  0  0  0  0
   -0.0916   -8.6299    1.7231 H   0  0  0  0  0  0  0  0  0  0  0  0
    0.8789   -6.3400    1.4664 H   0  0  0  0  0  0  0  0  0  0  0  0
   -0.4457   -6.4962    2.5616 H   0  0  0  0  0  0  0  0  0  0  0  0
    0.8532   -5.1582    3.7598 H   0  0  0  0  0  0  0  0  0  0  0  0
    0.2836   -6.6209    5.3402 H   0  0  0  0  0  0  0  0  0  0  0  0
    1.9685   -6.4250    5.6580 H   0  0  0  0  0  0  0  0  0  0  0  0
    2.6688   -4.5144    3.0657 H   0  0  0  0  0  0  0  0  0  0  0  0
    3.3890   -5.5449    4.2254 H   0  0  0  0  0  0  0  0  0  0  0  0
    2.6500   -2.2879   -0.0805 H   0  0  0  0  0  0  0  0  0  0  0  0
    3.1254   -1.9738    1.5466 H   0  0  0  0  0  0  0  0  0  0  0  0
    4.3757   -0.3625    0.4289 H   0  0  0  0  0  0  0  0  0  0  0  0
    3.6686   -1.1381   -1.9097 H   0  0  0  0  0  0  0  0  0  0  0  0
    5.2434   -0.4163   -1.7839 H   0  0  0  0  0  0  0  0  0  0  0  0
    5.3784   -2.4447   -3.2226 H   0  0  0  0  0  0  0  0  0  0  0  0
    7.2253   -3.5990   -2.0304 H   0  0  0  0  0  0  0  0  0  0  0  0
    7.3622   -1.9055   -1.5878 H   0  0  0  0  0  0  0  0  0  0  0  0
    7.1495   -3.6517    0.4318 H   0  0  0  0  0  0  0  0  0  0  0  0
    6.7291   -1.0634    0.4665 H   0  0  0  0  0  0  0  0  0  0  0  0
    5.9060   -1.9466    1.7010 H   0  0  0  0  0  0  0  0  0  0  0  0
    5.4190   -5.1433   -0.2242 H   0  0  0  0  0  0  0  0  0  0  0  0
    3.5369   -3.7764   -1.8360 H   0  0  0  0  0  0  0  0  0  0  0  0
    4.9531   -4.6532   -2.3748 H   0  0  0  0  0  0  0  0  0  0  0  0
    2.2358   -8.4382    0.9196 H   0  0  0  0  0  0  0  0  0  0  0  0
    1.8510   -9.9239    1.7073 H   0  0  0  0  0  0  0  0  0  0  0  0
  1  2  1  0
  1 28  1  0
  1 29  1  0
  1 30  1  0
  2 12  1  0
  2  3  1  0
  2 31  1  1
  3 27  1  0
  3  4  1  0
  3 32  1  6
  4  5  1  0
  4 33  1  0
  4 34  1  0
  5 10  1  0
  5  6  1  0
  5 35  1  1
  6  7  1  0
  6 36  1  0
  6 37  1  0
  7  8  1  0
  7 27  1  0
  7 38  1  6
  8  9  1  0
  8 39  1  0
  8 40  1  0
  9 10  1  0
  9 11  1  0
  9 41  1  1
 10 42  1  0
 10 43  1  0
 11 12  1  0
 11 44  1  0
 11 45  1  0
 12 26  1  6
 12 13  1  0
 13 14  1  0
 15 14  1  1
 15 23  1  0
 15 16  1  0
 15 25  1  0
 16 17  1  0
 16 46  1  0
 16 47  1  0
 17 22  1  0
 17 18  1  0
 17 48  1  1
 18 19  1  0
 18 49  1  0
 18 50  1  0
 19 24  1  0
 19 20  1  0
 19 51  1  6
 20 21  1  0
 20 52  1  0
 20 53  1  0
 21 22  1  0
 21 23  1  0
 21 54  1  1
 22 55  1  0
 22 56  1  0
 23 24  1  0
 23 57  1  6
 24 58  1  0
 24 59  1  0
 25 26  1  0
 27 60  1  0
 27 61  1  0
M  END
>  <i_m_ct_stereo_status>  (396) 
1

>  <s_m_source_file>  (396) 
/var/tmp/pbs.5076255.sched01/tmp0i_w_vt9/132llf9lao3.sdf

>  <i_m_source_file_index>  (396) 
29

>  <i_lp_mmshare_version>  (396) 
48012

>  <i_f3d_flags>  (396) 
0

>  <s_epik_input>  (396) 
W0NIMl0xW0NAQEhdKFtDSDJdMilbQ0gyXVtDQEBIXShbQ0gyXTMpW0NIMl1bQ0BIXTFbQ0gyXVtDQEBIXTNbQ0BASF0oW0NIM10pW0NAXTI0T09bQ0BAXTUoT080KVtDQEBIXTZbQ0BIXTdbQ0gyXVtDQEBIXShbQ0gyXTYpW0NIMl1bQ0BASF0oW0NIMl01KVtDSDJdNw==

>  <s_epik_cmdline>  (396) 
J2VwaWtfcHl0aG9uJywgJy1waHQnLCAnMi4wJywgJy1waCcsICc3LjAnLCAnLXRuJywgJzgnLCAnLW1hJywgJzIwMCcsICctaW1hZScsICc8aW5maWxlLm1hZT4nLCAnLW9tYWUnLCAnPG91dGZpbGUubWFlPic=

>  <r_lp_tautomer_probability>  (396) 
1

>  <r_epik_Ionization_Penalty>  (396) 
0

>  <r_epik_Ionization_Penalty_Charging>  (396) 
0

>  <r_epik_Ionization_Penalty_Neutral>  (396) 
0

>  <r_epik_State_Penalty>  (396) 
-0

>  <r_epik_Charging_Adjusted_Penalty>  (396) 
0

>  <i_epik_Tot_Q>  (396) 
0

>  <i_epik_Tot_abs_Q>  (396) 
0

>  <s_lp_Force_Field>  (396) 
OPLS3e

>  <r_lp_Energy>  (396) 
64.9426

>  <b_lp_Chiralities_Consistent>  (396) 
1

>  <s_lp_Variant>  (396) 
109:0-5

>  <s_i_glide_gridfile>  (396) 
pfpi4k_grid

>  <i_i_glide_lignum>  (396) 
29

>  <i_i_glide_rotatable_bonds>  (396) 
0

>  <r_i_docking_score>  (396) 
-2.77985

>  <r_i_glide_ligand_efficiency>  (396) 
-0.102958

>  <r_i_glide_ligand_efficiency_sa>  (396) 
-0.308873

>  <r_i_glide_ligand_efficiency_ln>  (396) 
-0.647104

>  <r_i_glide_gscore>  (396) 
-2.77985

>  <r_i_glide_lipo>  (396) 
-0.36515

>  <r_i_glide_hbond>  (396) 
0

>  <r_i_glide_metal>  (396) 
-0

>  <r_i_glide_rewards>  (396) 
-0.889359

>  <r_i_glide_evdw>  (396) 
-30.8837

>  <r_i_glide_ecoul>  (396) 
0.125583

>  <r_i_glide_erotb>  (396) 
0

>  <r_i_glide_esite>  (396) 
0

>  <r_i_glide_emodel>  (396) 
-35.7232

>  <r_i_glide_energy>  (396) 
-30.7581

>  <r_i_glide_einternal>  (396) 
0

>  <r_i_glide_intrahb_reward>  (396) 
-0

>  <i_i_glide_confnum>  (396) 
1

>  <i_i_glide_posenum>  (396) 
2

>  <r_i_glide_eff_state_penalty>  (396) 
0

>  <ligand_id>  (396) 
109

>  <original_smiles>  (396) 
CC1C2CC3CC(CC(C3)CC13OOC1(CC4CC5CC(C4)C1C5)OO3)C2

>  <smiles>  (396) 
[H]C([H])([H])C1([H])C2(OOC3(OO2)C([H])([H])C2([H])C([H])([H])C4([H])C([H])([H])C([H])(C2([H])[H])C3([H])C4([H])[H])C([H])([H])C2([H])C([H])([H])C3([H])C([H])([H])C([H])(C2([H])[H])C([H])([H])C1([H])C3([H])[H]

$$$$
109:5:0
     RDKit          3D

 61 67  0  0  1  0  0  0  0  0999 V2000
    4.8749   -6.6060    0.6335 C   0  0  0  0  0  0  0  0  0  0  0  0
    4.4263   -5.1814    0.2397 C   0  0  2  0  0  0  0  0  0  0  0  0
    5.6732   -4.2537    0.2219 C   0  0  2  0  0  0  0  0  0  0  0  0
    6.1562   -3.4718   -1.0288 C   0  0  0  0  0  0  0  0  0  0  0  0
    5.8762   -1.9397   -0.8914 C   0  0  2  0  0  0  0  0  0  0  0  0
    6.5740   -1.4146    0.3810 C   0  0  0  0  0  0  0  0  0  0  0  0
    5.9923   -2.1286    1.6155 C   0  0  1  0  0  0  0  0  0  0  0  0
    4.5100   -1.6912    1.7872 C   0  0  0  0  0  0  0  0  0  0  0  0
    3.5986   -1.8356    0.5213 C   0  0  1  0  0  0  0  0  0  0  0  0
    4.3643   -1.5493   -0.8327 C   0  0  0  0  0  0  0  0  0  0  0  0
    2.6700   -3.1227    0.5065 C   0  0  0  0  0  0  0  0  0  0  0  0
    3.1006   -4.5797    0.9615 C   0  0  1  0  0  0  0  0  0  0  0  0
    1.9310   -5.3352    0.6024 O   0  0  0  0  0  0  0  0  0  0  0  0
    2.0559   -6.7189    1.1879 O   0  0  0  0  0  0  0  0  0  0  0  0
    2.1495   -6.6358    2.6210 C   0  0  1  0  0  0  0  0  0  0  0  0
    0.8538   -6.0385    3.2454 C   0  0  0  0  0  0  0  0  0  0  0  0
   -0.2135   -7.1221    3.5446 C   0  0  2  0  0  0  0  0  0  0  0  0
   -0.0668   -7.7086    4.9746 C   0  0  0  0  0  0  0  0  0  0  0  0
    1.0975   -8.7340    5.1153 C   0  0  1  0  0  0  0  0  0  0  0  0
    0.9465   -9.8443    4.0729 C   0  0  0  0  0  0  0  0  0  0  0  0
    1.1900   -9.0518    2.7906 C   0  0  1  0  0  0  0  0  0  0  0  0
   -0.1087   -8.2615    2.5022 C   0  0  0  0  0  0  0  0  0  0  0  0
    2.3661   -8.0858    3.1551 C   0  0  2  0  0  0  0  0  0  0  0  0
    2.4380   -8.1302    4.7044 C   0  0  0  0  0  0  0  0  0  0  0  0
    3.3010   -5.8734    2.9939 O   0  0  0  0  0  0  0  0  0  0  0  0
    3.1918   -4.4897    2.3896 O   0  0  0  0  0  0  0  0  0  0  0  0
    6.2346   -3.6718    1.5244 C   0  0  0  0  0  0  0  0  0  0  0  0
    5.1675   -6.6483    1.6731 H   0  0  0  0  0  0  0  0  0  0  0  0
    5.7710   -6.8657    0.0808 H   0  0  0  0  0  0  0  0  0  0  0  0
    4.1065   -7.3450    0.4273 H   0  0  0  0  0  0  0  0  0  0  0  0
    4.1424   -5.2596   -0.8158 H   0  0  0  0  0  0  0  0  0  0  0  0
    4.9038   -3.6116    0.2039 H   0  0  0  0  0  0  0  0  0  0  0  0
    7.2275   -3.6184   -1.1306 H   0  0  0  0  0  0  0  0  0  0  0  0
    5.7155   -3.8517   -1.9546 H   0  0  0  0  0  0  0  0  0  0  0  0
    6.2940   -1.4735   -1.7862 H   0  0  0  0  0  0  0  0  0  0  0  0
    7.6495   -1.5886    0.3275 H   0  0  0  0  0  0  0  0  0  0  0  0
    6.4205   -0.3426    0.4779 H   0  0  0  0  0  0  0  0  0  0  0  0
    6.5247   -1.7813    2.5008 H   0  0  0  0  0  0  0  0  0  0  0  0
    4.0824   -2.2299    2.6231 H   0  0  0  0  0  0  0  0  0  0  0  0
    4.4965   -0.6415    2.0890 H   0  0  0  0  0  0  0  0  0  0  0  0
    2.8638   -1.0277    0.5869 H   0  0  0  0  0  0  0  0  0  0  0  0
    4.2616   -0.4870   -1.0686 H   0  0  0  0  0  0  0  0  0  0  0  0
    3.8659   -2.0690   -1.6438 H   0  0  0  0  0  0  0  0  0  0  0  0
    1.8531   -2.8656    1.1823 H   0  0  0  0  0  0  0  0  0  0  0  0
    2.2224   -3.1994   -0.4823 H   0  0  0  0  0  0  0  0  0  0  0  0
    1.1063   -5.4827    4.1569 H   0  0  0  0  0  0  0  0  0  0  0  0
    0.4405   -5.2808    2.5814 H   0  0  0  0  0  0  0  0  0  0  0  0
   -1.1902   -6.6559    3.4687 H   0  0  0  0  0  0  0  0  0  0  0  0
    0.0536   -6.9139    5.7086 H   0  0  0  0  0  0  0  0  0  0  0  0
   -0.9930   -8.2239    5.2328 H   0  0  0  0  0  0  0  0  0  0  0  0
    1.1271   -9.1469    6.1270 H   0  0  0  0  0  0  0  0  0  0  0  0
    1.6921  -10.6232    4.2236 H   0  0  0  0  0  0  0  0  0  0  0  0
   -0.0353  -10.3221    4.1081 H   0  0  0  0  0  0  0  0  0  0  0  0
    1.4459   -9.7108    1.9591 H   0  0  0  0  0  0  0  0  0  0  0  0
   -0.9689   -8.9240    2.5591 H   0  0  0  0  0  0  0  0  0  0  0  0
   -0.1152   -7.8733    1.4809 H   0  0  0  0  0  0  0  0  0  0  0  0
    3.3076   -8.4662    2.7474 H   0  0  0  0  0  0  0  0  0  0  0  0
    2.6342   -7.1733    5.1766 H   0  0  0  0  0  0  0  0  0  0  0  0
    3.2384   -8.8070    5.0098 H   0  0  0  0  0  0  0  0  0  0  0  0
    5.8231   -4.1860    2.3976 H   0  0  0  0  0  0  0  0  0  0  0  0
    7.3037   -3.8679    1.5329 H   0  0  0  0  0  0  0  0  0  0  0  0
  1  2  1  0
  1 28  1  0
  1 29  1  0
  1 30  1  0
  2 12  1  0
  2  3  1  0
  2 31  1  6
  3 27  1  0
  3  4  1  0
  3 32  1  6
  4  5  1  0
  4 33  1  0
  4 34  1  0
  5 10  1  0
  5  6  1  0
  5 35  1  6
  6  7  1  0
  6 36  1  0
  6 37  1  0
  7  8  1  0
  7 27  1  0
  7 38  1  1
  8  9  1  0
  8 39  1  0
  8 40  1  0
  9 10  1  0
  9 11  1  0
  9 41  1  1
 10 42  1  0
 10 43  1  0
 11 12  1  0
 11 44  1  0
 11 45  1  0
 12 26  1  1
 12 13  1  0
 13 14  1  0
 15 14  1  6
 15 23  1  0
 15 16  1  0
 15 25  1  0
 16 17  1  0
 16 46  1  0
 16 47  1  0
 17 22  1  0
 17 18  1  0
 17 48  1  1
 18 19  1  0
 18 49  1  0
 18 50  1  0
 19 24  1  0
 19 20  1  0
 19 51  1  1
 20 21  1  0
 20 52  1  0
 20 53  1  0
 21 22  1  0
 21 23  1  0
 21 54  1  6
 22 55  1  0
 22 56  1  0
 23 24  1  0
 23 57  1  6
 24 58  1  0
 24 59  1  0
 25 26  1  0
 27 60  1  0
 27 61  1  0
M  END
>  <i_m_ct_stereo_status>  (397) 
1

>  <s_m_source_file>  (397) 
/var/tmp/pbs.5076255.sched01/tmp0i_w_vt9/132llf9lao3.sdf

>  <i_m_source_file_index>  (397) 
30

>  <i_lp_mmshare_version>  (397) 
48012

>  <i_f3d_flags>  (397) 
0

>  <s_epik_input>  (397) 
W0NIMl0xW0NAQEhdKFtDSDJdMilbQ0gyXVtDQEBIXShbQ0gyXTMpW0NIMl1bQ0BIXTFbQ0gyXVtDQEBIXTNbQ0BASF0oW0NIM10pW0NAXTI0T09bQ0BAXTUoT080KVtDQEBIXTZbQ0BIXTdbQ0gyXVtDQEBIXShbQ0gyXTYpW0NIMl1bQ0BASF0oW0NIMl01KVtDSDJdNw==

>  <s_epik_cmdline>  (397) 
J2VwaWtfcHl0aG9uJywgJy1waHQnLCAnMi4wJywgJy1waCcsICc3LjAnLCAnLXRuJywgJzgnLCAnLW1hJywgJzIwMCcsICctaW1hZScsICc8aW5maWxlLm1hZT4nLCAnLW9tYWUnLCAnPG91dGZpbGUubWFlPic=

>  <r_lp_tautomer_probability>  (397) 
1

>  <r_epik_Ionization_Penalty>  (397) 
0

>  <r_epik_Ionization_Penalty_Charging>  (397) 
0

>  <r_epik_Ionization_Penalty_Neutral>  (397) 
0

>  <r_epik_State_Penalty>  (397) 
-0

>  <r_epik_Charging_Adjusted_Penalty>  (397) 
0

>  <i_epik_Tot_Q>  (397) 
0

>  <i_epik_Tot_abs_Q>  (397) 
0

>  <s_lp_Force_Field>  (397) 
OPLS3e

>  <r_lp_Energy>  (397) 
116.675

>  <b_lp_Chiralities_Consistent>  (397) 
1

>  <s_lp_Variant>  (397) 
109:0-6

>  <s_i_glide_gridfile>  (397) 
pfpi4k_grid

>  <i_i_glide_lignum>  (397) 
30

>  <i_i_glide_rotatable_bonds>  (397) 
0

>  <r_i_docking_score>  (397) 
-3.09117

>  <r_i_glide_ligand_efficiency>  (397) 
-0.114488

>  <r_i_glide_ligand_efficiency_sa>  (397) 
-0.343463

>  <r_i_glide_ligand_efficiency_ln>  (397) 
-0.719572

>  <r_i_glide_gscore>  (397) 
-3.09117

>  <r_i_glide_lipo>  (397) 
-0.545514

>  <r_i_glide_hbond>  (397) 
-0.075797

>  <r_i_glide_metal>  (397) 
-0

>  <r_i_glide_rewards>  (397) 
-0.855589

>  <r_i_glide_evdw>  (397) 
-27.7216

>  <r_i_glide_ecoul>  (397) 
-1.41428

>  <r_i_glide_erotb>  (397) 
0

>  <r_i_glide_esite>  (397) 
-0.0160431

>  <r_i_glide_emodel>  (397) 
-34.7915

>  <r_i_glide_energy>  (397) 
-29.1359

>  <r_i_glide_einternal>  (397) 
0

>  <r_i_glide_intrahb_reward>  (397) 
-0

>  <i_i_glide_confnum>  (397) 
2

>  <i_i_glide_posenum>  (397) 
16

>  <r_i_glide_eff_state_penalty>  (397) 
0

>  <ligand_id>  (397) 
109

>  <original_smiles>  (397) 
CC1C2CC3CC(CC(C3)CC13OOC1(CC4CC5CC(C4)C1C5)OO3)C2

>  <smiles>  (397) 
[H]C([H])([H])C1([H])C2(OOC3(OO2)C([H])([H])C2([H])C([H])([H])C4([H])C([H])([H])C([H])(C2([H])[H])C3([H])C4([H])[H])C([H])([H])C2([H])C([H])([H])C3([H])C([H])([H])C([H])(C2([H])[H])C([H])([H])C1([H])C3([H])[H]

$$$$
109:5:1
     RDKit          3D

 61 67  0  0  1  0  0  0  0  0999 V2000
    2.2752   -3.1357    3.0078 C   0  0  0  0  0  0  0  0  0  0  0  0
    3.6831   -3.4113    2.4204 C   0  0  2  0  0  0  0  0  0  0  0  0
    3.9331   -2.3309    1.3219 C   0  0  2  0  0  0  0  0  0  0  0  0
    5.0827   -1.2978    1.3743 C   0  0  0  0  0  0  0  0  0  0  0  0
    6.1972   -1.6315    0.3127 C   0  0  2  0  0  0  0  0  0  0  0  0
    5.5621   -1.6755   -1.0932 C   0  0  0  0  0  0  0  0  0  0  0  0
    4.4874   -2.7727   -1.1474 C   0  0  1  0  0  0  0  0  0  0  0  0
    5.1843   -4.1585   -1.0011 C   0  0  0  0  0  0  0  0  0  0  0  0
    6.1703   -4.3296    0.2052 C   0  0  1  0  0  0  0  0  0  0  0  0
    6.9352   -2.9962    0.5616 C   0  0  0  0  0  0  0  0  0  0  0  0
    5.5650   -5.1182    1.4529 C   0  0  0  0  0  0  0  0  0  0  0  0
    4.0899   -4.9111    2.0215 C   0  0  1  0  0  0  0  0  0  0  0  0
    4.1512   -5.7602    3.1762 O   0  0  0  0  0  0  0  0  0  0  0  0
    2.7818   -5.9382    3.7458 O   0  0  0  0  0  0  0  0  0  0  0  0
    1.9192   -6.5479    2.7796 C   0  0  1  0  0  0  0  0  0  0  0  0
    2.4040   -7.9649    2.4413 C   0  0  0  0  0  0  0  0  0  0  0  0
    1.7981   -9.0226    3.4048 C   0  0  2  0  0  0  0  0  0  0  0  0
    0.4480   -9.6088    2.8827 C   0  0  0  0  0  0  0  0  0  0  0  0
   -0.7637   -8.6490    3.0763 C   0  0  1  0  0  0  0  0  0  0  0  0
   -0.8781   -8.2302    4.5378 C   0  0  0  0  0  0  0  0  0  0  0  0
    0.4011   -7.3937    4.6938 C   0  0  1  0  0  0  0  0  0  0  0  0
    1.5727   -8.4069    4.8057 C   0  0  0  0  0  0  0  0  0  0  0  0
    0.4969   -6.5816    3.3606 C   0  0  2  0  0  0  0  0  0  0  0  0
   -0.5159   -7.2846    2.4198 C   0  0  0  0  0  0  0  0  0  0  0  0
    1.8635   -5.7300    1.6089 O   0  0  0  0  0  0  0  0  0  0  0  0
    3.2370   -5.5368    1.0548 O   0  0  0  0  0  0  0  0  0  0  0  0
    3.3674   -2.4940   -0.0948 C   0  0  0  0  0  0  0  0  0  0  0  0
    1.5064   -3.3878    2.2909 H   0  0  0  0  0  0  0  0  0  0  0  0
    2.1236   -2.0743    3.2474 H   0  0  0  0  0  0  0  0  0  0  0  0
    2.0901   -3.6797    3.9361 H   0  0  0  0  0  0  0  0  0  0  0  0
    4.3638   -3.1473    3.2316 H   0  0  0  0  0  0  0  0  0  0  0  0
    4.6588   -3.0056    1.1684 H   0  0  0  0  0  0  0  0  0  0  0  0
    4.6777   -0.3100    1.1428 H   0  0  0  0  0  0  0  0  0  0  0  0
    5.5241   -1.2114    2.3656 H   0  0  0  0  0  0  0  0  0  0  0  0
    6.9313   -0.8323    0.3692 H   0  0  0  0  0  0  0  0  0  0  0  0
    5.1195   -0.7037   -1.3336 H   0  0  0  0  0  0  0  0  0  0  0  0
    6.3276   -1.8762   -1.8464 H   0  0  0  0  0  0  0  0  0  0  0  0
    4.0047   -2.7608   -2.1232 H   0  0  0  0  0  0  0  0  0  0  0  0
    4.4343   -4.9361   -0.9966 H   0  0  0  0  0  0  0  0  0  0  0  0
    5.7515   -4.3176   -1.9267 H   0  0  0  0  0  0  0  0  0  0  0  0
    6.9512   -5.0055   -0.1269 H   0  0  0  0  0  0  0  0  0  0  0  0
    7.8856   -2.9821    0.0100 H   0  0  0  0  0  0  0  0  0  0  0  0
    7.2204   -3.0225    1.6082 H   0  0  0  0  0  0  0  0  0  0  0  0
    5.6304   -6.1705    1.1916 H   0  0  0  0  0  0  0  0  0  0  0  0
    6.2614   -5.0054    2.2857 H   0  0  0  0  0  0  0  0  0  0  0  0
    2.1669   -8.2301    1.4112 H   0  0  0  0  0  0  0  0  0  0  0  0
    3.4883   -8.0467    2.4953 H   0  0  0  0  0  0  0  0  0  0  0  0
    2.5083   -9.8554    3.4909 H   0  0  0  0  0  0  0  0  0  0  0  0
    0.5486   -9.8903    1.8375 H   0  0  0  0  0  0  0  0  0  0  0  0
    0.2286  -10.5328    3.4252 H   0  0  0  0  0  0  0  0  0  0  0  0
   -1.6832   -9.1191    2.7234 H   0  0  0  0  0  0  0  0  0  0  0  0
   -1.7730   -7.6334    4.7143 H   0  0  0  0  0  0  0  0  0  0  0  0
   -0.9127   -9.0775    5.2253 H   0  0  0  0  0  0  0  0  0  0  0  0
    0.3458   -6.7581    5.5792 H   0  0  0  0  0  0  0  0  0  0  0  0
    1.3509   -9.1748    5.5496 H   0  0  0  0  0  0  0  0  0  0  0  0
    2.4801   -7.9156    5.1647 H   0  0  0  0  0  0  0  0  0  0  0  0
    0.1586   -5.5578    3.5538 H   0  0  0  0  0  0  0  0  0  0  0  0
   -0.1884   -7.3771    1.3843 H   0  0  0  0  0  0  0  0  0  0  0  0
   -1.4715   -6.7475    2.4055 H   0  0  0  0  0  0  0  0  0  0  0  0
    2.5971   -3.2556   -0.1419 H   0  0  0  0  0  0  0  0  0  0  0  0
    2.8946   -1.5484   -0.3647 H   0  0  0  0  0  0  0  0  0  0  0  0
  1  2  1  0
  1 28  1  0
  1 29  1  0
  1 30  1  0
  2 12  1  0
  2  3  1  0
  2 31  1  1
  3 27  1  0
  3  4  1  0
  3 32  1  1
  4  5  1  0
  4 33  1  0
  4 34  1  0
  5 10  1  0
  5  6  1  0
  5 35  1  6
  6  7  1  0
  6 36  1  0
  6 37  1  0
  7  8  1  0
  7 27  1  0
  7 38  1  6
  8  9  1  0
  8 39  1  0
  8 40  1  0
  9 10  1  0
  9 11  1  0
  9 41  1  6
 10 42  1  0
 10 43  1  0
 11 12  1  0
 11 44  1  0
 11 45  1  0
 12 26  1  6
 12 13  1  0
 13 14  1  0
 15 14  1  1
 15 23  1  0
 15 16  1  0
 15 25  1  0
 16 17  1  0
 16 46  1  0
 16 47  1  0
 17 22  1  0
 17 18  1  0
 17 48  1  1
 18 19  1  0
 18 49  1  0
 18 50  1  0
 19 24  1  0
 19 20  1  0
 19 51  1  6
 20 21  1  0
 20 52  1  0
 20 53  1  0
 21 22  1  0
 21 23  1  0
 21 54  1  1
 22 55  1  0
 22 56  1  0
 23 24  1  0
 23 57  1  1
 24 58  1  0
 24 59  1  0
 25 26  1  0
 27 60  1  0
 27 61  1  0
M  END
>  <i_m_ct_stereo_status>  (398) 
1

>  <s_m_source_file>  (398) 
/var/tmp/pbs.5076255.sched01/tmp0i_w_vt9/132llf9lao3.sdf

>  <i_m_source_file_index>  (398) 
30

>  <i_lp_mmshare_version>  (398) 
48012

>  <i_f3d_flags>  (398) 
0

>  <s_epik_input>  (398) 
W0NIMl0xW0NAQEhdKFtDSDJdMilbQ0gyXVtDQEBIXShbQ0gyXTMpW0NIMl1bQ0BIXTFbQ0gyXVtDQEBIXTNbQ0BASF0oW0NIM10pW0NAXTI0T09bQ0BAXTUoT080KVtDQEBIXTZbQ0BIXTdbQ0gyXVtDQEBIXShbQ0gyXTYpW0NIMl1bQ0BASF0oW0NIMl01KVtDSDJdNw==

>  <s_epik_cmdline>  (398) 
J2VwaWtfcHl0aG9uJywgJy1waHQnLCAnMi4wJywgJy1waCcsICc3LjAnLCAnLXRuJywgJzgnLCAnLW1hJywgJzIwMCcsICctaW1hZScsICc8aW5maWxlLm1hZT4nLCAnLW9tYWUnLCAnPG91dGZpbGUubWFlPic=

>  <r_lp_tautomer_probability>  (398) 
1

>  <r_epik_Ionization_Penalty>  (398) 
0

>  <r_epik_Ionization_Penalty_Charging>  (398) 
0

>  <r_epik_Ionization_Penalty_Neutral>  (398) 
0

>  <r_epik_State_Penalty>  (398) 
-0

>  <r_epik_Charging_Adjusted_Penalty>  (398) 
0

>  <i_epik_Tot_Q>  (398) 
0

>  <i_epik_Tot_abs_Q>  (398) 
0

>  <s_lp_Force_Field>  (398) 
OPLS3e

>  <r_lp_Energy>  (398) 
116.675

>  <b_lp_Chiralities_Consistent>  (398) 
1

>  <s_lp_Variant>  (398) 
109:0-6

>  <s_i_glide_gridfile>  (398) 
pfpi4k_grid

>  <i_i_glide_lignum>  (398) 
30

>  <i_i_glide_rotatable_bonds>  (398) 
0

>  <r_i_docking_score>  (398) 
-2.83117

>  <r_i_glide_ligand_efficiency>  (398) 
-0.104858

>  <r_i_glide_ligand_efficiency_sa>  (398) 
-0.314574

>  <r_i_glide_ligand_efficiency_ln>  (398) 
-0.659049

>  <r_i_glide_gscore>  (398) 
-2.83117

>  <r_i_glide_lipo>  (398) 
-0.40937

>  <r_i_glide_hbond>  (398) 
-0.0137548

>  <r_i_glide_metal>  (398) 
-0

>  <r_i_glide_rewards>  (398) 
-0.865896

>  <r_i_glide_evdw>  (398) 
-29.2699

>  <r_i_glide_ecoul>  (398) 
-0.437347

>  <r_i_glide_erotb>  (398) 
0

>  <r_i_glide_esite>  (398) 
-0.0130465

>  <r_i_glide_emodel>  (398) 
-34.8564

>  <r_i_glide_energy>  (398) 
-29.7073

>  <r_i_glide_einternal>  (398) 
0

>  <r_i_glide_intrahb_reward>  (398) 
-0

>  <i_i_glide_confnum>  (398) 
3

>  <i_i_glide_posenum>  (398) 
27

>  <r_i_glide_eff_state_penalty>  (398) 
0

>  <ligand_id>  (398) 
109

>  <original_smiles>  (398) 
CC1C2CC3CC(CC(C3)CC13OOC1(CC4CC5CC(C4)C1C5)OO3)C2

>  <smiles>  (398) 
[H]C([H])([H])C1([H])C2(OOC3(OO2)C([H])([H])C2([H])C([H])([H])C4([H])C([H])([H])C([H])(C2([H])[H])C3([H])C4([H])[H])C([H])([H])C2([H])C([H])([H])C3([H])C([H])([H])C([H])(C2([H])[H])C([H])([H])C1([H])C3([H])[H]

$$$$
109:5:2
     RDKit          3D

 61 67  0  0  1  0  0  0  0  0999 V2000
    1.5473   -5.0113    3.7977 C   0  0  0  0  0  0  0  0  0  0  0  0
    1.5428   -6.4965    3.3495 C   0  0  2  0  0  0  0  0  0  0  0  0
    1.5995   -7.3856    4.6265 C   0  0  2  0  0  0  0  0  0  0  0  0
    0.4912   -8.3944    5.0221 C   0  0  0  0  0  0  0  0  0  0  0  0
    0.9855   -9.8723    4.8229 C   0  0  2  0  0  0  0  0  0  0  0  0
    2.2562  -10.1045    5.6624 C   0  0  0  0  0  0  0  0  0  0  0  0
    3.3712   -9.1543    5.1794 C   0  0  1  0  0  0  0  0  0  0  0  0
    3.7822   -9.5745    3.7366 C   0  0  0  0  0  0  0  0  0  0  0  0
    2.6208   -9.7212    2.6884 C   0  0  1  0  0  0  0  0  0  0  0  0
    1.2790  -10.2698    3.3367 C   0  0  0  0  0  0  0  0  0  0  0  0
    2.4385   -8.4843    1.7034 C   0  0  0  0  0  0  0  0  0  0  0  0
    2.5258   -6.9551    2.1256 C   0  0  1  0  0  0  0  0  0  0  0  0
    2.1416   -6.3194    0.9049 O   0  0  0  0  0  0  0  0  0  0  0  0
    2.4070   -4.8372    1.0310 O   0  0  0  0  0  0  0  0  0  0  0  0
    3.8077   -4.6195    1.2663 C   0  0  1  0  0  0  0  0  0  0  0  0
    4.6798   -5.0998    0.0653 C   0  0  0  0  0  0  0  0  0  0  0  0
    4.8655   -3.9935   -1.0061 C   0  0  2  0  0  0  0  0  0  0  0  0
    6.1222   -3.1166   -0.7453 C   0  0  0  0  0  0  0  0  0  0  0  0
    5.9231   -2.0604    0.3856 C   0  0  1  0  0  0  0  0  0  0  0  0
    4.6927   -1.1956    0.0875 C   0  0  0  0  0  0  0  0  0  0  0  0
    3.5870   -2.2382    0.2346 C   0  0  1  0  0  0  0  0  0  0  0  0
    3.6058   -3.0928   -1.0532 C   0  0  0  0  0  0  0  0  0  0  0  0
    4.0120   -3.0873    1.4752 C   0  0  2  0  0  0  0  0  0  0  0  0
    5.5036   -2.7133    1.6997 C   0  0  0  0  0  0  0  0  0  0  0  0
    4.2039   -5.2567    2.4817 O   0  0  0  0  0  0  0  0  0  0  0  0
    3.9204   -6.7359    2.3715 O   0  0  0  0  0  0  0  0  0  0  0  0
    2.9283   -7.6617    5.3477 C   0  0  0  0  0  0  0  0  0  0  0  0
    2.5110   -4.7490    4.2061 H   0  0  0  0  0  0  0  0  0  0  0  0
    0.8302   -4.8449    4.6077 H   0  0  0  0  0  0  0  0  0  0  0  0
    1.3031   -4.3393    2.9839 H   0  0  0  0  0  0  0  0  0  0  0  0
    0.5392   -6.6552    2.9359 H   0  0  0  0  0  0  0  0  0  0  0  0
    1.8073   -8.0291    3.8878 H   0  0  0  0  0  0  0  0  0  0  0  0
    0.2489   -8.2461    6.0708 H   0  0  0  0  0  0  0  0  0  0  0  0
   -0.4400   -8.2317    4.4784 H   0  0  0  0  0  0  0  0  0  0  0  0
    0.1895  -10.5258    5.1947 H   0  0  0  0  0  0  0  0  0  0  0  0
    2.0434   -9.9379    6.7187 H   0  0  0  0  0  0  0  0  0  0  0  0
    2.5771  -11.1399    5.5647 H   0  0  0  0  0  0  0  0  0  0  0  0
    4.2499   -9.2856    5.8155 H   0  0  0  0  0  0  0  0  0  0  0  0
    4.5337   -8.8834    3.3699 H   0  0  0  0  0  0  0  0  0  0  0  0
    4.2914  -10.5373    3.7963 H   0  0  0  0  0  0  0  0  0  0  0  0
    2.9356  -10.5177    2.0088 H   0  0  0  0  0  0  0  0  0  0  0  0
    1.2802  -11.3584    3.2581 H   0  0  0  0  0  0  0  0  0  0  0  0
    0.4307   -9.9487    2.7404 H   0  0  0  0  0  0  0  0  0  0  0  0
    3.2059   -8.6055    0.9402 H   0  0  0  0  0  0  0  0  0  0  0  0
    1.4957   -8.6183    1.1748 H   0  0  0  0  0  0  0  0  0  0  0  0
    5.6537   -5.4482    0.4260 H   0  0  0  0  0  0  0  0  0  0  0  0
    4.2404   -5.9849   -0.3996 H   0  0  0  0  0  0  0  0  0  0  0  0
    4.9845   -4.4939   -1.9645 H   0  0  0  0  0  0  0  0  0  0  0  0
    6.9855   -3.7395   -0.5161 H   0  0  0  0  0  0  0  0  0  0  0  0
    6.3678   -2.5890   -1.6675 H   0  0  0  0  0  0  0  0  0  0  0  0
    6.8196   -1.4463    0.5064 H   0  0  0  0  0  0  0  0  0  0  0  0
    4.5948   -0.3897    0.8131 H   0  0  0  0  0  0  0  0  0  0  0  0
    4.7265   -0.7383   -0.9033 H   0  0  0  0  0  0  0  0  0  0  0  0
    2.6112   -1.7650    0.3839 H   0  0  0  0  0  0  0  0  0  0  0  0
    3.6093   -2.4546   -1.9312 H   0  0  0  0  0  0  0  0  0  0  0  0
    2.6961   -3.6937   -1.1440 H   0  0  0  0  0  0  0  0  0  0  0  0
    3.4384   -2.7833    2.3569 H   0  0  0  0  0  0  0  0  0  0  0  0
    6.1395   -3.5465    1.9818 H   0  0  0  0  0  0  0  0  0  0  0  0
    5.5744   -1.9753    2.5009 H   0  0  0  0  0  0  0  0  0  0  0  0
    3.7164   -6.9849    5.0085 H   0  0  0  0  0  0  0  0  0  0  0  0
    2.7847   -7.4514    6.4047 H   0  0  0  0  0  0  0  0  0  0  0  0
  1  2  1  0
  1 28  1  0
  1 29  1  0
  1 30  1  0
  2 12  1  0
  2  3  1  0
  2 31  1  6
  3 27  1  0
  3  4  1  0
  3 32  1  1
  4  5  1  0
  4 33  1  0
  4 34  1  0
  5 10  1  0
  5  6  1  0
  5 35  1  1
  6  7  1  0
  6 36  1  0
  6 37  1  0
  7  8  1  0
  7 27  1  0
  7 38  1  1
  8  9  1  0
  8 39  1  0
  8 40  1  0
  9 10  1  0
  9 11  1  0
  9 41  1  6
 10 42  1  0
 10 43  1  0
 11 12  1  0
 11 44  1  0
 11 45  1  0
 12 26  1  1
 12 13  1  0
 13 14  1  0
 15 14  1  6
 15 23  1  0
 15 16  1  0
 15 25  1  0
 16 17  1  0
 16 46  1  0
 16 47  1  0
 17 22  1  0
 17 18  1  0
 17 48  1  6
 18 19  1  0
 18 49  1  0
 18 50  1  0
 19 24  1  0
 19 20  1  0
 19 51  1  1
 20 21  1  0
 20 52  1  0
 20 53  1  0
 21 22  1  0
 21 23  1  0
 21 54  1  1
 22 55  1  0
 22 56  1  0
 23 24  1  0
 23 57  1  1
 24 58  1  0
 24 59  1  0
 25 26  1  0
 27 60  1  0
 27 61  1  0
M  END
>  <i_m_ct_stereo_status>  (399) 
1

>  <s_m_source_file>  (399) 
/var/tmp/pbs.5076255.sched01/tmp0i_w_vt9/132llf9lao3.sdf

>  <i_m_source_file_index>  (399) 
30

>  <i_lp_mmshare_version>  (399) 
48012

>  <i_f3d_flags>  (399) 
0

>  <s_epik_input>  (399) 
W0NIMl0xW0NAQEhdKFtDSDJdMilbQ0gyXVtDQEBIXShbQ0gyXTMpW0NIMl1bQ0BIXTFbQ0gyXVtDQEBIXTNbQ0BASF0oW0NIM10pW0NAXTI0T09bQ0BAXTUoT080KVtDQEBIXTZbQ0BIXTdbQ0gyXVtDQEBIXShbQ0gyXTYpW0NIMl1bQ0BASF0oW0NIMl01KVtDSDJdNw==

>  <s_epik_cmdline>  (399) 
J2VwaWtfcHl0aG9uJywgJy1waHQnLCAnMi4wJywgJy1waCcsICc3LjAnLCAnLXRuJywgJzgnLCAnLW1hJywgJzIwMCcsICctaW1hZScsICc8aW5maWxlLm1hZT4nLCAnLW9tYWUnLCAnPG91dGZpbGUubWFlPic=

>  <r_lp_tautomer_probability>  (399) 
1

>  <r_epik_Ionization_Penalty>  (399) 
0

>  <r_epik_Ionization_Penalty_Charging>  (399) 
0

>  <r_epik_Ionization_Penalty_Neutral>  (399) 
0

>  <r_epik_State_Penalty>  (399) 
-0

>  <r_epik_Charging_Adjusted_Penalty>  (399) 
0

>  <i_epik_Tot_Q>  (399) 
0

>  <i_epik_Tot_abs_Q>  (399) 
0

>  <s_lp_Force_Field>  (399) 
OPLS3e

>  <r_lp_Energy>  (399) 
116.675

>  <b_lp_Chiralities_Consistent>  (399) 
1

>  <s_lp_Variant>  (399) 
109:0-6

>  <s_i_glide_gridfile>  (399) 
pfpi4k_grid

>  <i_i_glide_lignum>  (399) 
30

>  <i_i_glide_rotatable_bonds>  (399) 
0

>  <r_i_docking_score>  (399) 
-2.82816

>  <r_i_glide_ligand_efficiency>  (399) 
-0.104747

>  <r_i_glide_ligand_efficiency_sa>  (399) 
-0.31424

>  <r_i_glide_ligand_efficiency_ln>  (399) 
-0.658349

>  <r_i_glide_gscore>  (399) 
-2.82816

>  <r_i_glide_lipo>  (399) 
-0.308319

>  <r_i_glide_hbond>  (399) 
0

>  <r_i_glide_metal>  (399) 
-0

>  <r_i_glide_rewards>  (399) 
-0.872996

>  <r_i_glide_evdw>  (399) 
-28.646

>  <r_i_glide_ecoul>  (399) 
-1.39014

>  <r_i_glide_erotb>  (399) 
0

>  <r_i_glide_esite>  (399) 
-0.006024

>  <r_i_glide_emodel>  (399) 
-35.2094

>  <r_i_glide_energy>  (399) 
-30.0362

>  <r_i_glide_einternal>  (399) 
0

>  <r_i_glide_intrahb_reward>  (399) 
-0

>  <i_i_glide_confnum>  (399) 
2

>  <i_i_glide_posenum>  (399) 
1

>  <r_i_glide_eff_state_penalty>  (399) 
0

>  <ligand_id>  (399) 
109

>  <original_smiles>  (399) 
CC1C2CC3CC(CC(C3)CC13OOC1(CC4CC5CC(C4)C1C5)OO3)C2

>  <smiles>  (399) 
[H]C([H])([H])C1([H])C2(OOC3(OO2)C([H])([H])C2([H])C([H])([H])C4([H])C([H])([H])C([H])(C2([H])[H])C3([H])C4([H])[H])C([H])([H])C2([H])C([H])([H])C3([H])C([H])([H])C([H])(C2([H])[H])C([H])([H])C1([H])C3([H])[H]

$$$$
109:6:0
     RDKit          3D

 61 67  0  0  1  0  0  0  0  0999 V2000
    3.9139   -6.5875    5.2667 C   0  0  0  0  0  0  0  0  0  0  0  0
    2.7363   -6.1241    4.3753 C   0  0  2  0  0  0  0  0  0  0  0  0
    1.3600   -6.7192    4.9445 C   0  0  1  0  0  0  0  0  0  0  0  0
    0.0832   -6.2618    4.1607 C   0  0  0  0  0  0  0  0  0  0  0  0
   -0.5494   -7.2998    3.1852 C   0  0  2  0  0  0  0  0  0  0  0  0
   -0.7551   -8.6304    3.9329 C   0  0  0  0  0  0  0  0  0  0  0  0
    0.6133   -9.2301    4.2966 C   0  0  1  0  0  0  0  0  0  0  0  0
    1.4221   -9.5258    2.9769 C   0  0  0  0  0  0  0  0  0  0  0  0
    1.6002   -8.2332    2.1379 C   0  0  2  0  0  0  0  0  0  0  0  0
    0.2514   -7.5423    1.8651 C   0  0  0  0  0  0  0  0  0  0  0  0
    2.9495   -7.4717    1.9970 C   0  0  0  0  0  0  0  0  0  0  0  0
    3.1113   -6.1063    2.8090 C   0  0  1  0  0  0  0  0  0  0  0  0
    2.3192   -5.0625    2.2198 O   0  0  0  0  0  0  0  0  0  0  0  0
    2.8092   -4.7589    0.8073 O   0  0  0  0  0  0  0  0  0  0  0  0
    4.1876   -4.3743    0.8518 C   0  0  1  0  0  0  0  0  0  0  0  0
    4.7279   -4.1749   -0.5940 C   0  0  0  0  0  0  0  0  0  0  0  0
    4.6642   -2.7177   -1.1044 C   0  0  2  0  0  0  0  0  0  0  0  0
    5.9249   -1.8783   -0.7576 C   0  0  0  0  0  0  0  0  0  0  0  0
    5.9802   -1.4402    0.7348 C   0  0  1  0  0  0  0  0  0  0  0  0
    4.7034   -0.6849    1.1005 C   0  0  0  0  0  0  0  0  0  0  0  0
    3.6759   -1.8209    1.0052 C   0  0  1  0  0  0  0  0  0  0  0  0
    3.4204   -2.0429   -0.5060 C   0  0  0  0  0  0  0  0  0  0  0  0
    4.3883   -3.0514    1.6520 C   0  0  2  0  0  0  0  0  0  0  0  0
    5.8805   -2.6374    1.6820 C   0  0  0  0  0  0  0  0  0  0  0  0
    4.9376   -5.4509    1.3980 O   0  0  0  0  0  0  0  0  0  0  0  0
    4.4864   -5.7049    2.8034 O   0  0  0  0  0  0  0  0  0  0  0  0
    1.3345   -8.2665    5.2984 C   0  0  0  0  0  0  0  0  0  0  0  0
    4.2847   -7.5685    4.9702 H   0  0  0  0  0  0  0  0  0  0  0  0
    3.6175   -6.6437    6.3149 H   0  0  0  0  0  0  0  0  0  0  0  0
    4.7495   -5.8899    5.2244 H   0  0  0  0  0  0  0  0  0  0  0  0
    2.6473   -5.0609    4.6099 H   0  0  0  0  0  0  0  0  0  0  0  0
    1.2788   -6.2273    5.9158 H   0  0  0  0  0  0  0  0  0  0  0  0
   -0.6785   -6.0026    4.8974 H   0  0  0  0  0  0  0  0  0  0  0  0
    0.2833   -5.3395    3.6229 H   0  0  0  0  0  0  0  0  0  0  0  0
   -1.5336   -6.9282    2.8905 H   0  0  0  0  0  0  0  0  0  0  0  0
   -1.3397   -8.4676    4.8391 H   0  0  0  0  0  0  0  0  0  0  0  0
   -1.3213   -9.3355    3.3204 H   0  0  0  0  0  0  0  0  0  0  0  0
    0.4553  -10.1875    4.8041 H   0  0  0  0  0  0  0  0  0  0  0  0
    2.3747  -10.0006    3.2149 H   0  0  0  0  0  0  0  0  0  0  0  0
    0.8682  -10.2612    2.3897 H   0  0  0  0  0  0  0  0  0  0  0  0
    1.7327   -7.7822    3.0283 H   0  0  0  0  0  0  0  0  0  0  0  0
   -0.3510   -8.2118    1.2524 H   0  0  0  0  0  0  0  0  0  0  0  0
    0.3799   -6.6277    1.2888 H   0  0  0  0  0  0  0  0  0  0  0  0
    3.7340   -8.1420    2.3406 H   0  0  0  0  0  0  0  0  0  0  0  0
    3.1525   -7.3234    0.9391 H   0  0  0  0  0  0  0  0  0  0  0  0
    5.7614   -4.5144   -0.6615 H   0  0  0  0  0  0  0  0  0  0  0  0
    4.1824   -4.8175   -1.2747 H   0  0  0  0  0  0  0  0  0  0  0  0
    4.5685   -2.7374   -2.1884 H   0  0  0  0  0  0  0  0  0  0  0  0
    6.8323   -2.4232   -1.0236 H   0  0  0  0  0  0  0  0  0  0  0  0
    5.9187   -0.9786   -1.3783 H   0  0  0  0  0  0  0  0  0  0  0  0
    6.8722   -0.8357    0.9228 H   0  0  0  0  0  0  0  0  0  0  0  0
    4.7649   -0.2885    2.1144 H   0  0  0  0  0  0  0  0  0  0  0  0
    4.5007    0.1568    0.4311 H   0  0  0  0  0  0  0  0  0  0  0  0
    2.7442   -1.5555    1.5075 H   0  0  0  0  0  0  0  0  0  0  0  0
    3.2026   -1.0974   -1.0057 H   0  0  0  0  0  0  0  0  0  0  0  0
    2.5410   -2.6620   -0.6660 H   0  0  0  0  0  0  0  0  0  0  0  0
    4.0487   -3.1620    2.6806 H   0  0  0  0  0  0  0  0  0  0  0  0
    6.5786   -3.4295    1.4105 H   0  0  0  0  0  0  0  0  0  0  0  0
    6.1529   -2.3094    2.6851 H   0  0  0  0  0  0  0  0  0  0  0  0
    2.3388   -8.6541    5.4384 H   0  0  0  0  0  0  0  0  0  0  0  0
    0.8619   -8.3825    6.2747 H   0  0  0  0  0  0  0  0  0  0  0  0
  1  2  1  0
  1 28  1  0
  1 29  1  0
  1 30  1  0
  2 12  1  0
  2  3  1  0
  2 31  1  1
  3 27  1  0
  3  4  1  0
  3 32  1  1
  4  5  1  0
  4 33  1  0
  4 34  1  0
  5 10  1  0
  5  6  1  0
  5 35  1  6
  6  7  1  0
  6 36  1  0
  6 37  1  0
  7  8  1  0
  7 27  1  0
  7 38  1  1
  8  9  1  0
  8 39  1  0
  8 40  1  0
  9 10  1  0
  9 11  1  0
  9 41  1  6
 10 42  1  0
 10 43  1  0
 11 12  1  0
 11 44  1  0
 11 45  1  0
 12 26  1  1
 12 13  1  0
 13 14  1  0
 15 14  1  6
 15 23  1  0
 15 16  1  0
 15 25  1  0
 16 17  1  0
 16 46  1  0
 16 47  1  0
 17 22  1  0
 17 18  1  0
 17 48  1  6
 18 19  1  0
 18 49  1  0
 18 50  1  0
 19 24  1  0
 19 20  1  0
 19 51  1  6
 20 21  1  0
 20 52  1  0
 20 53  1  0
 21 22  1  0
 21 23  1  0
 21 54  1  1
 22 55  1  0
 22 56  1  0
 23 24  1  0
 23 57  1  1
 24 58  1  0
 24 59  1  0
 25 26  1  0
 27 60  1  0
 27 61  1  0
M  END
>  <i_m_ct_stereo_status>  (400) 
1

>  <s_m_source_file>  (400) 
/var/tmp/pbs.5076255.sched01/tmp0i_w_vt9/132llf9lao3.sdf

>  <i_m_source_file_index>  (400) 
31

>  <i_lp_mmshare_version>  (400) 
48012

>  <i_f3d_flags>  (400) 
0

>  <s_epik_input>  (400) 
W0NIMl0xW0NAQEhdKFtDSDJdMilbQ0gyXVtDQEBIXShbQ0gyXTMpW0NIMl1bQ0BIXTFbQ0gyXVtDQEBIXTNbQ0BASF0oW0NIM10pW0NAXTI0T09bQ0BAXTUoT080KVtDQEBIXTZbQ0BIXTdbQ0gyXVtDQEBIXShbQ0gyXTYpW0NIMl1bQ0BASF0oW0NIMl01KVtDSDJdNw==

>  <s_epik_cmdline>  (400) 
J2VwaWtfcHl0aG9uJywgJy1waHQnLCAnMi4wJywgJy1waCcsICc3LjAnLCAnLXRuJywgJzgnLCAnLW1hJywgJzIwMCcsICctaW1hZScsICc8aW5maWxlLm1hZT4nLCAnLW9tYWUnLCAnPG91dGZpbGUubWFlPic=

>  <r_lp_tautomer_probability>  (400) 
1

>  <r_epik_Ionization_Penalty>  (400) 
0

>  <r_epik_Ionization_Penalty_Charging>  (400) 
0

>  <r_epik_Ionization_Penalty_Neutral>  (400) 
0

>  <r_epik_State_Penalty>  (400) 
-0

>  <r_epik_Charging_Adjusted_Penalty>  (400) 
0

>  <i_epik_Tot_Q>  (400) 
0

>  <i_epik_Tot_abs_Q>  (400) 
0

>  <s_lp_Force_Field>  (400) 
OPLS3e

>  <r_lp_Energy>  (400) 
121.439

>  <b_lp_Chiralities_Consistent>  (400) 
1

>  <s_lp_Variant>  (400) 
109:0-7

>  <s_i_glide_gridfile>  (400) 
pfpi4k_grid

>  <i_i_glide_lignum>  (400) 
31

>  <i_i_glide_rotatable_bonds>  (400) 
0

>  <r_i_docking_score>  (400) 
-2.76764

>  <r_i_glide_ligand_efficiency>  (400) 
-0.102505

>  <r_i_glide_ligand_efficiency_sa>  (400) 
-0.307515

>  <r_i_glide_ligand_efficiency_ln>  (400) 
-0.64426

>  <r_i_glide_gscore>  (400) 
-2.76764

>  <r_i_glide_lipo>  (400) 
-0.389299

>  <r_i_glide_hbond>  (400) 
0

>  <r_i_glide_metal>  (400) 
-0

>  <r_i_glide_rewards>  (400) 
-0.889713

>  <r_i_glide_evdw>  (400) 
-28.4986

>  <r_i_glide_ecoul>  (400) 
-0.424447

>  <r_i_glide_erotb>  (400) 
0

>  <r_i_glide_esite>  (400) 
-2.47688e-05

>  <r_i_glide_emodel>  (400) 
-33.8201

>  <r_i_glide_energy>  (400) 
-28.9231

>  <r_i_glide_einternal>  (400) 
0

>  <r_i_glide_intrahb_reward>  (400) 
-0

>  <i_i_glide_confnum>  (400) 
2

>  <i_i_glide_posenum>  (400) 
2

>  <r_i_glide_eff_state_penalty>  (400) 
0

>  <ligand_id>  (400) 
109

>  <original_smiles>  (400) 
CC1C2CC3CC(CC(C3)CC13OOC1(CC4CC5CC(C4)C1C5)OO3)C2

>  <smiles>  (400) 
[H]C([H])([H])C1([H])C2(OOC3(OO2)C([H])([H])C2([H])C([H])([H])C4([H])C([H])([H])C([H])(C2([H])[H])C3([H])C4([H])[H])C([H])([H])C2([H])C([H])([H])C3([H])C([H])([H])C([H])(C2([H])[H])C([H])([H])C1([H])C3([H])[H]

$$$$
109:6:1
     RDKit          3D

 61 67  0  0  1  0  0  0  0  0999 V2000
   -0.2671   -7.4422    1.8404 C   0  0  0  0  0  0  0  0  0  0  0  0
    1.2199   -7.8328    2.0286 C   0  0  2  0  0  0  0  0  0  0  0  0
    1.3257   -9.3513    2.5293 C   0  0  1  0  0  0  0  0  0  0  0  0
    2.7915   -9.8818    2.6952 C   0  0  0  0  0  0  0  0  0  0  0  0
    3.3405   -9.9793    4.1518 C   0  0  2  0  0  0  0  0  0  0  0  0
    2.3215  -10.7536    5.0108 C   0  0  0  0  0  0  0  0  0  0  0  0
    1.0316   -9.9263    5.1458 C   0  0  1  0  0  0  0  0  0  0  0  0
    1.3531   -8.5606    5.8613 C   0  0  0  0  0  0  0  0  0  0  0  0
    2.4294   -7.7674    5.0749 C   0  0  2  0  0  0  0  0  0  0  0  0
    3.6939   -8.6114    4.8298 C   0  0  0  0  0  0  0  0  0  0  0  0
    2.1273   -6.4929    4.2352 C   0  0  0  0  0  0  0  0  0  0  0  0
    2.1030   -6.6433    2.6535 C   0  0  1  0  0  0  0  0  0  0  0  0
    3.4195   -6.8029    2.1147 O   0  0  0  0  0  0  0  0  0  0  0  0
    4.2549   -5.5713    2.4096 O   0  0  0  0  0  0  0  0  0  0  0  0
    3.6481   -4.4167    1.8167 C   0  0  1  0  0  0  0  0  0  0  0  0
    4.4522   -3.1524    2.2115 C   0  0  0  0  0  0  0  0  0  0  0  0
    5.5052   -2.7141    1.1603 C   0  0  2  0  0  0  0  0  0  0  0  0
    4.9382   -1.7632    0.0556 C   0  0  0  0  0  0  0  0  0  0  0  0
    4.0796   -2.5073   -1.0064 C   0  0  1  0  0  0  0  0  0  0  0  0
    4.8869   -3.6527   -1.6167 C   0  0  0  0  0  0  0  0  0  0  0  0
    5.0044   -4.5852   -0.4003 C   0  0  1  0  0  0  0  0  0  0  0  0
    6.0986   -3.9741    0.5066 C   0  0  0  0  0  0  0  0  0  0  0  0
    3.5910   -4.5333    0.2692 C   0  0  2  0  0  0  0  0  0  0  0  0
    2.9293   -3.2865   -0.3613 C   0  0  0  0  0  0  0  0  0  0  0  0
    2.3588   -4.2672    2.3967 O   0  0  0  0  0  0  0  0  0  0  0  0
    1.5283   -5.4656    2.0684 O   0  0  0  0  0  0  0  0  0  0  0  0
    0.3802   -9.7786    3.7306 C   0  0  0  0  0  0  0  0  0  0  0  0
   -0.7174   -7.1045    2.7743 H   0  0  0  0  0  0  0  0  0  0  0  0
   -0.8531   -8.2841    1.4719 H   0  0  0  0  0  0  0  0  0  0  0  0
   -0.3833   -6.6542    1.0994 H   0  0  0  0  0  0  0  0  0  0  0  0
    1.5889   -7.9030    1.0046 H   0  0  0  0  0  0  0  0  0  0  0  0
    0.9373   -9.9042    1.6825 H   0  0  0  0  0  0  0  0  0  0  0  0
    2.8286  -10.8879    2.2646 H   0  0  0  0  0  0  0  0  0  0  0  0
    3.4774   -9.2980    2.0917 H   0  0  0  0  0  0  0  0  0  0  0  0
    4.2643  -10.5564    4.1078 H   0  0  0  0  0  0  0  0  0  0  0  0
    2.0991  -11.7205    4.5561 H   0  0  0  0  0  0  0  0  0  0  0  0
    2.7345  -10.9657    5.9991 H   0  0  0  0  0  0  0  0  0  0  0  0
    0.3316  -10.4698    5.7809 H   0  0  0  0  0  0  0  0  0  0  0  0
    0.4379   -7.9869    6.0099 H   0  0  0  0  0  0  0  0  0  0  0  0
    1.7284   -8.7835    6.8638 H   0  0  0  0  0  0  0  0  0  0  0  0
    1.9569   -8.1102    4.2544 H   0  0  0  0  0  0  0  0  0  0  0  0
    4.1595   -8.8195    5.7957 H   0  0  0  0  0  0  0  0  0  0  0  0
    4.4342   -8.0655    4.2464 H   0  0  0  0  0  0  0  0  0  0  0  0
    1.1446   -6.1362    4.5408 H   0  0  0  0  0  0  0  0  0  0  0  0
    2.8183   -5.7061    4.5462 H   0  0  0  0  0  0  0  0  0  0  0  0
    3.7740   -2.3128    2.3698 H   0  0  0  0  0  0  0  0  0  0  0  0
    4.9421   -3.3094    3.1740 H   0  0  0  0  0  0  0  0  0  0  0  0
    6.2972   -2.1690    1.6766 H   0  0  0  0  0  0  0  0  0  0  0  0
    4.3611   -0.9499    0.4996 H   0  0  0  0  0  0  0  0  0  0  0  0
    5.7688   -1.2734   -0.4626 H   0  0  0  0  0  0  0  0  0  0  0  0
    3.7245   -1.8081   -1.7693 H   0  0  0  0  0  0  0  0  0  0  0  0
    4.3330   -4.1265   -2.4264 H   0  0  0  0  0  0  0  0  0  0  0  0
    5.8491   -3.3277   -2.0262 H   0  0  0  0  0  0  0  0  0  0  0  0
    5.2834   -5.5929   -0.7086 H   0  0  0  0  0  0  0  0  0  0  0  0
    6.9942   -3.7341   -0.0668 H   0  0  0  0  0  0  0  0  0  0  0  0
    6.4170   -4.6839    1.2738 H   0  0  0  0  0  0  0  0  0  0  0  0
    3.0227   -5.4114   -0.0417 H   0  0  0  0  0  0  0  0  0  0  0  0
    2.3671   -2.6655    0.3351 H   0  0  0  0  0  0  0  0  0  0  0  0
    2.2317   -3.5872   -1.1456 H   0  0  0  0  0  0  0  0  0  0  0  0
   -0.4560   -9.0984    3.8406 H   0  0  0  0  0  0  0  0  0  0  0  0
   -0.0861  -10.7361    3.4744 H   0  0  0  0  0  0  0  0  0  0  0  0
  1  2  1  0
  1 28  1  0
  1 29  1  0
  1 30  1  0
  2 12  1  0
  2  3  1  0
  2 31  1  6
  3 27  1  0
  3  4  1  0
  3 32  1  6
  4  5  1  0
  4 33  1  0
  4 34  1  0
  5 10  1  0
  5  6  1  0
  5 35  1  6
  6  7  1  0
  6 36  1  0
  6 37  1  0
  7  8  1  0
  7 27  1  0
  7 38  1  1
  8  9  1  0
  8 39  1  0
  8 40  1  0
  9 10  1  0
  9 11  1  0
  9 41  1  1
 10 42  1  0
 10 43  1  0
 11 12  1  0
 11 44  1  0
 11 45  1  0
 12 26  1  6
 12 13  1  0
 13 14  1  0
 15 14  1  1
 15 23  1  0
 15 16  1  0
 15 25  1  0
 16 17  1  0
 16 46  1  0
 16 47  1  0
 17 22  1  0
 17 18  1  0
 17 48  1  1
 18 19  1  0
 18 49  1  0
 18 50  1  0
 19 24  1  0
 19 20  1  0
 19 51  1  6
 20 21  1  0
 20 52  1  0
 20 53  1  0
 21 22  1  0
 21 23  1  0
 21 54  1  6
 22 55  1  0
 22 56  1  0
 23 24  1  0
 23 57  1  1
 24 58  1  0
 24 59  1  0
 25 26  1  0
 27 60  1  0
 27 61  1  0
M  END
>  <i_m_ct_stereo_status>  (401) 
1

>  <s_m_source_file>  (401) 
/var/tmp/pbs.5076255.sched01/tmp0i_w_vt9/132llf9lao3.sdf

>  <i_m_source_file_index>  (401) 
31

>  <i_lp_mmshare_version>  (401) 
48012

>  <i_f3d_flags>  (401) 
0

>  <s_epik_input>  (401) 
W0NIMl0xW0NAQEhdKFtDSDJdMilbQ0gyXVtDQEBIXShbQ0gyXTMpW0NIMl1bQ0BIXTFbQ0gyXVtDQEBIXTNbQ0BASF0oW0NIM10pW0NAXTI0T09bQ0BAXTUoT080KVtDQEBIXTZbQ0BIXTdbQ0gyXVtDQEBIXShbQ0gyXTYpW0NIMl1bQ0BASF0oW0NIMl01KVtDSDJdNw==

>  <s_epik_cmdline>  (401) 
J2VwaWtfcHl0aG9uJywgJy1waHQnLCAnMi4wJywgJy1waCcsICc3LjAnLCAnLXRuJywgJzgnLCAnLW1hJywgJzIwMCcsICctaW1hZScsICc8aW5maWxlLm1hZT4nLCAnLW9tYWUnLCAnPG91dGZpbGUubWFlPic=

>  <r_lp_tautomer_probability>  (401) 
1

>  <r_epik_Ionization_Penalty>  (401) 
0

>  <r_epik_Ionization_Penalty_Charging>  (401) 
0

>  <r_epik_Ionization_Penalty_Neutral>  (401) 
0

>  <r_epik_State_Penalty>  (401) 
-0

>  <r_epik_Charging_Adjusted_Penalty>  (401) 
0

>  <i_epik_Tot_Q>  (401) 
0

>  <i_epik_Tot_abs_Q>  (401) 
0

>  <s_lp_Force_Field>  (401) 
OPLS3e

>  <r_lp_Energy>  (401) 
121.439

>  <b_lp_Chiralities_Consistent>  (401) 
1

>  <s_lp_Variant>  (401) 
109:0-7

>  <s_i_glide_gridfile>  (401) 
pfpi4k_grid

>  <i_i_glide_lignum>  (401) 
31

>  <i_i_glide_rotatable_bonds>  (401) 
0

>  <r_i_docking_score>  (401) 
-2.72442

>  <r_i_glide_ligand_efficiency>  (401) 
-0.100904

>  <r_i_glide_ligand_efficiency_sa>  (401) 
-0.302713

>  <r_i_glide_ligand_efficiency_ln>  (401) 
-0.6342

>  <r_i_glide_gscore>  (401) 
-2.72442

>  <r_i_glide_lipo>  (401) 
-0.26135

>  <r_i_glide_hbond>  (401) 
-0.0402152

>  <r_i_glide_metal>  (401) 
-0

>  <r_i_glide_rewards>  (401) 
-0.863001

>  <r_i_glide_evdw>  (401) 
-28.8873

>  <r_i_glide_ecoul>  (401) 
-0.708424

>  <r_i_glide_erotb>  (401) 
0

>  <r_i_glide_esite>  (401) 
-0.00922267

>  <r_i_glide_emodel>  (401) 
-34.3864

>  <r_i_glide_energy>  (401) 
-29.5958

>  <r_i_glide_einternal>  (401) 
0

>  <r_i_glide_intrahb_reward>  (401) 
-0

>  <i_i_glide_confnum>  (401) 
3

>  <i_i_glide_posenum>  (401) 
1

>  <r_i_glide_eff_state_penalty>  (401) 
0

>  <ligand_id>  (401) 
109

>  <original_smiles>  (401) 
CC1C2CC3CC(CC(C3)CC13OOC1(CC4CC5CC(C4)C1C5)OO3)C2

>  <smiles>  (401) 
[H]C([H])([H])C1([H])C2(OOC3(OO2)C([H])([H])C2([H])C([H])([H])C4([H])C([H])([H])C([H])(C2([H])[H])C3([H])C4([H])[H])C([H])([H])C2([H])C([H])([H])C3([H])C([H])([H])C([H])(C2([H])[H])C([H])([H])C1([H])C3([H])[H]

$$$$
109:6:2
     RDKit          3D

 61 67  0  0  1  0  0  0  0  0999 V2000
    3.9395   -9.0503    1.2884 C   0  0  0  0  0  0  0  0  0  0  0  0
    3.5959   -8.0650    2.4311 C   0  0  2  0  0  0  0  0  0  0  0  0
    3.1524   -8.8793    3.7388 C   0  0  1  0  0  0  0  0  0  0  0  0
    2.8366   -7.9819    4.9866 C   0  0  0  0  0  0  0  0  0  0  0  0
    1.3315   -7.7586    5.3308 C   0  0  2  0  0  0  0  0  0  0  0  0
    0.6314   -9.1300    5.3923 C   0  0  0  0  0  0  0  0  0  0  0  0
    0.6133   -9.7552    3.9871 C   0  0  1  0  0  0  0  0  0  0  0  0
   -0.1973   -8.8239    3.0117 C   0  0  0  0  0  0  0  0  0  0  0  0
    0.4243   -7.4024    2.9597 C   0  0  2  0  0  0  0  0  0  0  0  0
    0.5570   -6.7933    4.3677 C   0  0  0  0  0  0  0  0  0  0  0  0
    1.2399   -6.8543    1.7537 C   0  0  0  0  0  0  0  0  0  0  0  0
    2.8136   -6.7564    1.9149 C   0  0  1  0  0  0  0  0  0  0  0  0
    3.1920   -5.6915    2.7969 O   0  0  0  0  0  0  0  0  0  0  0  0
    2.7569   -4.3553    2.2228 O   0  0  0  0  0  0  0  0  0  0  0  0
    3.3701   -4.1485    0.9424 C   0  0  1  0  0  0  0  0  0  0  0  0
    2.8354   -2.8448    0.3138 C   0  0  0  0  0  0  0  0  0  0  0  0
    3.7312   -1.6044    0.5542 C   0  0  2  0  0  0  0  0  0  0  0  0
    4.8462   -1.4115   -0.5230 C   0  0  0  0  0  0  0  0  0  0  0  0
    6.0293   -2.4072   -0.3530 C   0  0  1  0  0  0  0  0  0  0  0  0
    6.5935   -2.2971    1.0617 C   0  0  0  0  0  0  0  0  0  0  0  0
    5.4187   -2.8573    1.8777 C   0  0  1  0  0  0  0  0  0  0  0  0
    4.3665   -1.7255    1.9479 C   0  0  0  0  0  0  0  0  0  0  0  0
    4.9157   -4.0782    1.0408 C   0  0  2  0  0  0  0  0  0  0  0  0
    5.5554   -3.8638   -0.3523 C   0  0  0  0  0  0  0  0  0  0  0  0
    2.9229   -5.1993    0.1010 O   0  0  0  0  0  0  0  0  0  0  0  0
    3.4178   -6.4964    0.6399 O   0  0  0  0  0  0  0  0  0  0  0  0
    2.0880  -10.0412    3.5402 C   0  0  0  0  0  0  0  0  0  0  0  0
    3.0519   -9.3604    0.7353 H   0  0  0  0  0  0  0  0  0  0  0  0
    4.4127   -9.9534    1.6790 H   0  0  0  0  0  0  0  0  0  0  0  0
    4.6427   -8.6207    0.5786 H   0  0  0  0  0  0  0  0  0  0  0  0
    4.5710   -7.6672    2.7224 H   0  0  0  0  0  0  0  0  0  0  0  0
    4.0617   -9.4060    3.9984 H   0  0  0  0  0  0  0  0  0  0  0  0
    3.3066   -8.4542    5.8572 H   0  0  0  0  0  0  0  0  0  0  0  0
    3.3266   -7.0197    4.8925 H   0  0  0  0  0  0  0  0  0  0  0  0
    1.2943   -7.3060    6.3205 H   0  0  0  0  0  0  0  0  0  0  0  0
    1.1531   -9.7922    6.0858 H   0  0  0  0  0  0  0  0  0  0  0  0
   -0.3898   -9.0272    5.7668 H   0  0  0  0  0  0  0  0  0  0  0  0
    0.0899  -10.7081    4.0310 H   0  0  0  0  0  0  0  0  0  0  0  0
   -0.2627   -9.2868    2.0289 H   0  0  0  0  0  0  0  0  0  0  0  0
   -1.2267   -8.7615    3.3763 H   0  0  0  0  0  0  0  0  0  0  0  0
    1.3095   -7.8835    3.0072 H   0  0  0  0  0  0  0  0  0  0  0  0
   -0.4450   -6.6376    4.7739 H   0  0  0  0  0  0  0  0  0  0  0  0
    1.0293   -5.8113    4.3379 H   0  0  0  0  0  0  0  0  0  0  0  0
    1.0363   -7.5074    0.9038 H   0  0  0  0  0  0  0  0  0  0  0  0
    0.8214   -5.8871    1.4717 H   0  0  0  0  0  0  0  0  0  0  0  0
    2.7148   -2.9630   -0.7633 H   0  0  0  0  0  0  0  0  0  0  0  0
    1.8329   -2.6402    0.6903 H   0  0  0  0  0  0  0  0  0  0  0  0
    3.0970   -0.7167    0.5185 H   0  0  0  0  0  0  0  0  0  0  0  0
    4.4293   -1.4902   -1.5282 H   0  0  0  0  0  0  0  0  0  0  0  0
    5.2388   -0.3920   -0.4520 H   0  0  0  0  0  0  0  0  0  0  0  0
    6.7999   -2.2263   -1.1073 H   0  0  0  0  0  0  0  0  0  0  0  0
    7.4800   -2.9195    1.1714 H   0  0  0  0  0  0  0  0  0  0  0  0
    6.8733   -1.2728    1.3305 H   0  0  0  0  0  0  0  0  0  0  0  0
    5.7364   -3.1392    2.8818 H   0  0  0  0  0  0  0  0  0  0  0  0
    4.8187   -0.7829    2.2577 H   0  0  0  0  0  0  0  0  0  0  0  0
    3.5993   -1.9477    2.6933 H   0  0  0  0  0  0  0  0  0  0  0  0
    5.3285   -4.9959    1.4630 H   0  0  0  0  0  0  0  0  0  0  0  0
    4.9016   -4.0789   -1.1967 H   0  0  0  0  0  0  0  0  0  0  0  0
    6.4268   -4.5095   -0.4548 H   0  0  0  0  0  0  0  0  0  0  0  0
    2.0466  -10.3648    2.5081 H   0  0  0  0  0  0  0  0  0  0  0  0
    2.4406  -10.9227    4.0886 H   0  0  0  0  0  0  0  0  0  0  0  0
  1  2  1  0
  1 28  1  0
  1 29  1  0
  1 30  1  0
  2 12  1  0
  2  3  1  0
  2 31  1  1
  3 27  1  0
  3  4  1  0
  3 32  1  1
  4  5  1  0
  4 33  1  0
  4 34  1  0
  5 10  1  0
  5  6  1  0
  5 35  1  1
  6  7  1  0
  6 36  1  0
  6 37  1  0
  7  8  1  0
  7 27  1  0
  7 38  1  1
  8  9  1  0
  8 39  1  0
  8 40  1  0
  9 10  1  0
  9 11  1  0
  9 41  1  6
 10 42  1  0
 10 43  1  0
 11 12  1  0
 11 44  1  0
 11 45  1  0
 12 26  1  6
 12 13  1  0
 13 14  1  0
 15 14  1  1
 15 23  1  0
 15 16  1  0
 15 25  1  0
 16 17  1  0
 16 46  1  0
 16 47  1  0
 17 22  1  0
 17 18  1  0
 17 48  1  1
 18 19  1  0
 18 49  1  0
 18 50  1  0
 19 24  1  0
 19 20  1  0
 19 51  1  6
 20 21  1  0
 20 52  1  0
 20 53  1  0
 21 22  1  0
 21 23  1  0
 21 54  1  1
 22 55  1  0
 22 56  1  0
 23 24  1  0
 23 57  1  1
 24 58  1  0
 24 59  1  0
 25 26  1  0
 27 60  1  0
 27 61  1  0
M  END
>  <i_m_ct_stereo_status>  (402) 
1

>  <s_m_source_file>  (402) 
/var/tmp/pbs.5076255.sched01/tmp0i_w_vt9/132llf9lao3.sdf

>  <i_m_source_file_index>  (402) 
31

>  <i_lp_mmshare_version>  (402) 
48012

>  <i_f3d_flags>  (402) 
0

>  <s_epik_input>  (402) 
W0NIMl0xW0NAQEhdKFtDSDJdMilbQ0gyXVtDQEBIXShbQ0gyXTMpW0NIMl1bQ0BIXTFbQ0gyXVtDQEBIXTNbQ0BASF0oW0NIM10pW0NAXTI0T09bQ0BAXTUoT080KVtDQEBIXTZbQ0BIXTdbQ0gyXVtDQEBIXShbQ0gyXTYpW0NIMl1bQ0BASF0oW0NIMl01KVtDSDJdNw==

>  <s_epik_cmdline>  (402) 
J2VwaWtfcHl0aG9uJywgJy1waHQnLCAnMi4wJywgJy1waCcsICc3LjAnLCAnLXRuJywgJzgnLCAnLW1hJywgJzIwMCcsICctaW1hZScsICc8aW5maWxlLm1hZT4nLCAnLW9tYWUnLCAnPG91dGZpbGUubWFlPic=

>  <r_lp_tautomer_probability>  (402) 
1

>  <r_epik_Ionization_Penalty>  (402) 
0

>  <r_epik_Ionization_Penalty_Charging>  (402) 
0

>  <r_epik_Ionization_Penalty_Neutral>  (402) 
0

>  <r_epik_State_Penalty>  (402) 
-0

>  <r_epik_Charging_Adjusted_Penalty>  (402) 
0

>  <i_epik_Tot_Q>  (402) 
0

>  <i_epik_Tot_abs_Q>  (402) 
0

>  <s_lp_Force_Field>  (402) 
OPLS3e

>  <r_lp_Energy>  (402) 
121.439

>  <b_lp_Chiralities_Consistent>  (402) 
1

>  <s_lp_Variant>  (402) 
109:0-7

>  <s_i_glide_gridfile>  (402) 
pfpi4k_grid

>  <i_i_glide_lignum>  (402) 
31

>  <i_i_glide_rotatable_bonds>  (402) 
0

>  <r_i_docking_score>  (402) 
-2.57595

>  <r_i_glide_ligand_efficiency>  (402) 
-0.0954054

>  <r_i_glide_ligand_efficiency_sa>  (402) 
-0.286216

>  <r_i_glide_ligand_efficiency_ln>  (402) 
-0.599638

>  <r_i_glide_gscore>  (402) 
-2.57595

>  <r_i_glide_lipo>  (402) 
-0.238851

>  <r_i_glide_hbond>  (402) 
0

>  <r_i_glide_metal>  (402) 
-0

>  <r_i_glide_rewards>  (402) 
-0.860591

>  <r_i_glide_evdw>  (402) 
-29.5247

>  <r_i_glide_ecoul>  (402) 
0.013961

>  <r_i_glide_erotb>  (402) 
0

>  <r_i_glide_esite>  (402) 
-0.00236072

>  <r_i_glide_emodel>  (402) 
-33.9365

>  <r_i_glide_energy>  (402) 
-29.5108

>  <r_i_glide_einternal>  (402) 
0

>  <r_i_glide_intrahb_reward>  (402) 
-0

>  <i_i_glide_confnum>  (402) 
2

>  <i_i_glide_posenum>  (402) 
17

>  <r_i_glide_eff_state_penalty>  (402) 
0

>  <ligand_id>  (402) 
109

>  <original_smiles>  (402) 
CC1C2CC3CC(CC(C3)CC13OOC1(CC4CC5CC(C4)C1C5)OO3)C2

>  <smiles>  (402) 
[H]C([H])([H])C1([H])C2(OOC3(OO2)C([H])([H])C2([H])C([H])([H])C4([H])C([H])([H])C([H])(C2([H])[H])C3([H])C4([H])[H])C([H])([H])C2([H])C([H])([H])C3([H])C([H])([H])C([H])(C2([H])[H])C([H])([H])C1([H])C3([H])[H]

$$$$
109:7:0
     RDKit          3D

 61 67  0  0  1  0  0  0  0  0999 V2000
    1.4371   -2.7521    3.0304 C   0  0  0  0  0  0  0  0  0  0  0  0
    2.7722   -3.5184    2.8833 C   0  0  2  0  0  0  0  0  0  0  0  0
    3.9370   -2.5092    2.5269 C   0  0  2  0  0  0  0  0  0  0  0  0
    5.4116   -3.0581    2.4904 C   0  0  0  0  0  0  0  0  0  0  0  0
    6.1407   -2.9929    1.0841 C   0  0  2  0  0  0  0  0  0  0  0  0
    5.9855   -1.5820    0.4974 C   0  0  0  0  0  0  0  0  0  0  0  0
    4.4866   -1.2616    0.3681 C   0  0  1  0  0  0  0  0  0  0  0  0
    3.7906   -2.3376   -0.5609 C   0  0  0  0  0  0  0  0  0  0  0  0
    4.1034   -3.8582   -0.2273 C   0  0  2  0  0  0  0  0  0  0  0  0
    5.6270   -4.0249   -0.0040 C   0  0  0  0  0  0  0  0  0  0  0  0
    2.9020   -4.7175    0.3678 C   0  0  0  0  0  0  0  0  0  0  0  0
    2.6906   -4.8565    1.9613 C   0  0  1  0  0  0  0  0  0  0  0  0
    3.7029   -5.6828    2.5540 O   0  0  0  0  0  0  0  0  0  0  0  0
    3.6459   -7.0752    1.9974 O   0  0  0  0  0  0  0  0  0  0  0  0
    2.3842   -7.6555    2.3005 C   0  0  1  0  0  0  0  0  0  0  0  0
    2.3939   -9.0766    1.7016 C   0  0  0  0  0  0  0  0  0  0  0  0
    2.7663  -10.1975    2.7165 C   0  0  2  0  0  0  0  0  0  0  0  0
    1.5429  -10.7587    3.5114 C   0  0  0  0  0  0  0  0  0  0  0  0
    1.0611   -9.8002    4.6367 C   0  0  1  0  0  0  0  0  0  0  0  0
    2.2246   -9.4691    5.5670 C   0  0  0  0  0  0  0  0  0  0  0  0
    3.1115   -8.6387    4.6205 C   0  0  1  0  0  0  0  0  0  0  0  0
    3.8209   -9.6549    3.6954 C   0  0  0  0  0  0  0  0  0  0  0  0
    2.1058   -7.7359    3.8263 C   0  0  2  0  0  0  0  0  0  0  0  0
    0.7272   -8.4064    4.0934 C   0  0  0  0  0  0  0  0  0  0  0  0
    1.3925   -6.8662    1.6499 O   0  0  0  0  0  0  0  0  0  0  0  0
    1.4236   -5.4693    2.2218 O   0  0  0  0  0  0  0  0  0  0  0  0
    3.8875   -1.1325    1.8204 C   0  0  0  0  0  0  0  0  0  0  0  0
    1.0688   -2.3640    2.0799 H   0  0  0  0  0  0  0  0  0  0  0  0
    1.5680   -1.8882    3.6807 H   0  0  0  0  0  0  0  0  0  0  0  0
    0.6618   -3.3748    3.4693 H   0  0  0  0  0  0  0  0  0  0  0  0
    2.9817   -3.8786    3.8860 H   0  0  0  0  0  0  0  0  0  0  0  0
    3.3517   -2.6762    1.6700 H   0  0  0  0  0  0  0  0  0  0  0  0
    5.9829   -2.4684    3.2110 H   0  0  0  0  0  0  0  0  0  0  0  0
    5.4714   -4.0739    2.8718 H   0  0  0  0  0  0  0  0  0  0  0  0
    7.1982   -3.1931    1.2418 H   0  0  0  0  0  0  0  0  0  0  0  0
    6.4781   -0.8463    1.1364 H   0  0  0  0  0  0  0  0  0  0  0  0
    6.4696   -1.5266   -0.4789 H   0  0  0  0  0  0  0  0  0  0  0  0
    4.3810   -0.2842   -0.1049 H   0  0  0  0  0  0  0  0  0  0  0  0
    2.7185   -2.1643   -0.5261 H   0  0  0  0  0  0  0  0  0  0  0  0
    4.0647   -2.1422   -1.6014 H   0  0  0  0  0  0  0  0  0  0  0  0
    4.2715   -4.0740    0.7716 H   0  0  0  0  0  0  0  0  0  0  0  0
    6.1489   -3.8366   -0.9453 H   0  0  0  0  0  0  0  0  0  0  0  0
    5.8979   -5.0505    0.2726 H   0  0  0  0  0  0  0  0  0  0  0  0
    1.9918   -4.3050   -0.0681 H   0  0  0  0  0  0  0  0  0  0  0  0
    2.9718   -5.7050   -0.0973 H   0  0  0  0  0  0  0  0  0  0  0  0
    1.4156   -9.3163    1.2877 H   0  0  0  0  0  0  0  0  0  0  0  0
    3.0886   -9.1305    0.8635 H   0  0  0  0  0  0  0  0  0  0  0  0
    3.1945  -11.0356    2.1614 H   0  0  0  0  0  0  0  0  0  0  0  0
    0.7192  -10.9937    2.8347 H   0  0  0  0  0  0  0  0  0  0  0  0
    1.8166  -11.7138    3.9697 H   0  0  0  0  0  0  0  0  0  0  0  0
    0.2234  -10.2467    5.1805 H   0  0  0  0  0  0  0  0  0  0  0  0
    1.8846   -8.8744    6.4168 H   0  0  0  0  0  0  0  0  0  0  0  0
    2.7097  -10.3628    5.9699 H   0  0  0  0  0  0  0  0  0  0  0  0
    3.8475   -8.0623    5.1799 H   0  0  0  0  0  0  0  0  0  0  0  0
    4.2712  -10.4655    4.2734 H   0  0  0  0  0  0  0  0  0  0  0  0
    4.6426   -9.1883    3.1503 H   0  0  0  0  0  0  0  0  0  0  0  0
    2.0887   -6.7505    4.2899 H   0  0  0  0  0  0  0  0  0  0  0  0
    0.0773   -8.4638    3.2187 H   0  0  0  0  0  0  0  0  0  0  0  0
    0.1795   -7.8552    4.8585 H   0  0  0  0  0  0  0  0  0  0  0  0
    2.8879   -0.6994    1.7824 H   0  0  0  0  0  0  0  0  0  0  0  0
    4.4905   -0.4202    2.3865 H   0  0  0  0  0  0  0  0  0  0  0  0
  1  2  1  0
  1 28  1  0
  1 29  1  0
  1 30  1  0
  2 12  1  0
  2  3  1  0
  2 31  1  1
  3 27  1  0
  3  4  1  0
  3 32  1  1
  4  5  1  0
  4 33  1  0
  4 34  1  0
  5 10  1  0
  5  6  1  0
  5 35  1  1
  6  7  1  0
  6 36  1  0
  6 37  1  0
  7  8  1  0
  7 27  1  0
  7 38  1  6
  8  9  1  0
  8 39  1  0
  8 40  1  0
  9 10  1  0
  9 11  1  0
  9 41  1  6
 10 42  1  0
 10 43  1  0
 11 12  1  0
 11 44  1  0
 11 45  1  0
 12 26  1  6
 12 13  1  0
 13 14  1  0
 15 14  1  1
 15 23  1  0
 15 16  1  0
 15 25  1  0
 16 17  1  0
 16 46  1  0
 16 47  1  0
 17 22  1  0
 17 18  1  0
 17 48  1  6
 18 19  1  0
 18 49  1  0
 18 50  1  0
 19 24  1  0
 19 20  1  0
 19 51  1  1
 20 21  1  0
 20 52  1  0
 20 53  1  0
 21 22  1  0
 21 23  1  0
 21 54  1  1
 22 55  1  0
 22 56  1  0
 23 24  1  0
 23 57  1  1
 24 58  1  0
 24 59  1  0
 25 26  1  0
 27 60  1  0
 27 61  1  0
M  END
>  <i_m_ct_stereo_status>  (403) 
1

>  <s_m_source_file>  (403) 
/var/tmp/pbs.5076255.sched01/tmp0i_w_vt9/132llf9lao3.sdf

>  <i_m_source_file_index>  (403) 
32

>  <i_lp_mmshare_version>  (403) 
48012

>  <i_f3d_flags>  (403) 
0

>  <s_epik_input>  (403) 
W0NIMl0xW0NAQEhdKFtDSDJdMilbQ0gyXVtDQEBIXShbQ0gyXTMpW0NIMl1bQ0BIXTFbQ0gyXVtDQEBIXTNbQ0BASF0oW0NIM10pW0NAXTI0T09bQ0BAXTUoT080KVtDQEBIXTZbQ0BIXTdbQ0gyXVtDQEBIXShbQ0gyXTYpW0NIMl1bQ0BASF0oW0NIMl01KVtDSDJdNw==

>  <s_epik_cmdline>  (403) 
J2VwaWtfcHl0aG9uJywgJy1waHQnLCAnMi4wJywgJy1waCcsICc3LjAnLCAnLXRuJywgJzgnLCAnLW1hJywgJzIwMCcsICctaW1hZScsICc8aW5maWxlLm1hZT4nLCAnLW9tYWUnLCAnPG91dGZpbGUubWFlPic=

>  <r_lp_tautomer_probability>  (403) 
1

>  <r_epik_Ionization_Penalty>  (403) 
0

>  <r_epik_Ionization_Penalty_Charging>  (403) 
0

>  <r_epik_Ionization_Penalty_Neutral>  (403) 
0

>  <r_epik_State_Penalty>  (403) 
-0

>  <r_epik_Charging_Adjusted_Penalty>  (403) 
0

>  <i_epik_Tot_Q>  (403) 
0

>  <i_epik_Tot_abs_Q>  (403) 
0

>  <s_lp_Force_Field>  (403) 
OPLS3e

>  <r_lp_Energy>  (403) 
189.681

>  <b_lp_Chiralities_Consistent>  (403) 
1

>  <s_lp_Variant>  (403) 
109:0-8

>  <s_i_glide_gridfile>  (403) 
pfpi4k_grid

>  <i_i_glide_lignum>  (403) 
32

>  <i_i_glide_rotatable_bonds>  (403) 
0

>  <r_i_docking_score>  (403) 
-2.96243

>  <r_i_glide_ligand_efficiency>  (403) 
-0.10972

>  <r_i_glide_ligand_efficiency_sa>  (403) 
-0.329159

>  <r_i_glide_ligand_efficiency_ln>  (403) 
-0.689606

>  <r_i_glide_gscore>  (403) 
-2.96243

>  <r_i_glide_lipo>  (403) 
-0.447871

>  <r_i_glide_hbond>  (403) 
-0.0332177

>  <r_i_glide_metal>  (403) 
-0

>  <r_i_glide_rewards>  (403) 
-0.855589

>  <r_i_glide_evdw>  (403) 
-26.751

>  <r_i_glide_ecoul>  (403) 
-1.79159

>  <r_i_glide_erotb>  (403) 
0

>  <r_i_glide_esite>  (403) 
-0.0194657

>  <r_i_glide_emodel>  (403) 
-33.8329

>  <r_i_glide_energy>  (403) 
-28.5426

>  <r_i_glide_einternal>  (403) 
0

>  <r_i_glide_intrahb_reward>  (403) 
-0

>  <i_i_glide_confnum>  (403) 
2

>  <i_i_glide_posenum>  (403) 
3

>  <r_i_glide_eff_state_penalty>  (403) 
0

>  <ligand_id>  (403) 
109

>  <original_smiles>  (403) 
CC1C2CC3CC(CC(C3)CC13OOC1(CC4CC5CC(C4)C1C5)OO3)C2

>  <smiles>  (403) 
[H]C([H])([H])C1([H])C2(OOC3(OO2)C([H])([H])C2([H])C([H])([H])C4([H])C([H])([H])C([H])(C2([H])[H])C3([H])C4([H])[H])C([H])([H])C2([H])C([H])([H])C3([H])C([H])([H])C([H])(C2([H])[H])C([H])([H])C1([H])C3([H])[H]

$$$$
109:7:1
     RDKit          3D

 61 67  0  0  1  0  0  0  0  0999 V2000
    6.7362   -5.7949    1.8422 C   0  0  0  0  0  0  0  0  0  0  0  0
    5.4154   -5.3628    1.1553 C   0  0  2  0  0  0  0  0  0  0  0  0
    5.7094   -4.2999    0.0203 C   0  0  2  0  0  0  0  0  0  0  0  0
    4.5148   -3.8424   -0.9105 C   0  0  0  0  0  0  0  0  0  0  0  0
    4.1256   -2.3090   -0.8097 C   0  0  2  0  0  0  0  0  0  0  0  0
    5.3910   -1.4581   -0.9613 C   0  0  0  0  0  0  0  0  0  0  0  0
    6.3891   -1.8490    0.1446 C   0  0  1  0  0  0  0  0  0  0  0  0
    5.7258   -1.6175    1.5621 C   0  0  0  0  0  0  0  0  0  0  0  0
    4.2755   -2.2245    1.7593 C   0  0  2  0  0  0  0  0  0  0  0  0
    3.4081   -1.8617    0.5307 C   0  0  0  0  0  0  0  0  0  0  0  0
    4.1402   -3.4673    2.7470 C   0  0  0  0  0  0  0  0  0  0  0  0
    4.2244   -4.9777    2.1877 C   0  0  1  0  0  0  0  0  0  0  0  0
    3.0518   -5.3355    1.4499 O   0  0  0  0  0  0  0  0  0  0  0  0
    1.8353   -5.2709    2.3160 O   0  0  0  0  0  0  0  0  0  0  0  0
    1.9605   -6.1963    3.3806 C   0  0  1  0  0  0  0  0  0  0  0  0
    0.6801   -6.0704    4.2264 C   0  0  0  0  0  0  0  0  0  0  0  0
   -0.4174   -7.1280    3.8902 C   0  0  2  0  0  0  0  0  0  0  0  0
   -0.2589   -8.4677    4.6793 C   0  0  0  0  0  0  0  0  0  0  0  0
    0.8852   -9.3673    4.1347 C   0  0  1  0  0  0  0  0  0  0  0  0
    0.6745   -9.6238    2.6465 C   0  0  0  0  0  0  0  0  0  0  0  0
    0.9061   -8.2088    2.0856 C   0  0  1  0  0  0  0  0  0  0  0  0
   -0.3900   -7.4174    2.3779 C   0  0  0  0  0  0  0  0  0  0  0  0
    2.1266   -7.6561    2.8941 C   0  0  2  0  0  0  0  0  0  0  0  0
    2.2268   -8.6274    4.1038 C   0  0  0  0  0  0  0  0  0  0  0  0
    3.0780   -5.7949    4.1502 O   0  0  0  0  0  0  0  0  0  0  0  0
    4.3159   -5.8816    3.2855 O   0  0  0  0  0  0  0  0  0  0  0  0
    6.8893   -3.3158   -0.1441 C   0  0  0  0  0  0  0  0  0  0  0  0
    7.1707   -5.0093    2.4605 H   0  0  0  0  0  0  0  0  0  0  0  0
    7.4764   -6.0577    1.0856 H   0  0  0  0  0  0  0  0  0  0  0  0
    6.5939   -6.6746    2.4654 H   0  0  0  0  0  0  0  0  0  0  0  0
    5.0714   -6.2573    0.6500 H   0  0  0  0  0  0  0  0  0  0  0  0
    5.7874   -3.8334    0.9580 H   0  0  0  0  0  0  0  0  0  0  0  0
    4.7835   -4.0770   -1.9445 H   0  0  0  0  0  0  0  0  0  0  0  0
    3.6258   -4.4394   -0.7319 H   0  0  0  0  0  0  0  0  0  0  0  0
    3.4413   -2.0774   -1.6254 H   0  0  0  0  0  0  0  0  0  0  0  0
    5.8303   -1.6133   -1.9478 H   0  0  0  0  0  0  0  0  0  0  0  0
    5.1365   -0.3956   -0.8893 H   0  0  0  0  0  0  0  0  0  0  0  0
    7.2578   -1.1974    0.0789 H   0  0  0  0  0  0  0  0  0  0  0  0
    6.3988   -2.0172    2.3121 H   0  0  0  0  0  0  0  0  0  0  0  0
    5.6913   -0.5418    1.7694 H   0  0  0  0  0  0  0  0  0  0  0  0
    4.0667   -3.0905    1.2232 H   0  0  0  0  0  0  0  0  0  0  0  0
    3.2521   -0.7807    0.5019 H   0  0  0  0  0  0  0  0  0  0  0  0
    2.4007   -2.2863    0.5842 H   0  0  0  0  0  0  0  0  0  0  0  0
    4.9158   -3.3361    3.5077 H   0  0  0  0  0  0  0  0  0  0  0  0
    3.2133   -3.3122    3.3131 H   0  0  0  0  0  0  0  0  0  0  0  0
    0.9115   -6.1693    5.2907 H   0  0  0  0  0  0  0  0  0  0  0  0
    0.2463   -5.0746    4.1177 H   0  0  0  0  0  0  0  0  0  0  0  0
   -1.3961   -6.7189    4.1579 H   0  0  0  0  0  0  0  0  0  0  0  0
   -0.1103   -8.2762    5.7439 H   0  0  0  0  0  0  0  0  0  0  0  0
   -1.1894   -9.0396    4.6186 H   0  0  0  0  0  0  0  0  0  0  0  0
    0.9329  -10.3012    4.7003 H   0  0  0  0  0  0  0  0  0  0  0  0
    1.4176  -10.3241    2.2628 H   0  0  0  0  0  0  0  0  0  0  0  0
   -0.3116  -10.0407    2.4196 H   0  0  0  0  0  0  0  0  0  0  0  0
    1.0928   -8.2427    1.0140 H   0  0  0  0  0  0  0  0  0  0  0  0
   -1.2710   -7.9821    2.0658 H   0  0  0  0  0  0  0  0  0  0  0  0
   -0.4123   -6.4909    1.8040 H   0  0  0  0  0  0  0  0  0  0  0  0
    3.0234   -7.7914    2.2899 H   0  0  0  0  0  0  0  0  0  0  0  0
    2.4368   -8.1383    5.0552 H   0  0  0  0  0  0  0  0  0  0  0  0
    3.0219   -9.3560    3.9408 H   0  0  0  0  0  0  0  0  0  0  0  0
    7.7450   -3.5512    0.4866 H   0  0  0  0  0  0  0  0  0  0  0  0
    7.2583   -3.3674   -1.1698 H   0  0  0  0  0  0  0  0  0  0  0  0
  1  2  1  0
  1 28  1  0
  1 29  1  0
  1 30  1  0
  2 12  1  0
  2  3  1  0
  2 31  1  6
  3 27  1  0
  3  4  1  0
  3 32  1  6
  4  5  1  0
  4 33  1  0
  4 34  1  0
  5 10  1  0
  5  6  1  0
  5 35  1  6
  6  7  1  0
  6 36  1  0
  6 37  1  0
  7  8  1  0
  7 27  1  0
  7 38  1  1
  8  9  1  0
  8 39  1  0
  8 40  1  0
  9 10  1  0
  9 11  1  0
  9 41  1  1
 10 42  1  0
 10 43  1  0
 11 12  1  0
 11 44  1  0
 11 45  1  0
 12 26  1  1
 12 13  1  0
 13 14  1  0
 15 14  1  6
 15 23  1  0
 15 16  1  0
 15 25  1  0
 16 17  1  0
 16 46  1  0
 16 47  1  0
 17 22  1  0
 17 18  1  0
 17 48  1  1
 18 19  1  0
 18 49  1  0
 18 50  1  0
 19 24  1  0
 19 20  1  0
 19 51  1  1
 20 21  1  0
 20 52  1  0
 20 53  1  0
 21 22  1  0
 21 23  1  0
 21 54  1  6
 22 55  1  0
 22 56  1  0
 23 24  1  0
 23 57  1  6
 24 58  1  0
 24 59  1  0
 25 26  1  0
 27 60  1  0
 27 61  1  0
M  END
>  <i_m_ct_stereo_status>  (404) 
1

>  <s_m_source_file>  (404) 
/var/tmp/pbs.5076255.sched01/tmp0i_w_vt9/132llf9lao3.sdf

>  <i_m_source_file_index>  (404) 
32

>  <i_lp_mmshare_version>  (404) 
48012

>  <i_f3d_flags>  (404) 
0

>  <s_epik_input>  (404) 
W0NIMl0xW0NAQEhdKFtDSDJdMilbQ0gyXVtDQEBIXShbQ0gyXTMpW0NIMl1bQ0BIXTFbQ0gyXVtDQEBIXTNbQ0BASF0oW0NIM10pW0NAXTI0T09bQ0BAXTUoT080KVtDQEBIXTZbQ0BIXTdbQ0gyXVtDQEBIXShbQ0gyXTYpW0NIMl1bQ0BASF0oW0NIMl01KVtDSDJdNw==

>  <s_epik_cmdline>  (404) 
J2VwaWtfcHl0aG9uJywgJy1waHQnLCAnMi4wJywgJy1waCcsICc3LjAnLCAnLXRuJywgJzgnLCAnLW1hJywgJzIwMCcsICctaW1hZScsICc8aW5maWxlLm1hZT4nLCAnLW9tYWUnLCAnPG91dGZpbGUubWFlPic=

>  <r_lp_tautomer_probability>  (404) 
1

>  <r_epik_Ionization_Penalty>  (404) 
0

>  <r_epik_Ionization_Penalty_Charging>  (404) 
0

>  <r_epik_Ionization_Penalty_Neutral>  (404) 
0

>  <r_epik_State_Penalty>  (404) 
-0

>  <r_epik_Charging_Adjusted_Penalty>  (404) 
0

>  <i_epik_Tot_Q>  (404) 
0

>  <i_epik_Tot_abs_Q>  (404) 
0

>  <s_lp_Force_Field>  (404) 
OPLS3e

>  <r_lp_Energy>  (404) 
189.681

>  <b_lp_Chiralities_Consistent>  (404) 
1

>  <s_lp_Variant>  (404) 
109:0-8

>  <s_i_glide_gridfile>  (404) 
pfpi4k_grid

>  <i_i_glide_lignum>  (404) 
32

>  <i_i_glide_rotatable_bonds>  (404) 
0

>  <r_i_docking_score>  (404) 
-2.91015

>  <r_i_glide_ligand_efficiency>  (404) 
-0.107783

>  <r_i_glide_ligand_efficiency_sa>  (404) 
-0.32335

>  <r_i_glide_ligand_efficiency_ln>  (404) 
-0.677434

>  <r_i_glide_gscore>  (404) 
-2.91015

>  <r_i_glide_lipo>  (404) 
-0.511174

>  <r_i_glide_hbond>  (404) 
0

>  <r_i_glide_metal>  (404) 
-0

>  <r_i_glide_rewards>  (404) 
-0.863217

>  <r_i_glide_evdw>  (404) 
-30.0653

>  <r_i_glide_ecoul>  (404) 
-0.186804

>  <r_i_glide_erotb>  (404) 
0

>  <r_i_glide_esite>  (404) 
-0.00446926

>  <r_i_glide_emodel>  (404) 
-35.4175

>  <r_i_glide_energy>  (404) 
-30.2521

>  <r_i_glide_einternal>  (404) 
0

>  <r_i_glide_intrahb_reward>  (404) 
-0

>  <i_i_glide_confnum>  (404) 
3

>  <i_i_glide_posenum>  (404) 
29

>  <r_i_glide_eff_state_penalty>  (404) 
0

>  <ligand_id>  (404) 
109

>  <original_smiles>  (404) 
CC1C2CC3CC(CC(C3)CC13OOC1(CC4CC5CC(C4)C1C5)OO3)C2

>  <smiles>  (404) 
[H]C([H])([H])C1([H])C2(OOC3(OO2)C([H])([H])C2([H])C([H])([H])C4([H])C([H])([H])C([H])(C2([H])[H])C3([H])C4([H])[H])C([H])([H])C2([H])C([H])([H])C3([H])C([H])([H])C([H])(C2([H])[H])C([H])([H])C1([H])C3([H])[H]

$$$$
109:7:2
     RDKit          3D

 61 67  0  0  1  0  0  0  0  0999 V2000
    3.7908   -9.0178    1.2171 C   0  0  0  0  0  0  0  0  0  0  0  0
    3.5230   -8.0285    2.3799 C   0  0  2  0  0  0  0  0  0  0  0  0
    2.9954   -8.8121    3.6497 C   0  0  2  0  0  0  0  0  0  0  0  0
    2.7977   -8.0099    5.0004 C   0  0  0  0  0  0  0  0  0  0  0  0
    1.3071   -7.9231    5.5318 C   0  0  2  0  0  0  0  0  0  0  0  0
    0.6930   -9.3327    5.5484 C   0  0  0  0  0  0  0  0  0  0  0  0
    0.7399   -9.9109    4.1235 C   0  0  1  0  0  0  0  0  0  0  0  0
   -0.0593   -8.9688    3.1358 C   0  0  0  0  0  0  0  0  0  0  0  0
    0.2885   -7.4204    3.2182 C   0  0  2  0  0  0  0  0  0  0  0  0
    0.3284   -6.9872    4.7062 C   0  0  0  0  0  0  0  0  0  0  0  0
    1.0597   -6.8008    1.9707 C   0  0  0  0  0  0  0  0  0  0  0  0
    2.6687   -6.7149    1.9516 C   0  0  1  0  0  0  0  0  0  0  0  0
    3.1569   -5.7300    2.8773 O   0  0  0  0  0  0  0  0  0  0  0  0
    2.6681   -4.3600    2.5054 O   0  0  0  0  0  0  0  0  0  0  0  0
    3.1484   -4.0205    1.2093 C   0  0  1  0  0  0  0  0  0  0  0  0
    2.6134   -2.6169    0.8874 C   0  0  0  0  0  0  0  0  0  0  0  0
    3.6015   -1.4544    1.1813 C   0  0  2  0  0  0  0  0  0  0  0  0
    4.5574   -1.1322   -0.0080 C   0  0  0  0  0  0  0  0  0  0  0  0
    5.6950   -2.1790   -0.1721 C   0  0  1  0  0  0  0  0  0  0  0  0
    6.4646   -2.3095    1.1390 C   0  0  0  0  0  0  0  0  0  0  0  0
    5.3869   -2.9547    2.0303 C   0  0  1  0  0  0  0  0  0  0  0  0
    4.4236   -1.8125    2.4308 C   0  0  0  0  0  0  0  0  0  0  0  0
    4.6958   -4.0134    1.1091 C   0  0  2  0  0  0  0  0  0  0  0  0
    5.1479   -3.6032   -0.3212 C   0  0  0  0  0  0  0  0  0  0  0  0
    2.5888   -4.9610    0.3048 O   0  0  0  0  0  0  0  0  0  0  0  0
    3.1143   -6.3286    0.6485 O   0  0  0  0  0  0  0  0  0  0  0  0
    2.2494  -10.1645    3.7486 C   0  0  0  0  0  0  0  0  0  0  0  0
    2.8757   -9.4360    0.7942 H   0  0  0  0  0  0  0  0  0  0  0  0
    4.3856   -9.8581    1.5756 H   0  0  0  0  0  0  0  0  0  0  0  0
    4.3561   -8.5502    0.4145 H   0  0  0  0  0  0  0  0  0  0  0  0
    4.5064   -7.6549    2.6430 H   0  0  0  0  0  0  0  0  0  0  0  0
    2.2228   -8.7396    2.9423 H   0  0  0  0  0  0  0  0  0  0  0  0
    3.4178   -8.4862    5.7633 H   0  0  0  0  0  0  0  0  0  0  0  0
    3.2030   -7.0048    4.9246 H   0  0  0  0  0  0  0  0  0  0  0  0
    1.3348   -7.5420    6.5520 H   0  0  0  0  0  0  0  0  0  0  0  0
    1.2398   -9.9807    6.2361 H   0  0  0  0  0  0  0  0  0  0  0  0
   -0.3377   -9.2976    5.9082 H   0  0  0  0  0  0  0  0  0  0  0  0
    0.2467  -10.8833    4.1382 H   0  0  0  0  0  0  0  0  0  0  0  0
    0.0953   -9.3376    2.1250 H   0  0  0  0  0  0  0  0  0  0  0  0
   -1.1313   -9.1015    3.3164 H   0  0  0  0  0  0  0  0  0  0  0  0
    1.2665   -7.1952    3.4784 H   0  0  0  0  0  0  0  0  0  0  0  0
   -0.6739   -7.0709    5.1302 H   0  0  0  0  0  0  0  0  0  0  0  0
    0.6071   -5.9334    4.8297 H   0  0  0  0  0  0  0  0  0  0  0  0
    0.7341   -7.3651    1.0937 H   0  0  0  0  0  0  0  0  0  0  0  0
    0.6264   -5.8109    1.8112 H   0  0  0  0  0  0  0  0  0  0  0  0
    2.3257   -2.5598   -0.1656 H   0  0  0  0  0  0  0  0  0  0  0  0
    1.6965   -2.4221    1.4535 H   0  0  0  0  0  0  0  0  0  0  0  0
    3.0223   -0.5507    1.3823 H   0  0  0  0  0  0  0  0  0  0  0  0
    3.9889   -1.0398   -0.9368 H   0  0  0  0  0  0  0  0  0  0  0  0
    5.0117   -0.1494    0.1501 H   0  0  0  0  0  0  0  0  0  0  0  0
    6.3512   -1.9000   -0.9995 H   0  0  0  0  0  0  0  0  0  0  0  0
    7.3246   -2.9698    1.0208 H   0  0  0  0  0  0  0  0  0  0  0  0
    6.8352   -1.3514    1.5124 H   0  0  0  0  0  0  0  0  0  0  0  0
    5.8181   -3.4015    2.9243 H   0  0  0  0  0  0  0  0  0  0  0  0
    4.9713   -0.9464    2.8052 H   0  0  0  0  0  0  0  0  0  0  0  0
    3.7646   -2.1206    3.2456 H   0  0  0  0  0  0  0  0  0  0  0  0
    5.1227   -4.9916    1.3240 H   0  0  0  0  0  0  0  0  0  0  0  0
    4.3608   -3.6575   -1.0738 H   0  0  0  0  0  0  0  0  0  0  0  0
    5.9530   -4.2553   -0.6621 H   0  0  0  0  0  0  0  0  0  0  0  0
    2.3212  -10.7676    2.8429 H   0  0  0  0  0  0  0  0  0  0  0  0
    2.7074  -10.7684    4.5339 H   0  0  0  0  0  0  0  0  0  0  0  0
  1  2  1  0
  1 28  1  0
  1 29  1  0
  1 30  1  0
  2 12  1  0
  2  3  1  0
  2 31  1  1
  3 27  1  0
  3  4  1  0
  3 32  1  1
  4  5  1  0
  4 33  1  0
  4 34  1  0
  5 10  1  0
  5  6  1  0
  5 35  1  1
  6  7  1  0
  6 36  1  0
  6 37  1  0
  7  8  1  0
  7 27  1  0
  7 38  1  1
  8  9  1  0
  8 39  1  0
  8 40  1  0
  9 10  1  0
  9 11  1  0
  9 41  1  6
 10 42  1  0
 10 43  1  0
 11 12  1  0
 11 44  1  0
 11 45  1  0
 12 26  1  6
 12 13  1  0
 13 14  1  0
 15 14  1  1
 15 23  1  0
 15 16  1  0
 15 25  1  0
 16 17  1  0
 16 46  1  0
 16 47  1  0
 17 22  1  0
 17 18  1  0
 17 48  1  1
 18 19  1  0
 18 49  1  0
 18 50  1  0
 19 24  1  0
 19 20  1  0
 19 51  1  6
 20 21  1  0
 20 52  1  0
 20 53  1  0
 21 22  1  0
 21 23  1  0
 21 54  1  1
 22 55  1  0
 22 56  1  0
 23 24  1  0
 23 57  1  1
 24 58  1  0
 24 59  1  0
 25 26  1  0
 27 60  1  0
 27 61  1  0
M  END
>  <i_m_ct_stereo_status>  (405) 
1

>  <s_m_source_file>  (405) 
/var/tmp/pbs.5076255.sched01/tmp0i_w_vt9/132llf9lao3.sdf

>  <i_m_source_file_index>  (405) 
32

>  <i_lp_mmshare_version>  (405) 
48012

>  <i_f3d_flags>  (405) 
0

>  <s_epik_input>  (405) 
W0NIMl0xW0NAQEhdKFtDSDJdMilbQ0gyXVtDQEBIXShbQ0gyXTMpW0NIMl1bQ0BIXTFbQ0gyXVtDQEBIXTNbQ0BASF0oW0NIM10pW0NAXTI0T09bQ0BAXTUoT080KVtDQEBIXTZbQ0BIXTdbQ0gyXVtDQEBIXShbQ0gyXTYpW0NIMl1bQ0BASF0oW0NIMl01KVtDSDJdNw==

>  <s_epik_cmdline>  (405) 
J2VwaWtfcHl0aG9uJywgJy1waHQnLCAnMi4wJywgJy1waCcsICc3LjAnLCAnLXRuJywgJzgnLCAnLW1hJywgJzIwMCcsICctaW1hZScsICc8aW5maWxlLm1hZT4nLCAnLW9tYWUnLCAnPG91dGZpbGUubWFlPic=

>  <r_lp_tautomer_probability>  (405) 
1

>  <r_epik_Ionization_Penalty>  (405) 
0

>  <r_epik_Ionization_Penalty_Charging>  (405) 
0

>  <r_epik_Ionization_Penalty_Neutral>  (405) 
0

>  <r_epik_State_Penalty>  (405) 
-0

>  <r_epik_Charging_Adjusted_Penalty>  (405) 
0

>  <i_epik_Tot_Q>  (405) 
0

>  <i_epik_Tot_abs_Q>  (405) 
0

>  <s_lp_Force_Field>  (405) 
OPLS3e

>  <r_lp_Energy>  (405) 
189.681

>  <b_lp_Chiralities_Consistent>  (405) 
1

>  <s_lp_Variant>  (405) 
109:0-8

>  <s_i_glide_gridfile>  (405) 
pfpi4k_grid

>  <i_i_glide_lignum>  (405) 
32

>  <i_i_glide_rotatable_bonds>  (405) 
0

>  <r_i_docking_score>  (405) 
-2.59653

>  <r_i_glide_ligand_efficiency>  (405) 
-0.0961678

>  <r_i_glide_ligand_efficiency_sa>  (405) 
-0.288504

>  <r_i_glide_ligand_efficiency_ln>  (405) 
-0.60443

>  <r_i_glide_gscore>  (405) 
-2.59653

>  <r_i_glide_lipo>  (405) 
-0.236232

>  <r_i_glide_hbond>  (405) 
0

>  <r_i_glide_metal>  (405) 
-0

>  <r_i_glide_rewards>  (405) 
-0.855589

>  <r_i_glide_evdw>  (405) 
-29.1505

>  <r_i_glide_ecoul>  (405) 
-0.28487

>  <r_i_glide_erotb>  (405) 
0

>  <r_i_glide_esite>  (405) 
-0.00445336

>  <r_i_glide_emodel>  (405) 
-33.9946

>  <r_i_glide_energy>  (405) 
-29.4354

>  <r_i_glide_einternal>  (405) 
0

>  <r_i_glide_intrahb_reward>  (405) 
-0

>  <i_i_glide_confnum>  (405) 
3

>  <i_i_glide_posenum>  (405) 
16

>  <r_i_glide_eff_state_penalty>  (405) 
0

>  <ligand_id>  (405) 
109

>  <original_smiles>  (405) 
CC1C2CC3CC(CC(C3)CC13OOC1(CC4CC5CC(C4)C1C5)OO3)C2

>  <smiles>  (405) 
[H]C([H])([H])C1([H])C2(OOC3(OO2)C([H])([H])C2([H])C([H])([H])C4([H])C([H])([H])C([H])(C2([H])[H])C3([H])C4([H])[H])C([H])([H])C2([H])C([H])([H])C3([H])C([H])([H])C([H])(C2([H])[H])C([H])([H])C1([H])C3([H])[H]

$$$$
110:0:0
     RDKit          3D

 28 29  0  0  1  0  0  0  0  0999 V2000
  -11.8013   -7.5053   -7.5570 N   0  0  0  0  0  0  0  0  0  0  0  0
  -10.8512   -7.2697   -8.4790 C   0  0  0  0  0  0  0  0  0  0  0  0
  -11.2128   -7.0620   -9.7672 N   0  0  0  0  0  0  0  0  0  0  0  0
  -10.2624   -6.8372  -10.8651 C   0  0  0  0  0  0  0  0  0  0  0  0
   -8.9266   -6.3100  -10.3542 C   0  0  0  0  0  0  0  0  0  0  0  0
   -8.4314   -7.1629   -9.1886 C   0  0  0  0  0  0  0  0  0  0  0  0
   -9.4227   -7.1198   -8.0133 C   0  0  1  0  0  0  0  0  0  0  0  0
   -9.2306   -5.8439   -7.2251 C   0  0  0  0  0  0  0  0  0  0  0  0
   -8.1422   -5.7122   -6.3409 C   0  0  0  0  0  0  0  0  0  0  0  0
   -8.0122   -4.5412   -5.5697 C   0  0  0  0  0  0  0  0  0  0  0  0
   -8.9737   -3.5220   -5.6925 C   0  0  0  0  0  0  0  0  0  0  0  0
  -10.0639   -3.6446   -6.5668 C   0  0  0  0  0  0  0  0  0  0  0  0
  -10.1819   -4.8108   -7.3354 C   0  0  0  0  0  0  0  0  0  0  0  0
  -12.7897   -7.3970   -7.7595 H   0  0  0  0  0  0  0  0  0  0  0  0
  -11.5596   -7.5942   -6.5827 H   0  0  0  0  0  0  0  0  0  0  0  0
  -10.1169   -7.8019  -11.3443 H   0  0  0  0  0  0  0  0  0  0  0  0
  -10.6986   -6.1715  -11.6102 H   0  0  0  0  0  0  0  0  0  0  0  0
   -8.1877   -6.3360  -11.1508 H   0  0  0  0  0  0  0  0  0  0  0  0
   -9.0117   -5.2753  -10.0361 H   0  0  0  0  0  0  0  0  0  0  0  0
   -8.2921   -8.1957   -9.5134 H   0  0  0  0  0  0  0  0  0  0  0  0
   -7.4495   -6.8155   -8.8634 H   0  0  0  0  0  0  0  0  0  0  0  0
   -9.1865   -7.9557   -7.3555 H   0  0  0  0  0  0  0  0  0  0  0  0
   -7.4222   -6.5095   -6.2330 H   0  0  0  0  0  0  0  0  0  0  0  0
   -7.1844   -4.4286   -4.8768 H   0  0  0  0  0  0  0  0  0  0  0  0
   -8.8882   -2.6266   -5.1248 H   0  0  0  0  0  0  0  0  0  0  0  0
  -10.8120   -2.8616   -6.6196 H   0  0  0  0  0  0  0  0  0  0  0  0
  -11.0386   -4.9173   -7.9820 H   0  0  0  0  0  0  0  0  0  0  0  0
  -12.1952   -7.0170   -9.9984 H   0  0  0  0  0  0  0  0  0  0  0  0
  1  2  1  0
  1 14  1  0
  1 15  1  0
  2  7  1  0
  2  3  2  0
  3  4  1  0
  3 28  1  0
  4  5  1  0
  4 16  1  0
  4 17  1  0
  5  6  1  0
  5 18  1  0
  5 19  1  0
  6  7  1  0
  6 20  1  0
  6 21  1  0
  7  8  1  0
  7 22  1  1
  8 13  1  0
  8  9  2  0
  9 10  1  0
  9 23  1  0
 10 11  2  0
 10 24  1  0
 11 12  1  0
 11 25  1  0
 12 13  2  0
 12 26  1  0
 13 27  1  0
M  CHG  1   3   1
M  END
>  <i_m_ct_stereo_status>  (406) 
1

>  <s_m_source_file>  (406) 
/var/tmp/pbs.5076255.sched01/tmp0i_w_vt9/132llf9lao3.sdf

>  <i_m_source_file_index>  (406) 
33

>  <i_lp_mmshare_version>  (406) 
48012

>  <i_f3d_flags>  (406) 
0

>  <s_epik_input>  (406) 
W05IMl1DMT1OW0NIMl1bQ0gyXVtDSDJdW0NASF0xYzJbY0hdW2NIXVtjSF1bY0hdW2NIXTI=

>  <s_epik_cmdline>  (406) 
J2VwaWtfcHl0aG9uJywgJy1waHQnLCAnMi4wJywgJy1waCcsICc3LjAnLCAnLXRuJywgJzgnLCAnLW1hJywgJzIwMCcsICctaW1hZScsICc8aW5maWxlLm1hZT4nLCAnLW9tYWUnLCAnPG91dGZpbGUubWFlPic=

>  <r_lp_tautomer_probability>  (406) 
1

>  <r_epik_Ionization_Penalty>  (406) 
2.21878e-05

>  <r_epik_Ionization_Penalty_Charging>  (406) 
2.21878e-05

>  <r_epik_Ionization_Penalty_Neutral>  (406) 
2.35305e-12

>  <r_epik_State_Penalty>  (406) 
-0

>  <r_epik_Charging_Adjusted_Penalty>  (406) 
2.21878e-05

>  <i_epik_Tot_Q>  (406) 
1

>  <i_epik_Tot_abs_Q>  (406) 
1

>  <s_epik_Chemistry_Notes>  (406) 
This compound has an imine and may undergo hydrolysis.

>  <s_lp_Force_Field>  (406) 
OPLS3e

>  <r_lp_Energy>  (406) 
16.7195

>  <b_lp_Chiralities_Consistent>  (406) 
1

>  <s_lp_Variant>  (406) 
110:0-1

>  <s_i_glide_gridfile>  (406) 
pfpi4k_grid

>  <i_i_glide_lignum>  (406) 
33

>  <i_i_glide_rotatable_bonds>  (406) 
1

>  <r_i_docking_score>  (406) 
-5.04507

>  <r_i_glide_ligand_efficiency>  (406) 
-0.388082

>  <r_i_glide_ligand_efficiency_sa>  (406) 
-0.912511

>  <r_i_glide_ligand_efficiency_ln>  (406) 
-1.41519

>  <r_i_glide_gscore>  (406) 
-5.04507

>  <r_i_glide_lipo>  (406) 
-1.66803

>  <r_i_glide_hbond>  (406) 
0

>  <r_i_glide_metal>  (406) 
-0

>  <r_i_glide_rewards>  (406) 
-2.58253

>  <r_i_glide_evdw>  (406) 
-15.9522

>  <r_i_glide_ecoul>  (406) 
-2.58008

>  <r_i_glide_erotb>  (406) 
0.507902

>  <r_i_glide_esite>  (406) 
-0.117788

>  <r_i_glide_emodel>  (406) 
-24.8857

>  <r_i_glide_energy>  (406) 
-18.5323

>  <r_i_glide_einternal>  (406) 
0.26007

>  <r_i_glide_intrahb_reward>  (406) 
-0

>  <i_i_glide_confnum>  (406) 
3

>  <i_i_glide_posenum>  (406) 
9

>  <r_i_glide_eff_state_penalty>  (406) 
0

>  <ligand_id>  (406) 
110

>  <original_smiles>  (406) 
NC1=NCCCC1c1ccccc1

>  <smiles>  (406) 
[H]c1c([H])c([H])c(C2([H])C(N([H])[H])=[N+]([H])C([H])([H])C([H])([H])C2([H])[H])c([H])c1[H]

$$$$
110:0:1
     RDKit          3D

 28 29  0  0  1  0  0  0  0  0999 V2000
    2.9722   -3.8361   -3.9374 N   0  0  0  0  0  0  0  0  0  0  0  0
    3.3184   -2.5540   -3.7270 C   0  0  0  0  0  0  0  0  0  0  0  0
    2.6064   -1.5838   -4.3169 N   0  0  0  0  0  0  0  0  0  0  0  0
    2.7747   -0.1430   -4.2171 C   0  0  0  0  0  0  0  0  0  0  0  0
    4.1857    0.1023   -3.8659 C   0  0  0  0  0  0  0  0  0  0  0  0
    4.6041   -0.7210   -2.6314 C   0  0  0  0  0  0  0  0  0  0  0  0
    4.5225   -2.2290   -2.8959 C   0  0  1  0  0  0  0  0  0  0  0  0
    4.5357   -2.9761   -1.6058 C   0  0  0  0  0  0  0  0  0  0  0  0
    3.3308   -3.1493   -0.9025 C   0  0  0  0  0  0  0  0  0  0  0  0
    3.3049   -3.9084    0.2799 C   0  0  0  0  0  0  0  0  0  0  0  0
    4.5126   -4.4830    0.7579 C   0  0  0  0  0  0  0  0  0  0  0  0
    5.7182   -4.2872    0.0540 C   0  0  0  0  0  0  0  0  0  0  0  0
    5.7291   -3.5318   -1.1366 C   0  0  0  0  0  0  0  0  0  0  0  0
    2.0493   -4.0716   -4.3165 H   0  0  0  0  0  0  0  0  0  0  0  0
    3.3938   -4.5752   -3.3723 H   0  0  0  0  0  0  0  0  0  0  0  0
    2.4494    0.3515   -5.1349 H   0  0  0  0  0  0  0  0  0  0  0  0
    2.2062    0.2288   -3.3809 H   0  0  0  0  0  0  0  0  0  0  0  0
    4.7226   -0.1791   -4.7649 H   0  0  0  0  0  0  0  0  0  0  0  0
    4.2989    1.1662   -3.6546 H   0  0  0  0  0  0  0  0  0  0  0  0
    5.6138   -0.4740   -2.3074 H   0  0  0  0  0  0  0  0  0  0  0  0
    3.9645   -0.4271   -1.7930 H   0  0  0  0  0  0  0  0  0  0  0  0
    5.3817   -2.5197   -3.4982 H   0  0  0  0  0  0  0  0  0  0  0  0
    2.4092   -2.7209   -1.2840 H   0  0  0  0  0  0  0  0  0  0  0  0
    2.3667   -4.0610    0.8051 H   0  0  0  0  0  0  0  0  0  0  0  0
    4.4925   -5.0746    1.6673 H   0  0  0  0  0  0  0  0  0  0  0  0
    6.6386   -4.7439    0.4116 H   0  0  0  0  0  0  0  0  0  0  0  0
    6.6427   -3.4131   -1.6948 H   0  0  0  0  0  0  0  0  0  0  0  0
    1.8372   -1.8407   -4.9360 H   0  0  0  0  0  0  0  0  0  0  0  0
  1  2  1  0
  1 14  1  0
  1 15  1  0
  2  7  1  0
  2  3  2  0
  3  4  1  0
  3 28  1  0
  4  5  1  0
  4 16  1  0
  4 17  1  0
  5  6  1  0
  5 18  1  0
  5 19  1  0
  6  7  1  0
  6 20  1  0
  6 21  1  0
  7  8  1  0
  7 22  1  6
  8 13  1  0
  8  9  2  0
  9 10  1  0
  9 23  1  0
 10 11  2  0
 10 24  1  0
 11 12  1  0
 11 25  1  0
 12 13  2  0
 12 26  1  0
 13 27  1  0
M  CHG  1   3   1
M  END
>  <i_m_ct_stereo_status>  (407) 
1

>  <s_m_source_file>  (407) 
/var/tmp/pbs.5076255.sched01/tmp0i_w_vt9/132llf9lao3.sdf

>  <i_m_source_file_index>  (407) 
33

>  <i_lp_mmshare_version>  (407) 
48012

>  <i_f3d_flags>  (407) 
0

>  <s_epik_input>  (407) 
W05IMl1DMT1OW0NIMl1bQ0gyXVtDSDJdW0NASF0xYzJbY0hdW2NIXVtjSF1bY0hdW2NIXTI=

>  <s_epik_cmdline>  (407) 
J2VwaWtfcHl0aG9uJywgJy1waHQnLCAnMi4wJywgJy1waCcsICc3LjAnLCAnLXRuJywgJzgnLCAnLW1hJywgJzIwMCcsICctaW1hZScsICc8aW5maWxlLm1hZT4nLCAnLW9tYWUnLCAnPG91dGZpbGUubWFlPic=

>  <r_lp_tautomer_probability>  (407) 
1

>  <r_epik_Ionization_Penalty>  (407) 
2.21878e-05

>  <r_epik_Ionization_Penalty_Charging>  (407) 
2.21878e-05

>  <r_epik_Ionization_Penalty_Neutral>  (407) 
2.35305e-12

>  <r_epik_State_Penalty>  (407) 
-0

>  <r_epik_Charging_Adjusted_Penalty>  (407) 
2.21878e-05

>  <i_epik_Tot_Q>  (407) 
1

>  <i_epik_Tot_abs_Q>  (407) 
1

>  <s_epik_Chemistry_Notes>  (407) 
This compound has an imine and may undergo hydrolysis.

>  <s_lp_Force_Field>  (407) 
OPLS3e

>  <r_lp_Energy>  (407) 
16.7195

>  <b_lp_Chiralities_Consistent>  (407) 
1

>  <s_lp_Variant>  (407) 
110:0-1

>  <s_i_glide_gridfile>  (407) 
pfpi4k_grid

>  <i_i_glide_lignum>  (407) 
33

>  <i_i_glide_rotatable_bonds>  (407) 
1

>  <r_i_docking_score>  (407) 
-4.47687

>  <r_i_glide_ligand_efficiency>  (407) 
-0.344374

>  <r_i_glide_ligand_efficiency_sa>  (407) 
-0.809739

>  <r_i_glide_ligand_efficiency_ln>  (407) 
-1.2558

>  <r_i_glide_gscore>  (407) 
-4.47687

>  <r_i_glide_lipo>  (407) 
-0.527246

>  <r_i_glide_hbond>  (407) 
0

>  <r_i_glide_metal>  (407) 
-0

>  <r_i_glide_rewards>  (407) 
-2.47014

>  <r_i_glide_evdw>  (407) 
-9.92467

>  <r_i_glide_ecoul>  (407) 
-9.85996

>  <r_i_glide_erotb>  (407) 
0.507902

>  <r_i_glide_esite>  (407) 
-0.0121574

>  <r_i_glide_emodel>  (407) 
-25.1004

>  <r_i_glide_energy>  (407) 
-19.7846

>  <r_i_glide_einternal>  (407) 
0.143553

>  <r_i_glide_intrahb_reward>  (407) 
-0

>  <i_i_glide_confnum>  (407) 
1

>  <i_i_glide_posenum>  (407) 
4

>  <r_i_glide_eff_state_penalty>  (407) 
0

>  <ligand_id>  (407) 
110

>  <original_smiles>  (407) 
NC1=NCCCC1c1ccccc1

>  <smiles>  (407) 
[H]c1c([H])c([H])c(C2([H])C(N([H])[H])=[N+]([H])C([H])([H])C([H])([H])C2([H])[H])c([H])c1[H]

$$$$
110:0:2
     RDKit          3D

 28 29  0  0  1  0  0  0  0  0999 V2000
    2.6255   -2.6634    0.4322 N   0  0  0  0  0  0  0  0  0  0  0  0
    3.8620   -3.1701    0.2781 C   0  0  0  0  0  0  0  0  0  0  0  0
    4.1815   -4.3355    0.8931 N   0  0  0  0  0  0  0  0  0  0  0  0
    5.4724   -5.0088    0.7616 C   0  0  0  0  0  0  0  0  0  0  0  0
    6.5704   -4.0145    0.4006 C   0  0  0  0  0  0  0  0  0  0  0  0
    6.1487   -3.2088   -0.8231 C   0  0  0  0  0  0  0  0  0  0  0  0
    4.8489   -2.4061   -0.5734 C   0  0  1  0  0  0  0  0  0  0  0  0
    4.2630   -1.9685   -1.8897 C   0  0  0  0  0  0  0  0  0  0  0  0
    4.4607   -0.6640   -2.3520 C   0  0  0  0  0  0  0  0  0  0  0  0
    3.8283   -0.2164   -3.5255 C   0  0  0  0  0  0  0  0  0  0  0  0
    3.0157   -1.0990   -4.2506 C   0  0  0  0  0  0  0  0  0  0  0  0
    2.8307   -2.4211   -3.8069 C   0  0  0  0  0  0  0  0  0  0  0  0
    3.4597   -2.8514   -2.6192 C   0  0  0  0  0  0  0  0  0  0  0  0
    1.9183   -3.1364    0.9758 H   0  0  0  0  0  0  0  0  0  0  0  0
    2.3099   -1.8476   -0.0990 H   0  0  0  0  0  0  0  0  0  0  0  0
    5.7032   -5.5360    1.6901 H   0  0  0  0  0  0  0  0  0  0  0  0
    5.3853   -5.7834   -0.0051 H   0  0  0  0  0  0  0  0  0  0  0  0
    6.7743   -3.3612    1.2436 H   0  0  0  0  0  0  0  0  0  0  0  0
    7.4845   -4.5561    0.1653 H   0  0  0  0  0  0  0  0  0  0  0  0
    6.9447   -2.5258   -1.1127 H   0  0  0  0  0  0  0  0  0  0  0  0
    6.0100   -3.8872   -1.6703 H   0  0  0  0  0  0  0  0  0  0  0  0
    5.1279   -1.5229    0.0039 H   0  0  0  0  0  0  0  0  0  0  0  0
    5.0383    0.0384   -1.7852 H   0  0  0  0  0  0  0  0  0  0  0  0
    3.9338    0.8123   -3.8542 H   0  0  0  0  0  0  0  0  0  0  0  0
    2.5007   -0.7184   -5.1230 H   0  0  0  0  0  0  0  0  0  0  0  0
    2.1629   -3.1008   -4.3326 H   0  0  0  0  0  0  0  0  0  0  0  0
    3.2739   -3.8481   -2.2468 H   0  0  0  0  0  0  0  0  0  0  0  0
    3.4929   -4.8229    1.4429 H   0  0  0  0  0  0  0  0  0  0  0  0
  1  2  1  0
  1 14  1  0
  1 15  1  0
  2  7  1  0
  2  3  2  0
  3  4  1  0
  3 28  1  0
  4  5  1  0
  4 16  1  0
  4 17  1  0
  5  6  1  0
  5 18  1  0
  5 19  1  0
  6  7  1  0
  6 20  1  0
  6 21  1  0
  7  8  1  0
  7 22  1  1
  8 13  1  0
  8  9  2  0
  9 10  1  0
  9 23  1  0
 10 11  2  0
 10 24  1  0
 11 12  1  0
 11 25  1  0
 12 13  2  0
 12 26  1  0
 13 27  1  0
M  CHG  1   3   1
M  END
>  <i_m_ct_stereo_status>  (408) 
1

>  <s_m_source_file>  (408) 
/var/tmp/pbs.5076255.sched01/tmp0i_w_vt9/132llf9lao3.sdf

>  <i_m_source_file_index>  (408) 
33

>  <i_lp_mmshare_version>  (408) 
48012

>  <i_f3d_flags>  (408) 
0

>  <s_epik_input>  (408) 
W05IMl1DMT1OW0NIMl1bQ0gyXVtDSDJdW0NASF0xYzJbY0hdW2NIXVtjSF1bY0hdW2NIXTI=

>  <s_epik_cmdline>  (408) 
J2VwaWtfcHl0aG9uJywgJy1waHQnLCAnMi4wJywgJy1waCcsICc3LjAnLCAnLXRuJywgJzgnLCAnLW1hJywgJzIwMCcsICctaW1hZScsICc8aW5maWxlLm1hZT4nLCAnLW9tYWUnLCAnPG91dGZpbGUubWFlPic=

>  <r_lp_tautomer_probability>  (408) 
1

>  <r_epik_Ionization_Penalty>  (408) 
2.21878e-05

>  <r_epik_Ionization_Penalty_Charging>  (408) 
2.21878e-05

>  <r_epik_Ionization_Penalty_Neutral>  (408) 
2.35305e-12

>  <r_epik_State_Penalty>  (408) 
-0

>  <r_epik_Charging_Adjusted_Penalty>  (408) 
2.21878e-05

>  <i_epik_Tot_Q>  (408) 
1

>  <i_epik_Tot_abs_Q>  (408) 
1

>  <s_epik_Chemistry_Notes>  (408) 
This compound has an imine and may undergo hydrolysis.

>  <s_lp_Force_Field>  (408) 
OPLS3e

>  <r_lp_Energy>  (408) 
16.7195

>  <b_lp_Chiralities_Consistent>  (408) 
1

>  <s_lp_Variant>  (408) 
110:0-1

>  <s_i_glide_gridfile>  (408) 
pfpi4k_grid

>  <i_i_glide_lignum>  (408) 
33

>  <i_i_glide_rotatable_bonds>  (408) 
1

>  <r_i_docking_score>  (408) 
-4.33514

>  <r_i_glide_ligand_efficiency>  (408) 
-0.333472

>  <r_i_glide_ligand_efficiency_sa>  (408) 
-0.784105

>  <r_i_glide_ligand_efficiency_ln>  (408) 
-1.21605

>  <r_i_glide_gscore>  (408) 
-4.33514

>  <r_i_glide_lipo>  (408) 
-0.696057

>  <r_i_glide_hbond>  (408) 
-0.168416

>  <r_i_glide_metal>  (408) 
-0

>  <r_i_glide_rewards>  (408) 
-2.2142

>  <r_i_glide_evdw>  (408) 
-16.5113

>  <r_i_glide_ecoul>  (408) 
-5.82586

>  <r_i_glide_erotb>  (408) 
0.507902

>  <r_i_glide_esite>  (408) 
-0.0649232

>  <r_i_glide_emodel>  (408) 
-27.9399

>  <r_i_glide_energy>  (408) 
-22.3371

>  <r_i_glide_einternal>  (408) 
0.0646

>  <r_i_glide_intrahb_reward>  (408) 
-0

>  <i_i_glide_confnum>  (408) 
1

>  <i_i_glide_posenum>  (408) 
7

>  <r_i_glide_eff_state_penalty>  (408) 
0

>  <ligand_id>  (408) 
110

>  <original_smiles>  (408) 
NC1=NCCCC1c1ccccc1

>  <smiles>  (408) 
[H]c1c([H])c([H])c(C2([H])C(N([H])[H])=[N+]([H])C([H])([H])C([H])([H])C2([H])[H])c([H])c1[H]

$$$$
111:0:0
     RDKit          3D

 22 24  0  0  1  0  0  0  0  0999 V2000
   -5.3989   -7.7862   -5.7802 F   0  0  0  0  0  0  0  0  0  0  0  0
   -6.2085   -6.7175   -5.5977 C   0  0  0  0  0  0  0  0  0  0  0  0
   -5.8423   -5.7452   -4.6521 C   0  0  0  0  0  0  0  0  0  0  0  0
   -6.6502   -4.6111   -4.4867 C   0  0  0  0  0  0  0  0  0  0  0  0
   -7.8052   -4.5011   -5.2777 C   0  0  0  0  0  0  0  0  0  0  0  0
   -8.1654   -5.4330   -6.1821 N   0  0  0  0  0  0  0  0  0  0  0  0
   -7.3913   -6.5322   -6.3558 C   0  0  0  0  0  0  0  0  0  0  0  0
   -7.8580   -7.5063   -7.3731 C   0  0  0  0  0  0  0  0  0  0  0  0
   -7.7523   -8.9503   -7.5226 C   0  0  0  0  0  0  0  0  0  0  0  0
   -6.9848  -10.0353   -6.4269 Cl  0  0  0  0  0  0  0  0  0  0  0  0
   -8.3901   -9.4019   -8.6421 N   0  0  0  0  0  0  0  0  0  0  0  0
   -8.8790   -8.2747   -9.1691 C   0  0  0  0  0  0  0  0  0  0  0  0
   -9.6318   -7.9503  -10.3112 C   0  0  0  0  0  0  0  0  0  0  0  0
   -9.7053   -6.5189  -10.1162 C   0  0  0  0  0  0  0  0  0  0  0  0
   -9.0756   -6.0465   -9.0088 N   0  0  0  0  0  0  0  0  0  0  0  0
   -8.5945   -7.1805   -8.4666 N   0  0  0  0  0  0  0  0  0  0  0  0
   -8.4358  -10.3747   -8.9120 H   0  0  0  0  0  0  0  0  0  0  0  0
   -4.9462   -5.8732   -4.0647 H   0  0  0  0  0  0  0  0  0  0  0  0
   -6.3856   -3.8402   -3.7773 H   0  0  0  0  0  0  0  0  0  0  0  0
   -8.4516   -3.6402   -5.1911 H   0  0  0  0  0  0  0  0  0  0  0  0
   -9.9975   -8.6345  -11.0557 H   0  0  0  0  0  0  0  0  0  0  0  0
  -10.1933   -5.7936  -10.7521 H   0  0  0  0  0  0  0  0  0  0  0  0
  1  2  1  0
  2  7  2  0
  2  3  1  0
  3  4  2  0
  3 18  1  0
  4  5  1  0
  4 19  1  0
  5  6  2  0
  5 20  1  0
  6  7  1  0
  7  8  1  0
  8 16  1  0
  8  9  2  0
  9 10  1  0
  9 11  1  0
 11 17  1  0
 11 12  1  0
 12 16  1  0
 12 13  2  0
 13 14  1  0
 13 21  1  0
 14 15  2  0
 14 22  1  0
 15 16  1  0
M  END
>  <i_m_ct_stereo_status>  (409) 
1

>  <s_m_source_file>  (409) 
/var/tmp/pbs.5076255.sched01/tmp0i_w_vt9/132llf9lao3.sdf

>  <i_m_source_file_index>  (409) 
34

>  <i_lp_mmshare_version>  (409) 
48012

>  <i_f3d_flags>  (409) 
0

>  <s_epik_input>  (409) 
RmMxW2NIXVtjSF1bY0hdbmMxLWMoYyhDbClbbkhdMiluKGMyMyluW2NIXVtjSF0z

>  <s_epik_cmdline>  (409) 
J2VwaWtfcHl0aG9uJywgJy1waHQnLCAnMi4wJywgJy1waCcsICc3LjAnLCAnLXRuJywgJzgnLCAnLW1hJywgJzIwMCcsICctaW1hZScsICc8aW5maWxlLm1hZT4nLCAnLW9tYWUnLCAnPG91dGZpbGUubWFlPic=

>  <r_lp_tautomer_probability>  (409) 
1

>  <r_epik_Ionization_Penalty>  (409) 
5.63695e-05

>  <r_epik_Ionization_Penalty_Charging>  (409) 
0

>  <r_epik_Ionization_Penalty_Neutral>  (409) 
5.63695e-05

>  <r_epik_State_Penalty>  (409) 
-0

>  <r_epik_Charging_Adjusted_Penalty>  (409) 
0

>  <i_epik_Tot_Q>  (409) 
0

>  <i_epik_Tot_abs_Q>  (409) 
0

>  <s_lp_Force_Field>  (409) 
OPLS3e

>  <r_lp_Energy>  (409) 
16.5677

>  <b_lp_Chiralities_Consistent>  (409) 
1

>  <s_lp_Variant>  (409) 
111:0-1

>  <s_i_glide_gridfile>  (409) 
pfpi4k_grid

>  <i_i_glide_lignum>  (409) 
34

>  <i_i_glide_rotatable_bonds>  (409) 
1

>  <r_i_docking_score>  (409) 
-5.4624

>  <r_i_glide_ligand_efficiency>  (409) 
-0.3414

>  <r_i_glide_ligand_efficiency_sa>  (409) 
-0.860274

>  <r_i_glide_ligand_efficiency_ln>  (409) 
-1.44792

>  <r_i_glide_gscore>  (409) 
-5.4624

>  <r_i_glide_lipo>  (409) 
-2.06343

>  <r_i_glide_hbond>  (409) 
0

>  <r_i_glide_metal>  (409) 
-0

>  <r_i_glide_rewards>  (409) 
-2.45908

>  <r_i_glide_evdw>  (409) 
-25.5305

>  <r_i_glide_ecoul>  (409) 
0.193822

>  <r_i_glide_erotb>  (409) 
0.307564

>  <r_i_glide_esite>  (409) 
0

>  <r_i_glide_emodel>  (409) 
-33.8811

>  <r_i_glide_energy>  (409) 
-25.3367

>  <r_i_glide_einternal>  (409) 
0.155293

>  <r_i_glide_intrahb_reward>  (409) 
-0

>  <i_i_glide_confnum>  (409) 
2

>  <i_i_glide_posenum>  (409) 
9

>  <r_i_glide_eff_state_penalty>  (409) 
0

>  <ligand_id>  (409) 
111

>  <original_smiles>  (409) 
Fc1cccnc1-c1c(Cl)[nH]c2ccnn12

>  <smiles>  (409) 
[H]c1nc(-c2c(Cl)n([H])c3c([H])c([H])nn23)c(F)c([H])c1[H]

$$$$
111:0:1
     RDKit          3D

 22 24  0  0  1  0  0  0  0  0999 V2000
   -5.4724   -8.9417   -6.8515 F   0  0  0  0  0  0  0  0  0  0  0  0
   -5.9479   -7.7887   -6.3271 C   0  0  0  0  0  0  0  0  0  0  0  0
   -5.1264   -7.0499   -5.4515 C   0  0  0  0  0  0  0  0  0  0  0  0
   -5.5967   -5.8261   -4.9604 C   0  0  0  0  0  0  0  0  0  0  0  0
   -6.8779   -5.3949   -5.3433 C   0  0  0  0  0  0  0  0  0  0  0  0
   -7.6693   -6.1072   -6.1673 N   0  0  0  0  0  0  0  0  0  0  0  0
   -7.2308   -7.2944   -6.6631 C   0  0  0  0  0  0  0  0  0  0  0  0
   -8.1772   -8.0145   -7.5569 C   0  0  0  0  0  0  0  0  0  0  0  0
   -8.4136   -9.4142   -7.8613 C   0  0  0  0  0  0  0  0  0  0  0  0
   -7.5986  -10.7712   -7.1818 Cl  0  0  0  0  0  0  0  0  0  0  0  0
   -9.4420   -9.5920   -8.7487 N   0  0  0  0  0  0  0  0  0  0  0  0
   -9.8333   -8.3351   -8.9810 C   0  0  0  0  0  0  0  0  0  0  0  0
  -10.8221   -7.7273   -9.7688 C   0  0  0  0  0  0  0  0  0  0  0  0
  -10.5442   -6.3534   -9.4280 C   0  0  0  0  0  0  0  0  0  0  0  0
   -9.5271   -6.1567   -8.5666 N   0  0  0  0  0  0  0  0  0  0  0  0
   -9.1349   -7.4152   -8.3187 N   0  0  0  0  0  0  0  0  0  0  0  0
   -9.7691  -10.4855   -9.0766 H   0  0  0  0  0  0  0  0  0  0  0  0
   -4.1431   -7.4209   -5.1941 H   0  0  0  0  0  0  0  0  0  0  0  0
   -4.9847   -5.2058   -4.3151 H   0  0  0  0  0  0  0  0  0  0  0  0
   -7.2718   -4.4527   -4.9908 H   0  0  0  0  0  0  0  0  0  0  0  0
  -11.5170   -8.2446  -10.4021 H   0  0  0  0  0  0  0  0  0  0  0  0
  -11.0551   -5.4724   -9.7977 H   0  0  0  0  0  0  0  0  0  0  0  0
  1  2  1  0
  2  7  2  0
  2  3  1  0
  3  4  2  0
  3 18  1  0
  4  5  1  0
  4 19  1  0
  5  6  2  0
  5 20  1  0
  6  7  1  0
  7  8  1  0
  8 16  1  0
  8  9  2  0
  9 10  1  0
  9 11  1  0
 11 17  1  0
 11 12  1  0
 12 16  1  0
 12 13  2  0
 13 14  1  0
 13 21  1  0
 14 15  2  0
 14 22  1  0
 15 16  1  0
M  END
>  <i_m_ct_stereo_status>  (410) 
1

>  <s_m_source_file>  (410) 
/var/tmp/pbs.5076255.sched01/tmp0i_w_vt9/132llf9lao3.sdf

>  <i_m_source_file_index>  (410) 
34

>  <i_lp_mmshare_version>  (410) 
48012

>  <i_f3d_flags>  (410) 
0

>  <s_epik_input>  (410) 
RmMxW2NIXVtjSF1bY0hdbmMxLWMoYyhDbClbbkhdMiluKGMyMyluW2NIXVtjSF0z

>  <s_epik_cmdline>  (410) 
J2VwaWtfcHl0aG9uJywgJy1waHQnLCAnMi4wJywgJy1waCcsICc3LjAnLCAnLXRuJywgJzgnLCAnLW1hJywgJzIwMCcsICctaW1hZScsICc8aW5maWxlLm1hZT4nLCAnLW9tYWUnLCAnPG91dGZpbGUubWFlPic=

>  <r_lp_tautomer_probability>  (410) 
1

>  <r_epik_Ionization_Penalty>  (410) 
5.63695e-05

>  <r_epik_Ionization_Penalty_Charging>  (410) 
0

>  <r_epik_Ionization_Penalty_Neutral>  (410) 
5.63695e-05

>  <r_epik_State_Penalty>  (410) 
-0

>  <r_epik_Charging_Adjusted_Penalty>  (410) 
0

>  <i_epik_Tot_Q>  (410) 
0

>  <i_epik_Tot_abs_Q>  (410) 
0

>  <s_lp_Force_Field>  (410) 
OPLS3e

>  <r_lp_Energy>  (410) 
16.5677

>  <b_lp_Chiralities_Consistent>  (410) 
1

>  <s_lp_Variant>  (410) 
111:0-1

>  <s_i_glide_gridfile>  (410) 
pfpi4k_grid

>  <i_i_glide_lignum>  (410) 
34

>  <i_i_glide_rotatable_bonds>  (410) 
1

>  <r_i_docking_score>  (410) 
-4.6792

>  <r_i_glide_ligand_efficiency>  (410) 
-0.29245

>  <r_i_glide_ligand_efficiency_sa>  (410) 
-0.736928

>  <r_i_glide_ligand_efficiency_ln>  (410) 
-1.24032

>  <r_i_glide_gscore>  (410) 
-4.6792

>  <r_i_glide_lipo>  (410) 
-1.61007

>  <r_i_glide_hbond>  (410) 
0

>  <r_i_glide_metal>  (410) 
-0

>  <r_i_glide_rewards>  (410) 
-2.17337

>  <r_i_glide_evdw>  (410) 
-23.3204

>  <r_i_glide_ecoul>  (410) 
-0.24875

>  <r_i_glide_erotb>  (410) 
0.307564

>  <r_i_glide_esite>  (410) 
0

>  <r_i_glide_emodel>  (410) 
-30.8154

>  <r_i_glide_energy>  (410) 
-23.5692

>  <r_i_glide_einternal>  (410) 
0.212363

>  <r_i_glide_intrahb_reward>  (410) 
-0

>  <i_i_glide_confnum>  (410) 
6

>  <i_i_glide_posenum>  (410) 
3

>  <r_i_glide_eff_state_penalty>  (410) 
0

>  <ligand_id>  (410) 
111

>  <original_smiles>  (410) 
Fc1cccnc1-c1c(Cl)[nH]c2ccnn12

>  <smiles>  (410) 
[H]c1nc(-c2c(Cl)n([H])c3c([H])c([H])nn23)c(F)c([H])c1[H]

$$$$
111:0:2
     RDKit          3D

 22 24  0  0  1  0  0  0  0  0999 V2000
   -3.0079    3.3170    5.6830 F   0  0  0  0  0  0  0  0  0  0  0  0
   -2.2163    2.7065    6.5948 C   0  0  0  0  0  0  0  0  0  0  0  0
   -2.5442    2.7991    7.9541 C   0  0  0  0  0  0  0  0  0  0  0  0
   -1.7352    2.1442    8.8962 C   0  0  0  0  0  0  0  0  0  0  0  0
   -0.6207    1.4255    8.4246 C   0  0  0  0  0  0  0  0  0  0  0  0
   -0.3136    1.3191    7.1195 N   0  0  0  0  0  0  0  0  0  0  0  0
   -1.0767    1.9542    6.1951 C   0  0  0  0  0  0  0  0  0  0  0  0
   -0.6600    1.8194    4.7764 C   0  0  0  0  0  0  0  0  0  0  0  0
   -0.7479    2.6647    3.6032 C   0  0  0  0  0  0  0  0  0  0  0  0
   -1.4283    4.2439    3.5584 Cl  0  0  0  0  0  0  0  0  0  0  0  0
   -0.1739    2.1132    2.4976 N   0  0  0  0  0  0  0  0  0  0  0  0
    0.2661    0.9286    2.9735 C   0  0  0  0  0  0  0  0  0  0  0  0
    0.9431   -0.1829    2.4608 C   0  0  0  0  0  0  0  0  0  0  0  0
    0.9923   -0.9894    3.6542 C   0  0  0  0  0  0  0  0  0  0  0  0
    0.4177   -0.4423    4.7545 N   0  0  0  0  0  0  0  0  0  0  0  0
   -0.0011    0.7395    4.2759 N   0  0  0  0  0  0  0  0  0  0  0  0
   -0.1043    2.5952    1.6040 H   0  0  0  0  0  0  0  0  0  0  0  0
   -3.4181    3.3566    8.2766 H   0  0  0  0  0  0  0  0  0  0  0  0
   -1.9666    2.1748    9.9529 H   0  0  0  0  0  0  0  0  0  0  0  0
    0.0219    0.8902    9.1108 H   0  0  0  0  0  0  0  0  0  0  0  0
    1.2629   -0.2967    1.4326 H   0  0  0  0  0  0  0  0  0  0  0  0
    1.4136   -1.9787    3.7715 H   0  0  0  0  0  0  0  0  0  0  0  0
  1  2  1  0
  2  7  2  0
  2  3  1  0
  3  4  2  0
  3 18  1  0
  4  5  1  0
  4 19  1  0
  5  6  2  0
  5 20  1  0
  6  7  1  0
  7  8  1  0
  8 16  1  0
  8  9  2  0
  9 10  1  0
  9 11  1  0
 11 17  1  0
 11 12  1  0
 12 16  1  0
 12 13  2  0
 13 14  1  0
 13 21  1  0
 14 15  2  0
 14 22  1  0
 15 16  1  0
M  END
>  <i_m_ct_stereo_status>  (411) 
1

>  <s_m_source_file>  (411) 
/var/tmp/pbs.5076255.sched01/tmp0i_w_vt9/132llf9lao3.sdf

>  <i_m_source_file_index>  (411) 
34

>  <i_lp_mmshare_version>  (411) 
48012

>  <i_f3d_flags>  (411) 
0

>  <s_epik_input>  (411) 
RmMxW2NIXVtjSF1bY0hdbmMxLWMoYyhDbClbbkhdMiluKGMyMyluW2NIXVtjSF0z

>  <s_epik_cmdline>  (411) 
J2VwaWtfcHl0aG9uJywgJy1waHQnLCAnMi4wJywgJy1waCcsICc3LjAnLCAnLXRuJywgJzgnLCAnLW1hJywgJzIwMCcsICctaW1hZScsICc8aW5maWxlLm1hZT4nLCAnLW9tYWUnLCAnPG91dGZpbGUubWFlPic=

>  <r_lp_tautomer_probability>  (411) 
1

>  <r_epik_Ionization_Penalty>  (411) 
5.63695e-05

>  <r_epik_Ionization_Penalty_Charging>  (411) 
0

>  <r_epik_Ionization_Penalty_Neutral>  (411) 
5.63695e-05

>  <r_epik_State_Penalty>  (411) 
-0

>  <r_epik_Charging_Adjusted_Penalty>  (411) 
0

>  <i_epik_Tot_Q>  (411) 
0

>  <i_epik_Tot_abs_Q>  (411) 
0

>  <s_lp_Force_Field>  (411) 
OPLS3e

>  <r_lp_Energy>  (411) 
16.5677

>  <b_lp_Chiralities_Consistent>  (411) 
1

>  <s_lp_Variant>  (411) 
111:0-1

>  <s_i_glide_gridfile>  (411) 
pfpi4k_grid

>  <i_i_glide_lignum>  (411) 
34

>  <i_i_glide_rotatable_bonds>  (411) 
1

>  <r_i_docking_score>  (411) 
-3.44708

>  <r_i_glide_ligand_efficiency>  (411) 
-0.215443

>  <r_i_glide_ligand_efficiency_sa>  (411) 
-0.542882

>  <r_i_glide_ligand_efficiency_ln>  (411) 
-0.913718

>  <r_i_glide_gscore>  (411) 
-3.44708

>  <r_i_glide_lipo>  (411) 
-0.203078

>  <r_i_glide_hbond>  (411) 
-0.146149

>  <r_i_glide_metal>  (411) 
-0

>  <r_i_glide_rewards>  (411) 
-1.80571

>  <r_i_glide_evdw>  (411) 
-17.1026

>  <r_i_glide_ecoul>  (411) 
-3.97058

>  <r_i_glide_erotb>  (411) 
0.307564

>  <r_i_glide_esite>  (411) 
-0.148993

>  <r_i_glide_emodel>  (411) 
-26.4046

>  <r_i_glide_energy>  (411) 
-21.0732

>  <r_i_glide_einternal>  (411) 
0.155358

>  <r_i_glide_intrahb_reward>  (411) 
-0

>  <i_i_glide_confnum>  (411) 
3

>  <i_i_glide_posenum>  (411) 
1

>  <r_i_glide_eff_state_penalty>  (411) 
0

>  <ligand_id>  (411) 
111

>  <original_smiles>  (411) 
Fc1cccnc1-c1c(Cl)[nH]c2ccnn12

>  <smiles>  (411) 
[H]c1nc(-c2c(Cl)n([H])c3c([H])c([H])nn23)c(F)c([H])c1[H]

$$$$
112:0:0
     RDKit          3D

 31 34  0  0  1  0  0  0  0  0999 V2000
   -0.7393   -9.5063    2.7479 C   0  0  0  0  0  0  0  0  0  0  0  0
    0.6912   -9.9264    3.0124 C   0  0  0  0  0  0  0  0  0  0  0  0
    0.9954  -11.0996    3.7145 C   0  0  0  0  0  0  0  0  0  0  0  0
    2.3539  -11.3821    3.9100 C   0  0  0  0  0  0  0  0  0  0  0  0
    3.3154  -10.5383    3.4361 N   0  0  0  0  0  0  0  0  0  0  0  0
    2.9476   -9.4191    2.7623 C   0  0  0  0  0  0  0  0  0  0  0  0
    1.6586   -9.1071    2.5566 N   0  0  0  0  0  0  0  0  0  0  0  0
    3.9932   -8.4943    2.2613 C   0  0  0  0  0  0  0  0  0  0  0  0
    3.6819   -7.1630    1.8793 C   0  0  0  0  0  0  0  0  0  0  0  0
    4.7299   -6.3487    1.4216 C   0  0  0  0  0  0  0  0  0  0  0  0
    6.0322   -6.8034    1.3529 C   0  0  0  0  0  0  0  0  0  0  0  0
    6.3795   -8.1110    1.7265 C   0  0  0  0  0  0  0  0  0  0  0  0
    5.3360   -8.9586    2.1693 C   0  0  0  0  0  0  0  0  0  0  0  0
    5.6268  -10.3920    2.5414 C   0  0  0  0  0  0  0  0  0  0  0  0
    4.7406  -10.8362    3.7089 C   0  0  0  0  0  0  0  0  0  0  0  0
    6.8320   -5.8254    0.8524 O   0  0  0  0  0  0  0  0  0  0  0  0
    5.9722   -4.7683    0.5169 C   0  0  0  0  0  0  0  0  0  0  0  0
    4.6759   -5.0704    0.9665 O   0  0  0  0  0  0  0  0  0  0  0  0
   -1.4171  -10.2442    3.1690 H   0  0  0  0  0  0  0  0  0  0  0  0
   -0.9466   -9.4424    1.6835 H   0  0  0  0  0  0  0  0  0  0  0  0
   -0.9573   -8.5358    3.2044 H   0  0  0  0  0  0  0  0  0  0  0  0
    0.2194  -11.7466    4.1098 H   0  0  0  0  0  0  0  0  0  0  0  0
    2.6943  -12.2534    4.4589 H   0  0  0  0  0  0  0  0  0  0  0  0
    2.6722   -6.7794    1.9179 H   0  0  0  0  0  0  0  0  0  0  0  0
    7.4021   -8.4562    1.6485 H   0  0  0  0  0  0  0  0  0  0  0  0
    5.4283  -11.0287    1.6801 H   0  0  0  0  0  0  0  0  0  0  0  0
    6.6822  -10.5108    2.7977 H   0  0  0  0  0  0  0  0  0  0  0  0
    5.0039  -10.3021    4.6266 H   0  0  0  0  0  0  0  0  0  0  0  0
    4.8447  -11.9088    3.8812 H   0  0  0  0  0  0  0  0  0  0  0  0
    6.3312   -3.8221    0.9296 H   0  0  0  0  0  0  0  0  0  0  0  0
    5.9391   -4.6843   -0.5687 H   0  0  0  0  0  0  0  0  0  0  0  0
  1  2  1  0
  1 19  1  0
  1 20  1  0
  1 21  1  0
  2  7  2  0
  2  3  1  0
  3  4  2  0
  3 22  1  0
  4  5  1  0
  4 23  1  0
  5 15  1  0
  5  6  2  0
  6  7  1  0
  6  8  1  0
  8 13  2  0
  8  9  1  0
  9 10  2  0
  9 24  1  0
 10 18  1  0
 10 11  1  0
 11 12  2  0
 11 16  1  0
 12 13  1  0
 12 25  1  0
 13 14  1  0
 14 15  1  0
 14 26  1  0
 14 27  1  0
 15 28  1  0
 15 29  1  0
 16 17  1  0
 17 18  1  0
 17 30  1  0
 17 31  1  0
M  CHG  1   5   1
M  END
>  <i_m_ct_stereo_status>  (412) 
1

>  <s_m_source_file>  (412) 
/var/tmp/pbs.5076255.sched01/tmp0i_w_vt9/132llf9lao3.sdf

>  <i_m_source_file_index>  (412) 
35

>  <i_lp_mmshare_version>  (412) 
48012

>  <i_f3d_flags>  (412) 
0

>  <s_epik_input>  (412) 
W2NIXTFbY0hdYyhbQ0gzXSluYyhbbitdMTIpYzNjKFtDSDJdW0NIMl0yKVtjSF1jNGMoW2NIXTMpT1tDSDJdTzQ=

>  <s_epik_cmdline>  (412) 
J2VwaWtfcHl0aG9uJywgJy1waHQnLCAnMi4wJywgJy1waCcsICc3LjAnLCAnLXRuJywgJzgnLCAnLW1hJywgJzIwMCcsICctaW1hZScsICc8aW5maWxlLm1hZT4nLCAnLW9tYWUnLCAnPG91dGZpbGUubWFlPic=

>  <r_lp_tautomer_probability>  (412) 
1

>  <r_epik_Ionization_Penalty>  (412) 
1.76025e-13

>  <r_epik_Ionization_Penalty_Charging>  (412) 
0

>  <r_epik_Ionization_Penalty_Neutral>  (412) 
1.76025e-13

>  <r_epik_State_Penalty>  (412) 
-0

>  <r_epik_Charging_Adjusted_Penalty>  (412) 
0

>  <i_epik_Tot_Q>  (412) 
1

>  <i_epik_Tot_abs_Q>  (412) 
1

>  <s_epik_Chemistry_Notes>  (412) 
This compound contains an acetal/aminal-like group ( X-CH(R)-Y where X, Y are N, S, or O) that may be acid/base labile, releasing an aldehyde.

>  <s_lp_Force_Field>  (412) 
OPLS3e

>  <r_lp_Energy>  (412) 
44.1418

>  <b_lp_Chiralities_Consistent>  (412) 
1

>  <s_lp_Variant>  (412) 
112:0-1

>  <s_i_glide_gridfile>  (412) 
pfpi4k_grid

>  <i_i_glide_lignum>  (412) 
35

>  <i_i_glide_rotatable_bonds>  (412) 
0

>  <r_i_docking_score>  (412) 
-3.91736

>  <r_i_glide_ligand_efficiency>  (412) 
-0.217631

>  <r_i_glide_ligand_efficiency_sa>  (412) 
-0.570355

>  <r_i_glide_ligand_efficiency_ln>  (412) 
-1.00694

>  <r_i_glide_gscore>  (412) 
-3.91736

>  <r_i_glide_lipo>  (412) 
-0.531651

>  <r_i_glide_hbond>  (412) 
0

>  <r_i_glide_metal>  (412) 
-0

>  <r_i_glide_rewards>  (412) 
-1.90818

>  <r_i_glide_evdw>  (412) 
-18.832

>  <r_i_glide_ecoul>  (412) 
-3.33405

>  <r_i_glide_erotb>  (412) 
0

>  <r_i_glide_esite>  (412) 
-0.0358253

>  <r_i_glide_emodel>  (412) 
-30.1556

>  <r_i_glide_energy>  (412) 
-22.1661

>  <r_i_glide_einternal>  (412) 
0

>  <r_i_glide_intrahb_reward>  (412) 
-0

>  <i_i_glide_confnum>  (412) 
1

>  <i_i_glide_posenum>  (412) 
15

>  <r_i_glide_eff_state_penalty>  (412) 
0

>  <ligand_id>  (412) 
112

>  <original_smiles>  (412) 
Cc1cc[n+]2c(n1)-c1cc3c(cc1CC2)OCO3

>  <smiles>  (412) 
[H]c1c2c(c([H])c3c1-c1nc(C([H])([H])[H])c([H])c([H])[n+]1C([H])([H])C3([H])[H])OC([H])([H])O2

$$$$
112:0:1
     RDKit          3D

 31 34  0  0  1  0  0  0  0  0999 V2000
    0.7522  -11.8569    4.3045 C   0  0  0  0  0  0  0  0  0  0  0  0
    2.1669  -11.4126    4.0176 C   0  0  0  0  0  0  0  0  0  0  0  0
    3.2762  -12.1325    4.4851 C   0  0  0  0  0  0  0  0  0  0  0  0
    4.5392  -11.6305    4.1374 C   0  0  0  0  0  0  0  0  0  0  0  0
    4.6603  -10.4816    3.4093 N   0  0  0  0  0  0  0  0  0  0  0  0
    3.5431   -9.8332    2.9984 C   0  0  0  0  0  0  0  0  0  0  0  0
    2.3125  -10.2839    3.2954 N   0  0  0  0  0  0  0  0  0  0  0  0
    3.6771   -8.5683    2.2348 C   0  0  0  0  0  0  0  0  0  0  0  0
    2.5904   -7.6662    2.0951 C   0  0  0  0  0  0  0  0  0  0  0  0
    2.7985   -6.4861    1.3573 C   0  0  0  0  0  0  0  0  0  0  0  0
    4.0285   -6.1847    0.8075 C   0  0  0  0  0  0  0  0  0  0  0  0
    5.1288   -7.0449    0.9378 C   0  0  0  0  0  0  0  0  0  0  0  0
    4.9308   -8.2571    1.6398 C   0  0  0  0  0  0  0  0  0  0  0  0
    6.0525   -9.2597    1.7552 C   0  0  0  0  0  0  0  0  0  0  0  0
    6.0129   -9.9452    3.1254 C   0  0  0  0  0  0  0  0  0  0  0  0
    3.9576   -5.0073    0.1336 O   0  0  0  0  0  0  0  0  0  0  0  0
    2.6135   -4.6174    0.1964 C   0  0  0  0  0  0  0  0  0  0  0  0
    1.9124   -5.5034    1.0409 O   0  0  0  0  0  0  0  0  0  0  0  0
    0.7486  -12.7797    4.8772 H   0  0  0  0  0  0  0  0  0  0  0  0
    0.2219  -12.0397    3.3720 H   0  0  0  0  0  0  0  0  0  0  0  0
    0.2128  -11.1017    4.8756 H   0  0  0  0  0  0  0  0  0  0  0  0
    3.1457  -13.0368    5.0753 H   0  0  0  0  0  0  0  0  0  0  0  0
    5.4631  -12.1087    4.4442 H   0  0  0  0  0  0  0  0  0  0  0  0
    1.6211   -7.8793    2.5225 H   0  0  0  0  0  0  0  0  0  0  0  0
    6.0754   -6.7910    0.4860 H   0  0  0  0  0  0  0  0  0  0  0  0
    5.9444  -10.0053    0.9620 H   0  0  0  0  0  0  0  0  0  0  0  0
    7.0193   -8.7694    1.6098 H   0  0  0  0  0  0  0  0  0  0  0  0
    6.2412   -9.2325    3.9225 H   0  0  0  0  0  0  0  0  0  0  0  0
    6.7352  -10.7622    3.1706 H   0  0  0  0  0  0  0  0  0  0  0  0
    2.5277   -3.5821    0.5341 H   0  0  0  0  0  0  0  0  0  0  0  0
    2.1930   -4.6855   -0.8060 H   0  0  0  0  0  0  0  0  0  0  0  0
  1  2  1  0
  1 19  1  0
  1 20  1  0
  1 21  1  0
  2  7  2  0
  2  3  1  0
  3  4  2  0
  3 22  1  0
  4  5  1  0
  4 23  1  0
  5 15  1  0
  5  6  2  0
  6  7  1  0
  6  8  1  0
  8 13  2  0
  8  9  1  0
  9 10  2  0
  9 24  1  0
 10 18  1  0
 10 11  1  0
 11 12  2  0
 11 16  1  0
 12 13  1  0
 12 25  1  0
 13 14  1  0
 14 15  1  0
 14 26  1  0
 14 27  1  0
 15 28  1  0
 15 29  1  0
 16 17  1  0
 17 18  1  0
 17 30  1  0
 17 31  1  0
M  CHG  1   5   1
M  END
>  <i_m_ct_stereo_status>  (413) 
1

>  <s_m_source_file>  (413) 
/var/tmp/pbs.5076255.sched01/tmp0i_w_vt9/132llf9lao3.sdf

>  <i_m_source_file_index>  (413) 
35

>  <i_lp_mmshare_version>  (413) 
48012

>  <i_f3d_flags>  (413) 
0

>  <s_epik_input>  (413) 
W2NIXTFbY0hdYyhbQ0gzXSluYyhbbitdMTIpYzNjKFtDSDJdW0NIMl0yKVtjSF1jNGMoW2NIXTMpT1tDSDJdTzQ=

>  <s_epik_cmdline>  (413) 
J2VwaWtfcHl0aG9uJywgJy1waHQnLCAnMi4wJywgJy1waCcsICc3LjAnLCAnLXRuJywgJzgnLCAnLW1hJywgJzIwMCcsICctaW1hZScsICc8aW5maWxlLm1hZT4nLCAnLW9tYWUnLCAnPG91dGZpbGUubWFlPic=

>  <r_lp_tautomer_probability>  (413) 
1

>  <r_epik_Ionization_Penalty>  (413) 
1.76025e-13

>  <r_epik_Ionization_Penalty_Charging>  (413) 
0

>  <r_epik_Ionization_Penalty_Neutral>  (413) 
1.76025e-13

>  <r_epik_State_Penalty>  (413) 
-0

>  <r_epik_Charging_Adjusted_Penalty>  (413) 
0

>  <i_epik_Tot_Q>  (413) 
1

>  <i_epik_Tot_abs_Q>  (413) 
1

>  <s_epik_Chemistry_Notes>  (413) 
This compound contains an acetal/aminal-like group ( X-CH(R)-Y where X, Y are N, S, or O) that may be acid/base labile, releasing an aldehyde.

>  <s_lp_Force_Field>  (413) 
OPLS3e

>  <r_lp_Energy>  (413) 
44.1418

>  <b_lp_Chiralities_Consistent>  (413) 
1

>  <s_lp_Variant>  (413) 
112:0-1

>  <s_i_glide_gridfile>  (413) 
pfpi4k_grid

>  <i_i_glide_lignum>  (413) 
35

>  <i_i_glide_rotatable_bonds>  (413) 
0

>  <r_i_docking_score>  (413) 
-3.71808

>  <r_i_glide_ligand_efficiency>  (413) 
-0.20656

>  <r_i_glide_ligand_efficiency_sa>  (413) 
-0.54134

>  <r_i_glide_ligand_efficiency_ln>  (413) 
-0.955713

>  <r_i_glide_gscore>  (413) 
-3.71808

>  <r_i_glide_lipo>  (413) 
-0.265893

>  <r_i_glide_hbond>  (413) 
-0.0666583

>  <r_i_glide_metal>  (413) 
-0

>  <r_i_glide_rewards>  (413) 
-1.7641

>  <r_i_glide_evdw>  (413) 
-18.8784

>  <r_i_glide_ecoul>  (413) 
-3.88908

>  <r_i_glide_erotb>  (413) 
0

>  <r_i_glide_esite>  (413) 
-0.0941465

>  <r_i_glide_emodel>  (413) 
-30.3222

>  <r_i_glide_energy>  (413) 
-22.7675

>  <r_i_glide_einternal>  (413) 
0

>  <r_i_glide_intrahb_reward>  (413) 
-0

>  <i_i_glide_confnum>  (413) 
1

>  <i_i_glide_posenum>  (413) 
1

>  <r_i_glide_eff_state_penalty>  (413) 
0

>  <ligand_id>  (413) 
112

>  <original_smiles>  (413) 
Cc1cc[n+]2c(n1)-c1cc3c(cc1CC2)OCO3

>  <smiles>  (413) 
[H]c1c2c(c([H])c3c1-c1nc(C([H])([H])[H])c([H])c([H])[n+]1C([H])([H])C3([H])[H])OC([H])([H])O2

$$$$
112:0:2
     RDKit          3D

 31 34  0  0  1  0  0  0  0  0999 V2000
   -1.7431   -8.5882    3.2349 C   0  0  0  0  0  0  0  0  0  0  0  0
   -0.2872   -8.9091    2.9786 C   0  0  0  0  0  0  0  0  0  0  0  0
    0.2509  -10.1670    3.2809 C   0  0  0  0  0  0  0  0  0  0  0  0
    1.6096  -10.3579    2.9921 C   0  0  0  0  0  0  0  0  0  0  0  0
    2.3534   -9.3552    2.4567 N   0  0  0  0  0  0  0  0  0  0  0  0
    1.7739   -8.1554    2.2020 C   0  0  0  0  0  0  0  0  0  0  0  0
    0.4720   -7.9266    2.4567 N   0  0  0  0  0  0  0  0  0  0  0  0
    2.5947   -7.0593    1.6400 C   0  0  0  0  0  0  0  0  0  0  0  0
    2.1538   -5.7118    1.6707 C   0  0  0  0  0  0  0  0  0  0  0  0
    2.9837   -4.7312    1.1044 C   0  0  0  0  0  0  0  0  0  0  0  0
    4.2105   -5.0442    0.5534 C   0  0  0  0  0  0  0  0  0  0  0  0
    4.6886   -6.3617    0.5224 C   0  0  0  0  0  0  0  0  0  0  0  0
    3.8518   -7.3721    1.0513 C   0  0  0  0  0  0  0  0  0  0  0  0
    4.2668   -8.8236    0.9689 C   0  0  0  0  0  0  0  0  0  0  0  0
    3.7977   -9.5789    2.2125 C   0  0  0  0  0  0  0  0  0  0  0  0
    4.7960   -3.9167    0.0696 O   0  0  0  0  0  0  0  0  0  0  0  0
    3.8486   -2.8948    0.2429 C   0  0  0  0  0  0  0  0  0  0  0  0
    2.7622   -3.3969    0.9809 O   0  0  0  0  0  0  0  0  0  0  0  0
   -2.2521   -9.4493    3.6609 H   0  0  0  0  0  0  0  0  0  0  0  0
   -2.2486   -8.3210    2.3059 H   0  0  0  0  0  0  0  0  0  0  0  0
   -1.8369   -7.7608    3.9388 H   0  0  0  0  0  0  0  0  0  0  0  0
   -0.3485  -10.9493    3.7287 H   0  0  0  0  0  0  0  0  0  0  0  0
    2.1256  -11.2926    3.1947 H   0  0  0  0  0  0  0  0  0  0  0  0
    1.2040   -5.4343    2.1012 H   0  0  0  0  0  0  0  0  0  0  0  0
    5.6473   -6.5889    0.0798 H   0  0  0  0  0  0  0  0  0  0  0  0
    3.8226   -9.2758    0.0788 H   0  0  0  0  0  0  0  0  0  0  0  0
    5.3512   -8.9059    0.8640 H   0  0  0  0  0  0  0  0  0  0  0  0
    4.3224   -9.2218    3.1002 H   0  0  0  0  0  0  0  0  0  0  0  0
    3.9751  -10.6510    2.1017 H   0  0  0  0  0  0  0  0  0  0  0  0
    4.2908   -2.0219    0.7285 H   0  0  0  0  0  0  0  0  0  0  0  0
    3.4861   -2.5972   -0.7405 H   0  0  0  0  0  0  0  0  0  0  0  0
  1  2  1  0
  1 19  1  0
  1 20  1  0
  1 21  1  0
  2  7  2  0
  2  3  1  0
  3  4  2  0
  3 22  1  0
  4  5  1  0
  4 23  1  0
  5 15  1  0
  5  6  2  0
  6  7  1  0
  6  8  1  0
  8 13  2  0
  8  9  1  0
  9 10  2  0
  9 24  1  0
 10 18  1  0
 10 11  1  0
 11 12  2  0
 11 16  1  0
 12 13  1  0
 12 25  1  0
 13 14  1  0
 14 15  1  0
 14 26  1  0
 14 27  1  0
 15 28  1  0
 15 29  1  0
 16 17  1  0
 17 18  1  0
 17 30  1  0
 17 31  1  0
M  CHG  1   5   1
M  END
>  <i_m_ct_stereo_status>  (414) 
1

>  <s_m_source_file>  (414) 
/var/tmp/pbs.5076255.sched01/tmp0i_w_vt9/132llf9lao3.sdf

>  <i_m_source_file_index>  (414) 
35

>  <i_lp_mmshare_version>  (414) 
48012

>  <i_f3d_flags>  (414) 
0

>  <s_epik_input>  (414) 
W2NIXTFbY0hdYyhbQ0gzXSluYyhbbitdMTIpYzNjKFtDSDJdW0NIMl0yKVtjSF1jNGMoW2NIXTMpT1tDSDJdTzQ=

>  <s_epik_cmdline>  (414) 
J2VwaWtfcHl0aG9uJywgJy1waHQnLCAnMi4wJywgJy1waCcsICc3LjAnLCAnLXRuJywgJzgnLCAnLW1hJywgJzIwMCcsICctaW1hZScsICc8aW5maWxlLm1hZT4nLCAnLW9tYWUnLCAnPG91dGZpbGUubWFlPic=

>  <r_lp_tautomer_probability>  (414) 
1

>  <r_epik_Ionization_Penalty>  (414) 
1.76025e-13

>  <r_epik_Ionization_Penalty_Charging>  (414) 
0

>  <r_epik_Ionization_Penalty_Neutral>  (414) 
1.76025e-13

>  <r_epik_State_Penalty>  (414) 
-0

>  <r_epik_Charging_Adjusted_Penalty>  (414) 
0

>  <i_epik_Tot_Q>  (414) 
1

>  <i_epik_Tot_abs_Q>  (414) 
1

>  <s_epik_Chemistry_Notes>  (414) 
This compound contains an acetal/aminal-like group ( X-CH(R)-Y where X, Y are N, S, or O) that may be acid/base labile, releasing an aldehyde.

>  <s_lp_Force_Field>  (414) 
OPLS3e

>  <r_lp_Energy>  (414) 
44.1418

>  <b_lp_Chiralities_Consistent>  (414) 
1

>  <s_lp_Variant>  (414) 
112:0-1

>  <s_i_glide_gridfile>  (414) 
pfpi4k_grid

>  <i_i_glide_lignum>  (414) 
35

>  <i_i_glide_rotatable_bonds>  (414) 
0

>  <r_i_docking_score>  (414) 
-3.65554

>  <r_i_glide_ligand_efficiency>  (414) 
-0.203086

>  <r_i_glide_ligand_efficiency_sa>  (414) 
-0.532235

>  <r_i_glide_ligand_efficiency_ln>  (414) 
-0.939639

>  <r_i_glide_gscore>  (414) 
-3.65554

>  <r_i_glide_lipo>  (414) 
-0.403348

>  <r_i_glide_hbond>  (414) 
0

>  <r_i_glide_metal>  (414) 
-0

>  <r_i_glide_rewards>  (414) 
-1.79979

>  <r_i_glide_evdw>  (414) 
-20.4505

>  <r_i_glide_ecoul>  (414) 
-2.6711

>  <r_i_glide_erotb>  (414) 
0

>  <r_i_glide_esite>  (414) 
-0.0292177

>  <r_i_glide_emodel>  (414) 
-30.567

>  <r_i_glide_energy>  (414) 
-23.1216

>  <r_i_glide_einternal>  (414) 
0

>  <r_i_glide_intrahb_reward>  (414) 
-0

>  <i_i_glide_confnum>  (414) 
2

>  <i_i_glide_posenum>  (414) 
33

>  <r_i_glide_eff_state_penalty>  (414) 
0

>  <ligand_id>  (414) 
112

>  <original_smiles>  (414) 
Cc1cc[n+]2c(n1)-c1cc3c(cc1CC2)OCO3

>  <smiles>  (414) 
[H]c1c2c(c([H])c3c1-c1nc(C([H])([H])[H])c([H])c([H])[n+]1C([H])([H])C3([H])[H])OC([H])([H])O2

$$$$
114:0:0
     RDKit          3D

 32 34  0  0  1  0  0  0  0  0999 V2000
    0.6394   -8.0929    2.7600 N   0  0  0  0  0  0  0  0  0  0  0  0
    1.6721   -7.2466    2.6752 C   0  0  0  0  0  0  0  0  0  0  0  0
    2.5905   -7.2119    3.6642 N   0  0  0  0  0  0  0  0  0  0  0  0
    3.6156   -6.3596    3.5762 C   0  0  0  0  0  0  0  0  0  0  0  0
    3.8901   -5.4759    2.6013 N   0  0  0  0  0  0  0  0  0  0  0  0
    2.9583   -5.5177    1.6070 C   0  0  0  0  0  0  0  0  0  0  0  0
    1.8320   -6.3770    1.5719 C   0  0  0  0  0  0  0  0  0  0  0  0
    1.1022   -6.1716    0.4227 N   0  0  0  0  0  0  0  0  0  0  0  0
    1.8058   -5.2784   -0.2203 C   0  0  0  0  0  0  0  0  0  0  0  0
    2.8924   -4.7617    0.4532 N   0  0  0  0  0  0  0  0  0  0  0  0
    3.8746   -3.7452   -0.0227 C   0  0  2  0  0  0  0  0  0  0  0  0
    4.1803   -2.8641    1.0185 O   0  0  0  0  0  0  0  0  0  0  0  0
    4.0689   -1.5036    0.5901 C   0  0  1  0  0  0  0  0  0  0  0  0
    5.2487   -0.6674    1.1180 C   0  0  0  0  0  0  0  0  0  0  0  0
    5.0293   -0.2648    2.4529 O   0  0  0  0  0  0  0  0  0  0  0  0
    3.9972   -1.5756   -0.9430 C   0  0  1  0  0  0  0  0  0  0  0  0
    5.3016   -1.6177   -1.5075 O   0  0  0  0  0  0  0  0  0  0  0  0
    3.2757   -2.8932   -1.1418 C   0  0  1  0  0  0  0  0  0  0  0  0
    3.4871   -3.4371   -2.4320 O   0  0  0  0  0  0  0  0  0  0  0  0
    0.5897   -8.7382    3.5331 H   0  0  0  0  0  0  0  0  0  0  0  0
    0.0104   -8.1655    1.9737 H   0  0  0  0  0  0  0  0  0  0  0  0
    4.3165   -6.3823    4.3980 H   0  0  0  0  0  0  0  0  0  0  0  0
    1.4583   -4.9278   -1.1840 H   0  0  0  0  0  0  0  0  0  0  0  0
    4.7640   -4.3104   -0.3015 H   0  0  0  0  0  0  0  0  0  0  0  0
    3.1165   -1.1148    0.9614 H   0  0  0  0  0  0  0  0  0  0  0  0
    6.1887   -1.2158    1.0335 H   0  0  0  0  0  0  0  0  0  0  0  0
    5.3500    0.2364    0.5170 H   0  0  0  0  0  0  0  0  0  0  0  0
    4.2283    0.2400    2.4827 H   0  0  0  0  0  0  0  0  0  0  0  0
    3.4356   -0.7373   -1.3648 H   0  0  0  0  0  0  0  0  0  0  0  0
    5.6792   -2.4508   -1.2691 H   0  0  0  0  0  0  0  0  0  0  0  0
    2.2205   -2.7037   -0.9361 H   0  0  0  0  0  0  0  0  0  0  0  0
    3.1962   -4.3468   -2.4508 H   0  0  0  0  0  0  0  0  0  0  0  0
  1  2  1  0
  1 21  1  0
  1 20  1  0
  2  3  2  0
  2  7  1  0
  3  4  1  0
  4 22  1  0
  4  5  2  0
  5  6  1  0
  6 10  1  0
  6  7  2  0
  7  8  1  0
  8  9  2  0
  9 23  1  0
  9 10  1  0
 10 11  1  0
 11 18  1  0
 11 12  1  0
 11 24  1  6
 12 13  1  0
 13 14  1  0
 13 16  1  0
 13 25  1  1
 14 15  1  0
 14 26  1  0
 14 27  1  0
 15 28  1  0
 16 17  1  0
 16 18  1  0
 16 29  1  6
 17 30  1  0
 18 19  1  0
 18 31  1  1
 19 32  1  0
M  END
>  <i_m_ct_stereo_status>  (415) 
1

>  <s_m_source_file>  (415) 
/var/tmp/pbs.5076255.sched01/tmp0i_w_vt9/132llf9lao3.sdf

>  <i_m_source_file_index>  (415) 
37

>  <i_lp_mmshare_version>  (415) 
48012

>  <i_f3d_flags>  (415) 
0

>  <s_epik_input>  (415) 
bjFbY0hdW25IXVxjKD1OXFtIXSljKGMxMiluW2NIXW4yW0NAQEhdM09bQ0BASF0oW0NIMl1bT0hdKVtDQEBIXShbT0hdKVtDQEhdM1tPSF0=

>  <s_epik_cmdline>  (415) 
J2VwaWtfcHl0aG9uJywgJy1waHQnLCAnMi4wJywgJy1waCcsICc3LjAnLCAnLXRuJywgJzgnLCAnLW1hJywgJzIwMCcsICctaW1hZScsICc8aW5maWxlLm1hZT4nLCAnLW9tYWUnLCAnPG91dGZpbGUubWFlPic=

>  <r_lp_tautomer_probability>  (415) 
1

>  <r_epik_Ionization_Penalty>  (415) 
0.000428445

>  <r_epik_Ionization_Penalty_Charging>  (415) 
0

>  <r_epik_Ionization_Penalty_Neutral>  (415) 
0.000428445

>  <r_epik_State_Penalty>  (415) 
-0

>  <r_epik_Charging_Adjusted_Penalty>  (415) 
0

>  <i_epik_Tot_Q>  (415) 
0

>  <i_epik_Tot_abs_Q>  (415) 
0

>  <s_epik_Chemistry_Notes>  (415) 
This compound contains an acetal/aminal-like group ( X-CH(R)-Y where X, Y are N, S, or O) that may be acid/base labile, releasing an aldehyde.

>  <s_lp_Force_Field>  (415) 
OPLS3e

>  <r_lp_Energy>  (415) 
18.2998

>  <b_lp_Chiralities_Consistent>  (415) 
1

>  <s_lp_Variant>  (415) 
114:0-1

>  <s_i_glide_gridfile>  (415) 
pfpi4k_grid

>  <i_i_glide_lignum>  (415) 
37

>  <i_i_glide_rotatable_bonds>  (415) 
5

>  <r_i_docking_score>  (415) 
-4.16285

>  <r_i_glide_ligand_efficiency>  (415) 
-0.219098

>  <r_i_glide_ligand_efficiency_sa>  (415) 
-0.58464

>  <r_i_glide_ligand_efficiency_ln>  (415) 
-1.05537

>  <r_i_glide_gscore>  (415) 
-4.16285

>  <r_i_glide_lipo>  (415) 
-0.142185

>  <r_i_glide_hbond>  (415) 
-0.203774

>  <r_i_glide_metal>  (415) 
-0

>  <r_i_glide_rewards>  (415) 
-1.58796

>  <r_i_glide_evdw>  (415) 
-15.8814

>  <r_i_glide_ecoul>  (415) 
-11.8119

>  <r_i_glide_erotb>  (415) 
0.499276

>  <r_i_glide_esite>  (415) 
-0.162363

>  <r_i_glide_emodel>  (415) 
-36.1462

>  <r_i_glide_energy>  (415) 
-27.6932

>  <r_i_glide_einternal>  (415) 
2.08758

>  <r_i_glide_intrahb_reward>  (415) 
-0

>  <i_i_glide_confnum>  (415) 
3

>  <i_i_glide_posenum>  (415) 
38

>  <r_i_glide_eff_state_penalty>  (415) 
0

>  <ligand_id>  (415) 
114

>  <original_smiles>  (415) 
N=c1[nH]cnc2c1ncn2C1OC(CO)C(O)C1O

>  <smiles>  (415) 
[H]OC([H])([H])C1([H])OC([H])(n2c([H])nc3c(N([H])[H])nc([H])nc32)C([H])(O[H])C1([H])O[H]

$$$$
114:0:1
     RDKit          3D

 32 34  0  0  1  0  0  0  0  0999 V2000
    7.8101   -6.5850    1.2906 N   0  0  0  0  0  0  0  0  0  0  0  0
    6.5100   -6.8206    1.4946 C   0  0  0  0  0  0  0  0  0  0  0  0
    5.6538   -5.7788    1.4356 N   0  0  0  0  0  0  0  0  0  0  0  0
    4.3475   -6.0024    1.6349 C   0  0  0  0  0  0  0  0  0  0  0  0
    3.7300   -7.1555    1.8953 N   0  0  0  0  0  0  0  0  0  0  0  0
    4.5955   -8.2075    1.9374 C   0  0  0  0  0  0  0  0  0  0  0  0
    6.0021   -8.1153    1.7463 C   0  0  0  0  0  0  0  0  0  0  0  0
    6.5789   -9.3778    1.8503 N   0  0  0  0  0  0  0  0  0  0  0  0
    5.5628  -10.1662    2.0733 C   0  0  0  0  0  0  0  0  0  0  0  0
    4.3350   -9.5425    2.1575 N   0  0  0  0  0  0  0  0  0  0  0  0
    3.0246  -10.2226    2.3846 C   0  0  2  0  0  0  0  0  0  0  0  0
    1.9655   -9.3634    2.0825 O   0  0  0  0  0  0  0  0  0  0  0  0
    1.0278   -9.3372    3.1584 C   0  0  1  0  0  0  0  0  0  0  0  0
   -0.4115   -9.2613    2.6089 C   0  0  0  0  0  0  0  0  0  0  0  0
   -1.3320   -8.9938    3.6519 O   0  0  0  0  0  0  0  0  0  0  0  0
    1.3771  -10.5653    4.0198 C   0  0  1  0  0  0  0  0  0  0  0  0
    0.7671  -11.7323    3.4776 O   0  0  0  0  0  0  0  0  0  0  0  0
    2.8860  -10.6384    3.8552 C   0  0  1  0  0  0  0  0  0  0  0  0
    3.3515  -11.9488    4.1010 O   0  0  0  0  0  0  0  0  0  0  0  0
    8.1116   -5.6386    1.1258 H   0  0  0  0  0  0  0  0  0  0  0  0
    8.4656   -7.3594    1.3401 H   0  0  0  0  0  0  0  0  0  0  0  0
    3.6985   -5.1366    1.5636 H   0  0  0  0  0  0  0  0  0  0  0  0
    5.6674  -11.2405    2.1875 H   0  0  0  0  0  0  0  0  0  0  0  0
    3.0181  -11.0490    1.6937 H   0  0  0  0  0  0  0  0  0  0  0  0
    1.2604   -8.4345    3.7265 H   0  0  0  0  0  0  0  0  0  0  0  0
   -0.4772   -8.4563    1.8752 H   0  0  0  0  0  0  0  0  0  0  0  0
   -0.6947  -10.1658    2.0676 H   0  0  0  0  0  0  0  0  0  0  0  0
   -1.4452   -9.7832    4.1827 H   0  0  0  0  0  0  0  0  0  0  0  0
    1.0840  -10.4444    5.0663 H   0  0  0  0  0  0  0  0  0  0  0  0
    1.0924  -12.4976    3.9288 H   0  0  0  0  0  0  0  0  0  0  0  0
    3.3871   -9.9015    4.4876 H   0  0  0  0  0  0  0  0  0  0  0  0
    2.9246  -12.5505    3.5054 H   0  0  0  0  0  0  0  0  0  0  0  0
  1  2  1  0
  1 21  1  0
  1 20  1  0
  2  3  2  0
  2  7  1  0
  3  4  1  0
  4 22  1  0
  4  5  2  0
  5  6  1  0
  6 10  1  0
  6  7  2  0
  7  8  1  0
  8  9  2  0
  9 23  1  0
  9 10  1  0
 10 11  1  0
 11 18  1  0
 11 12  1  0
 11 24  1  6
 12 13  1  0
 13 14  1  0
 13 16  1  0
 13 25  1  1
 14 15  1  0
 14 26  1  0
 14 27  1  0
 15 28  1  0
 16 17  1  0
 16 18  1  0
 16 29  1  1
 17 30  1  0
 18 19  1  0
 18 31  1  1
 19 32  1  0
M  END
>  <i_m_ct_stereo_status>  (416) 
1

>  <s_m_source_file>  (416) 
/var/tmp/pbs.5076255.sched01/tmp0i_w_vt9/132llf9lao3.sdf

>  <i_m_source_file_index>  (416) 
37

>  <i_lp_mmshare_version>  (416) 
48012

>  <i_f3d_flags>  (416) 
0

>  <s_epik_input>  (416) 
bjFbY0hdW25IXVxjKD1OXFtIXSljKGMxMiluW2NIXW4yW0NAQEhdM09bQ0BASF0oW0NIMl1bT0hdKVtDQEBIXShbT0hdKVtDQEhdM1tPSF0=

>  <s_epik_cmdline>  (416) 
J2VwaWtfcHl0aG9uJywgJy1waHQnLCAnMi4wJywgJy1waCcsICc3LjAnLCAnLXRuJywgJzgnLCAnLW1hJywgJzIwMCcsICctaW1hZScsICc8aW5maWxlLm1hZT4nLCAnLW9tYWUnLCAnPG91dGZpbGUubWFlPic=

>  <r_lp_tautomer_probability>  (416) 
1

>  <r_epik_Ionization_Penalty>  (416) 
0.000428445

>  <r_epik_Ionization_Penalty_Charging>  (416) 
0

>  <r_epik_Ionization_Penalty_Neutral>  (416) 
0.000428445

>  <r_epik_State_Penalty>  (416) 
-0

>  <r_epik_Charging_Adjusted_Penalty>  (416) 
0

>  <i_epik_Tot_Q>  (416) 
0

>  <i_epik_Tot_abs_Q>  (416) 
0

>  <s_epik_Chemistry_Notes>  (416) 
This compound contains an acetal/aminal-like group ( X-CH(R)-Y where X, Y are N, S, or O) that may be acid/base labile, releasing an aldehyde.

>  <s_lp_Force_Field>  (416) 
OPLS3e

>  <r_lp_Energy>  (416) 
18.2998

>  <b_lp_Chiralities_Consistent>  (416) 
1

>  <s_lp_Variant>  (416) 
114:0-1

>  <s_i_glide_gridfile>  (416) 
pfpi4k_grid

>  <i_i_glide_lignum>  (416) 
37

>  <i_i_glide_rotatable_bonds>  (416) 
5

>  <r_i_docking_score>  (416) 
-3.92563

>  <r_i_glide_ligand_efficiency>  (416) 
-0.206612

>  <r_i_glide_ligand_efficiency_sa>  (416) 
-0.551324

>  <r_i_glide_ligand_efficiency_ln>  (416) 
-0.995232

>  <r_i_glide_gscore>  (416) 
-3.92563

>  <r_i_glide_lipo>  (416) 
-0.195757

>  <r_i_glide_hbond>  (416) 
-0.00373387

>  <r_i_glide_metal>  (416) 
-0

>  <r_i_glide_rewards>  (416) 
-1.64771

>  <r_i_glide_evdw>  (416) 
-19.888

>  <r_i_glide_ecoul>  (416) 
-9.27148

>  <r_i_glide_erotb>  (416) 
0.499276

>  <r_i_glide_esite>  (416) 
-0.192582

>  <r_i_glide_emodel>  (416) 
-37.2661

>  <r_i_glide_energy>  (416) 
-29.1595

>  <r_i_glide_einternal>  (416) 
2.49117

>  <r_i_glide_intrahb_reward>  (416) 
-0

>  <i_i_glide_confnum>  (416) 
6

>  <i_i_glide_posenum>  (416) 
2

>  <r_i_glide_eff_state_penalty>  (416) 
0

>  <ligand_id>  (416) 
114

>  <original_smiles>  (416) 
N=c1[nH]cnc2c1ncn2C1OC(CO)C(O)C1O

>  <smiles>  (416) 
[H]OC([H])([H])C1([H])OC([H])(n2c([H])nc3c(N([H])[H])nc([H])nc32)C([H])(O[H])C1([H])O[H]

$$$$
114:0:2
     RDKit          3D

 32 34  0  0  1  0  0  0  0  0999 V2000
    7.8095   -7.0506    1.3335 N   0  0  0  0  0  0  0  0  0  0  0  0
    6.5208   -7.2123    1.6533 C   0  0  0  0  0  0  0  0  0  0  0  0
    5.7059   -6.1380    1.6038 N   0  0  0  0  0  0  0  0  0  0  0  0
    4.4123   -6.2851    1.9207 C   0  0  0  0  0  0  0  0  0  0  0  0
    3.7636   -7.3930    2.2893 N   0  0  0  0  0  0  0  0  0  0  0  0
    4.5834   -8.4842    2.3072 C   0  0  0  0  0  0  0  0  0  0  0  0
    5.9762   -8.4676    2.0085 C   0  0  0  0  0  0  0  0  0  0  0  0
    6.5023   -9.7504    2.1380 N   0  0  0  0  0  0  0  0  0  0  0  0
    5.4689  -10.4816    2.4674 C   0  0  0  0  0  0  0  0  0  0  0  0
    4.2760   -9.7988    2.5917 N   0  0  0  0  0  0  0  0  0  0  0  0
    2.9552  -10.3823    2.9698 C   0  0  2  0  0  0  0  0  0  0  0  0
    1.9341   -9.6513    2.3625 O   0  0  0  0  0  0  0  0  0  0  0  0
    0.9387   -9.2949    3.3276 C   0  0  1  0  0  0  0  0  0  0  0  0
   -0.4667   -9.4172    2.7104 C   0  0  0  0  0  0  0  0  0  0  0  0
   -1.4595   -9.0239    3.6460 O   0  0  0  0  0  0  0  0  0  0  0  0
    1.2348  -10.1801    4.5523 C   0  0  1  0  0  0  0  0  0  0  0  0
    0.6101  -11.4484    4.4318 O   0  0  0  0  0  0  0  0  0  0  0  0
    2.7497  -10.3019    4.4894 C   0  0  1  0  0  0  0  0  0  0  0  0
    3.2049  -11.4428    5.1981 O   0  0  0  0  0  0  0  0  0  0  0  0
    8.1409   -6.1344    1.0866 H   0  0  0  0  0  0  0  0  0  0  0  0
    8.4388   -7.8463    1.3731 H   0  0  0  0  0  0  0  0  0  0  0  0
    3.8045   -5.3913    1.8493 H   0  0  0  0  0  0  0  0  0  0  0  0
    5.5379  -11.5490    2.6334 H   0  0  0  0  0  0  0  0  0  0  0  0
    2.9496  -11.3916    2.5566 H   0  0  0  0  0  0  0  0  0  0  0  0
    1.1382   -8.2552    3.6001 H   0  0  0  0  0  0  0  0  0  0  0  0
   -0.5385   -8.7766    1.8316 H   0  0  0  0  0  0  0  0  0  0  0  0
   -0.6320  -10.4289    2.3477 H   0  0  0  0  0  0  0  0  0  0  0  0
   -1.6385   -9.7480    4.2496 H   0  0  0  0  0  0  0  0  0  0  0  0
    0.9015   -9.7196    5.4847 H   0  0  0  0  0  0  0  0  0  0  0  0
   -0.3297  -11.3555    4.5805 H   0  0  0  0  0  0  0  0  0  0  0  0
    3.2151   -9.3934    4.8756 H   0  0  0  0  0  0  0  0  0  0  0  0
    2.6025  -11.6367    5.9084 H   0  0  0  0  0  0  0  0  0  0  0  0
  1  2  1  0
  1 21  1  0
  1 20  1  0
  2  3  2  0
  2  7  1  0
  3  4  1  0
  4 22  1  0
  4  5  2  0
  5  6  1  0
  6 10  1  0
  6  7  2  0
  7  8  1  0
  8  9  2  0
  9 23  1  0
  9 10  1  0
 10 11  1  0
 11 18  1  0
 11 12  1  0
 11 24  1  6
 12 13  1  0
 13 14  1  0
 13 16  1  0
 13 25  1  1
 14 15  1  0
 14 26  1  0
 14 27  1  0
 15 28  1  0
 16 17  1  0
 16 18  1  0
 16 29  1  1
 17 30  1  0
 18 19  1  0
 18 31  1  1
 19 32  1  0
M  END
>  <i_m_ct_stereo_status>  (417) 
1

>  <s_m_source_file>  (417) 
/var/tmp/pbs.5076255.sched01/tmp0i_w_vt9/132llf9lao3.sdf

>  <i_m_source_file_index>  (417) 
37

>  <i_lp_mmshare_version>  (417) 
48012

>  <i_f3d_flags>  (417) 
0

>  <s_epik_input>  (417) 
bjFbY0hdW25IXVxjKD1OXFtIXSljKGMxMiluW2NIXW4yW0NAQEhdM09bQ0BASF0oW0NIMl1bT0hdKVtDQEBIXShbT0hdKVtDQEhdM1tPSF0=

>  <s_epik_cmdline>  (417) 
J2VwaWtfcHl0aG9uJywgJy1waHQnLCAnMi4wJywgJy1waCcsICc3LjAnLCAnLXRuJywgJzgnLCAnLW1hJywgJzIwMCcsICctaW1hZScsICc8aW5maWxlLm1hZT4nLCAnLW9tYWUnLCAnPG91dGZpbGUubWFlPic=

>  <r_lp_tautomer_probability>  (417) 
1

>  <r_epik_Ionization_Penalty>  (417) 
0.000428445

>  <r_epik_Ionization_Penalty_Charging>  (417) 
0

>  <r_epik_Ionization_Penalty_Neutral>  (417) 
0.000428445

>  <r_epik_State_Penalty>  (417) 
-0

>  <r_epik_Charging_Adjusted_Penalty>  (417) 
0

>  <i_epik_Tot_Q>  (417) 
0

>  <i_epik_Tot_abs_Q>  (417) 
0

>  <s_epik_Chemistry_Notes>  (417) 
This compound contains an acetal/aminal-like group ( X-CH(R)-Y where X, Y are N, S, or O) that may be acid/base labile, releasing an aldehyde.

>  <s_lp_Force_Field>  (417) 
OPLS3e

>  <r_lp_Energy>  (417) 
18.2998

>  <b_lp_Chiralities_Consistent>  (417) 
1

>  <s_lp_Variant>  (417) 
114:0-1

>  <s_i_glide_gridfile>  (417) 
pfpi4k_grid

>  <i_i_glide_lignum>  (417) 
37

>  <i_i_glide_rotatable_bonds>  (417) 
5

>  <r_i_docking_score>  (417) 
-3.84522

>  <r_i_glide_ligand_efficiency>  (417) 
-0.20238

>  <r_i_glide_ligand_efficiency_sa>  (417) 
-0.540032

>  <r_i_glide_ligand_efficiency_ln>  (417) 
-0.974847

>  <r_i_glide_gscore>  (417) 
-3.84522

>  <r_i_glide_lipo>  (417) 
-0.140289

>  <r_i_glide_hbond>  (417) 
-0.010129

>  <r_i_glide_metal>  (417) 
-0

>  <r_i_glide_rewards>  (417) 
-1.62957

>  <r_i_glide_evdw>  (417) 
-19.7499

>  <r_i_glide_ecoul>  (417) 
-9.29844

>  <r_i_glide_erotb>  (417) 
0.499276

>  <r_i_glide_esite>  (417) 
-0.182252

>  <r_i_glide_emodel>  (417) 
-36.7757

>  <r_i_glide_energy>  (417) 
-29.0483

>  <r_i_glide_einternal>  (417) 
2.51135

>  <r_i_glide_intrahb_reward>  (417) 
-0

>  <i_i_glide_confnum>  (417) 
6

>  <i_i_glide_posenum>  (417) 
18

>  <r_i_glide_eff_state_penalty>  (417) 
0

>  <ligand_id>  (417) 
114

>  <original_smiles>  (417) 
N=c1[nH]cnc2c1ncn2C1OC(CO)C(O)C1O

>  <smiles>  (417) 
[H]OC([H])([H])C1([H])OC([H])(n2c([H])nc3c(N([H])[H])nc([H])nc32)C([H])(O[H])C1([H])O[H]

$$$$
115:0:0
     RDKit          3D

 65 69  0  0  1  0  0  0  0  0999 V2000
   -1.6617   -9.3483    2.4768 C   0  0  0  0  0  0  0  0  0  0  0  0
   -0.6600   -8.5149    3.2447 C   0  0  0  0  0  0  0  0  0  0  0  0
   -0.6596   -8.4526    4.5820 C   0  0  0  0  0  0  0  0  0  0  0  0
    0.3014   -7.6221    5.4035 C   0  0  0  0  0  0  0  0  0  0  0  0
    1.1612   -6.6173    4.5893 C   0  0  2  0  0  0  0  0  0  0  0  0
    1.5491   -7.2253    3.2347 C   0  0  1  0  0  0  0  0  0  0  0  0
    0.3369   -7.7368    2.4173 C   0  0  0  0  0  0  0  0  0  0  0  0
    2.3649   -6.2217    2.4248 C   0  0  1  0  0  0  0  0  0  0  0  0
    1.5730   -5.1005    2.0989 O   0  0  0  0  0  0  0  0  0  0  0  0
    3.6593   -5.7373    3.0952 C   0  0  0  0  0  0  0  0  0  0  0  0
    4.7777   -5.6029    2.2978 C   0  0  0  0  0  0  0  0  0  0  0  0
    4.9123   -6.1236    0.8651 C   0  0  0  0  0  0  0  0  0  0  0  0
    4.6453   -5.0482   -0.2096 C   0  0  0  0  0  0  0  0  0  0  0  0
    5.7346   -3.9535   -0.3180 C   0  0  1  0  0  0  0  0  0  0  0  0
    5.6403   -3.3256   -1.5831 O   0  0  0  0  0  0  0  0  0  0  0  0
    5.6914   -2.8341    0.7522 C   0  0  0  0  0  0  0  0  0  0  0  0
    5.4499   -3.3053    2.1742 C   0  0  0  0  0  0  0  0  0  0  0  0
    4.6932   -2.6276    3.0411 C   0  0  0  0  0  0  0  0  0  0  0  0
    4.0504   -2.6731    4.3628 C   0  0  2  0  0  0  0  0  0  0  0  0
    2.9949   -3.7477    4.6400 C   0  0  0  0  0  0  0  0  0  0  0  0
    3.4656   -5.2523    4.5898 C   0  0  2  0  0  0  0  0  0  0  0  0
    4.7731   -5.4556    5.4028 C   0  0  0  0  0  0  0  0  0  0  0  0
    5.1063   -4.7033    6.3248 O   0  0  0  0  0  0  0  0  0  0  0  0
    2.4400   -6.1938    5.3649 C   0  0  1  0  0  0  0  0  0  0  0  0
    2.0564   -5.7193    6.7995 C   0  0  0  0  0  0  0  0  0  0  0  0
    3.8306   -1.4758    3.3493 C   0  0  0  0  0  0  0  0  0  0  0  0
    4.4665   -0.1410    3.6806 C   0  0  0  0  0  0  0  0  0  0  0  0
    2.5496   -1.3332    2.5578 C   0  0  0  0  0  0  0  0  0  0  0  0
    5.9494   -4.6777    2.5708 C   0  0  0  0  0  0  0  0  0  0  0  0
   -2.2164   -8.7329    1.7689 H   0  0  0  0  0  0  0  0  0  0  0  0
   -2.3748   -9.8203    3.1507 H   0  0  0  0  0  0  0  0  0  0  0  0
   -1.1569  -10.1382    1.9183 H   0  0  0  0  0  0  0  0  0  0  0  0
   -1.3718   -9.0385    5.1454 H   0  0  0  0  0  0  0  0  0  0  0  0
   -0.2904   -7.0723    6.1360 H   0  0  0  0  0  0  0  0  0  0  0  0
    0.9275   -8.3297    5.9497 H   0  0  0  0  0  0  0  0  0  0  0  0
    0.5424   -5.7337    4.4115 H   0  0  0  0  0  0  0  0  0  0  0  0
    2.1885   -8.0868    3.4266 H   0  0  0  0  0  0  0  0  0  0  0  0
    0.6992   -8.3758    1.6131 H   0  0  0  0  0  0  0  0  0  0  0  0
   -0.2159   -6.9214    1.9504 H   0  0  0  0  0  0  0  0  0  0  0  0
    2.5316   -6.6849    1.4628 H   0  0  0  0  0  0  0  0  0  0  0  0
    2.1482   -4.4494    1.7212 H   0  0  0  0  0  0  0  0  0  0  0  0
    5.9279   -6.4993    0.7475 H   0  0  0  0  0  0  0  0  0  0  0  0
    4.3205   -7.0133    0.6776 H   0  0  0  0  0  0  0  0  0  0  0  0
    4.6320   -5.5888   -1.1514 H   0  0  0  0  0  0  0  0  0  0  0  0
    3.6544   -4.6103   -0.0940 H   0  0  0  0  0  0  0  0  0  0  0  0
    6.7139   -4.4377   -0.2935 H   0  0  0  0  0  0  0  0  0  0  0  0
    4.7458   -3.0355   -1.7014 H   0  0  0  0  0  0  0  0  0  0  0  0
    6.6377   -2.2886    0.7284 H   0  0  0  0  0  0  0  0  0  0  0  0
    4.9042   -2.1159    0.5043 H   0  0  0  0  0  0  0  0  0  0  0  0
    4.6552   -2.4343    5.2352 H   0  0  0  0  0  0  0  0  0  0  0  0
    2.6068   -3.5014    5.6293 H   0  0  0  0  0  0  0  0  0  0  0  0
    2.1464   -3.5863    3.9802 H   0  0  0  0  0  0  0  0  0  0  0  0
    5.3623   -6.3293    5.1339 H   0  0  0  0  0  0  0  0  0  0  0  0
    2.9709   -7.1340    5.5208 H   0  0  0  0  0  0  0  0  0  0  0  0
    1.2976   -4.9372    6.7729 H   0  0  0  0  0  0  0  0  0  0  0  0
    2.8981   -5.3434    7.3777 H   0  0  0  0  0  0  0  0  0  0  0  0
    1.6499   -6.5409    7.3917 H   0  0  0  0  0  0  0  0  0  0  0  0
    3.7991    0.4469    4.3114 H   0  0  0  0  0  0  0  0  0  0  0  0
    4.6655    0.4258    2.7728 H   0  0  0  0  0  0  0  0  0  0  0  0
    5.4060   -0.2803    4.2171 H   0  0  0  0  0  0  0  0  0  0  0  0
    1.7472   -0.9937    3.2138 H   0  0  0  0  0  0  0  0  0  0  0  0
    2.2694   -2.2930    2.1278 H   0  0  0  0  0  0  0  0  0  0  0  0
    2.6770   -0.6231    1.7405 H   0  0  0  0  0  0  0  0  0  0  0  0
    6.2529   -4.6569    3.6074 H   0  0  0  0  0  0  0  0  0  0  0  0
    6.8514   -4.9619    2.0250 H   0  0  0  0  0  0  0  0  0  0  0  0
  1  2  1  0
  1 30  1  0
  1 31  1  0
  1 32  1  0
  2  7  1  0
  2  3  2  0
  3  4  1  0
  3 33  1  0
  4  5  1  0
  4 34  1  0
  4 35  1  0
  5 24  1  0
  5  6  1  0
  5 36  1  6
  6  7  1  0
  6  8  1  0
  6 37  1  1
  7 38  1  0
  7 39  1  0
  8  9  1  0
  8 10  1  0
  8 40  1  6
  9 41  1  0
 10 21  1  0
 10 11  2  3
 11 29  1  0
 11 12  1  0
 12 13  1  0
 12 42  1  0
 12 43  1  0
 13 14  1  0
 13 44  1  0
 13 45  1  0
 14 15  1  0
 14 16  1  0
 14 46  1  6
 15 47  1  0
 16 17  1  0
 16 48  1  0
 16 49  1  0
 17 18  2  3
 17 29  1  0
 18 26  1  0
 18 19  1  0
 19 20  1  0
 19 26  1  0
 19 50  1  1
 20 21  1  0
 20 51  1  0
 20 52  1  0
 21 22  1  1
 21 24  1  0
 22 23  2  0
 22 53  1  0
 24 25  1  0
 24 54  1  1
 25 55  1  0
 25 56  1  0
 25 57  1  0
 26 27  1  0
 26 28  1  0
 27 58  1  0
 27 59  1  0
 27 60  1  0
 28 61  1  0
 28 62  1  0
 28 63  1  0
 29 64  1  0
 29 65  1  0
M  END
>  <i_m_ct_stereo_status>  (418) 
1

>  <s_m_source_file>  (418) 
/var/tmp/pbs.5076255.sched01/tmp0i_w_vt9/132llf9lao3.sdf

>  <i_m_source_file_index>  (418) 
38

>  <i_lp_mmshare_version>  (418) 
48012

>  <i_f3d_flags>  (418) 
0

>  <s_epik_input>  (418) 
W0NIM11DKFtDSDJdMSk9W0NIXVtDSDJdW0NAQEhdKFtDQEBIXTJbQ0gzXSlbQ0BASF0xW0NAQEhdKFtPSF0pQyhbQ0BdMjNbQ0hdPU8pPUM0W0NIMl1bQ0gyXVtDQEBIXShbT0hdKVtDSDJdQyhbQ0gyXTQpPUM1W0NIXShbQ0gyXTMpQzUoW0NIM10pW0NIM10=

>  <s_epik_cmdline>  (418) 
J2VwaWtfcHl0aG9uJywgJy1waHQnLCAnMi4wJywgJy1waCcsICc3LjAnLCAnLXRuJywgJzgnLCAnLW1hJywgJzIwMCcsICctaW1hZScsICc8aW5maWxlLm1hZT4nLCAnLW9tYWUnLCAnPG91dGZpbGUubWFlPic=

>  <r_lp_tautomer_probability>  (418) 
1

>  <r_epik_Ionization_Penalty>  (418) 
2.98559e-07

>  <r_epik_Ionization_Penalty_Charging>  (418) 
0

>  <r_epik_Ionization_Penalty_Neutral>  (418) 
2.98559e-07

>  <r_epik_State_Penalty>  (418) 
-0

>  <r_epik_Charging_Adjusted_Penalty>  (418) 
0

>  <i_epik_Tot_Q>  (418) 
0

>  <i_epik_Tot_abs_Q>  (418) 
0

>  <s_lp_Force_Field>  (418) 
OPLS3e

>  <r_lp_Energy>  (418) 
56.1567

>  <b_lp_Chiralities_Consistent>  (418) 
1

>  <s_lp_Variant>  (418) 
115:0-1

>  <s_i_glide_gridfile>  (418) 
pfpi4k_grid

>  <i_i_glide_lignum>  (418) 
38

>  <i_i_glide_rotatable_bonds>  (418) 
3

>  <r_i_docking_score>  (418) 
-2.92668

>  <r_i_glide_ligand_efficiency>  (418) 
-0.10092

>  <r_i_glide_ligand_efficiency_sa>  (418) 
-0.310058

>  <r_i_glide_ligand_efficiency_ln>  (418) 
-0.670136

>  <r_i_glide_gscore>  (418) 
-2.92668

>  <r_i_glide_lipo>  (418) 
-0.635675

>  <r_i_glide_hbond>  (418) 
-0.0338631

>  <r_i_glide_metal>  (418) 
-0

>  <r_i_glide_rewards>  (418) 
-0.705257

>  <r_i_glide_evdw>  (418) 
-24.0344

>  <r_i_glide_ecoul>  (418) 
-2.33442

>  <r_i_glide_erotb>  (418) 
0

>  <r_i_glide_esite>  (418) 
0

>  <r_i_glide_emodel>  (418) 
-30.9457

>  <r_i_glide_energy>  (418) 
-26.3688

>  <r_i_glide_einternal>  (418) 
1.12013

>  <r_i_glide_intrahb_reward>  (418) 
-0

>  <i_i_glide_confnum>  (418) 
2

>  <i_i_glide_posenum>  (418) 
9

>  <r_i_glide_eff_state_penalty>  (418) 
0

>  <ligand_id>  (418) 
115

>  <original_smiles>  (418) 
CC1=CCC2C(C1)C(O)C1=C3CCC(O)CC(=C4C(CC1(C=O)C2C)C4(C)C)C3

>  <smiles>  (418) 
[H]OC1([H])C2=C3C([H])([H])C(=C4C([H])(C([H])([H])C2(C([H])=O)C([H])(C([H])([H])[H])C2([H])C([H])([H])C([H])=C(C([H])([H])[H])C([H])([H])C12[H])C4(C([H])([H])[H])C([H])([H])[H])C([H])([H])C([H])(O[H])C([H])([H])C3([H])[H]

$$$$
115:0:1
     RDKit          3D

 65 69  0  0  1  0  0  0  0  0999 V2000
   -0.6562   -1.8334    5.1710 C   0  0  0  0  0  0  0  0  0  0  0  0
    0.6649   -2.5719    5.2463 C   0  0  0  0  0  0  0  0  0  0  0  0
    1.8167   -1.9472    5.5251 C   0  0  0  0  0  0  0  0  0  0  0  0
    3.1680   -2.6298    5.5851 C   0  0  0  0  0  0  0  0  0  0  0  0
    3.1951   -4.0892    5.0439 C   0  0  2  0  0  0  0  0  0  0  0  0
    1.8933   -4.8208    5.3915 C   0  0  1  0  0  0  0  0  0  0  0  0
    0.6212   -4.0557    4.9482 C   0  0  0  0  0  0  0  0  0  0  0  0
    1.9092   -6.2418    4.8205 C   0  0  1  0  0  0  0  0  0  0  0  0
    1.9118   -6.2072    3.4041 O   0  0  0  0  0  0  0  0  0  0  0  0
    3.0683   -7.1272    5.3132 C   0  0  0  0  0  0  0  0  0  0  0  0
    2.7982   -8.4452    5.6185 C   0  0  0  0  0  0  0  0  0  0  0  0
    1.3918   -9.0405    5.7508 C   0  0  0  0  0  0  0  0  0  0  0  0
    0.9048   -9.7657    4.4792 C   0  0  0  0  0  0  0  0  0  0  0  0
    1.6425  -11.0936    4.1825 C   0  0  1  0  0  0  0  0  0  0  0  0
    0.8578  -11.8580    3.2942 O   0  0  0  0  0  0  0  0  0  0  0  0
    3.0447  -10.9702    3.5277 C   0  0  0  0  0  0  0  0  0  0  0  0
    3.9608   -9.9187    4.1315 C   0  0  0  0  0  0  0  0  0  0  0  0
    4.7776   -9.1572    3.3949 C   0  0  0  0  0  0  0  0  0  0  0  0
    5.6767   -7.9925    3.4210 C   0  0  2  0  0  0  0  0  0  0  0  0
    5.0994   -6.6169    3.7667 C   0  0  0  0  0  0  0  0  0  0  0  0
    4.4865   -6.4344    5.2029 C   0  0  2  0  0  0  0  0  0  0  0  0
    5.4808   -6.9717    6.2576 C   0  0  0  0  0  0  0  0  0  0  0  0
    5.1340   -7.2481    7.4092 O   0  0  0  0  0  0  0  0  0  0  0  0
    4.4038   -4.8927    5.6009 C   0  0  1  0  0  0  0  0  0  0  0  0
    5.7185   -4.0916    5.3796 C   0  0  0  0  0  0  0  0  0  0  0  0
    5.3177   -8.7634    2.0823 C   0  0  0  0  0  0  0  0  0  0  0  0
    6.3855   -9.6234    1.4370 C   0  0  0  0  0  0  0  0  0  0  0  0
    4.3447   -8.1952    1.0690 C   0  0  0  0  0  0  0  0  0  0  0  0
    3.8037   -9.5931    5.5973 C   0  0  0  0  0  0  0  0  0  0  0  0
   -1.1019   -1.9708    4.1869 H   0  0  0  0  0  0  0  0  0  0  0  0
   -0.5207   -0.7618    5.3268 H   0  0  0  0  0  0  0  0  0  0  0  0
   -1.3511   -2.2061    5.9240 H   0  0  0  0  0  0  0  0  0  0  0  0
    1.8209   -0.8873    5.7333 H   0  0  0  0  0  0  0  0  0  0  0  0
    3.8607   -2.0165    5.0078 H   0  0  0  0  0  0  0  0  0  0  0  0
    3.4906   -2.5904    6.6263 H   0  0  0  0  0  0  0  0  0  0  0  0
    3.2778   -4.0305    3.9544 H   0  0  0  0  0  0  0  0  0  0  0  0
    1.8465   -4.9087    6.4763 H   0  0  0  0  0  0  0  0  0  0  0  0
   -0.2442   -4.4944    5.4446 H   0  0  0  0  0  0  0  0  0  0  0  0
    0.4600   -4.1531    3.8735 H   0  0  0  0  0  0  0  0  0  0  0  0
    0.9384   -6.6560    5.0520 H   0  0  0  0  0  0  0  0  0  0  0  0
    1.9476   -7.0996    3.0934 H   0  0  0  0  0  0  0  0  0  0  0  0
    1.4095   -9.7524    6.5755 H   0  0  0  0  0  0  0  0  0  0  0  0
    0.6554   -8.3200    6.0936 H   0  0  0  0  0  0  0  0  0  0  0  0
   -0.1440   -9.9999    4.6506 H   0  0  0  0  0  0  0  0  0  0  0  0
    0.9240   -9.1001    3.6142 H   0  0  0  0  0  0  0  0  0  0  0  0
    1.7110  -11.6668    5.1130 H   0  0  0  0  0  0  0  0  0  0  0  0
    1.2094  -12.7482    3.2667 H   0  0  0  0  0  0  0  0  0  0  0  0
    3.5457  -11.9389    3.5838 H   0  0  0  0  0  0  0  0  0  0  0  0
    2.9380  -10.7415    2.4647 H   0  0  0  0  0  0  0  0  0  0  0  0
    6.6882   -8.1346    3.7985 H   0  0  0  0  0  0  0  0  0  0  0  0
    5.9297   -5.9271    3.6125 H   0  0  0  0  0  0  0  0  0  0  0  0
    4.3733   -6.3360    3.0111 H   0  0  0  0  0  0  0  0  0  0  0  0
    6.5176   -7.0282    5.9278 H   0  0  0  0  0  0  0  0  0  0  0  0
    4.2530   -4.8675    6.6833 H   0  0  0  0  0  0  0  0  0  0  0  0
    5.8161   -3.8026    4.3324 H   0  0  0  0  0  0  0  0  0  0  0  0
    6.6198   -4.6327    5.6694 H   0  0  0  0  0  0  0  0  0  0  0  0
    5.7341   -3.1704    5.9630 H   0  0  0  0  0  0  0  0  0  0  0  0
    6.9987   -9.0238    0.7625 H   0  0  0  0  0  0  0  0  0  0  0  0
    5.9372  -10.4376    0.8685 H   0  0  0  0  0  0  0  0  0  0  0  0
    7.0365  -10.0509    2.1968 H   0  0  0  0  0  0  0  0  0  0  0  0
    4.8138   -7.3791    0.5208 H   0  0  0  0  0  0  0  0  0  0  0  0
    3.4596   -7.8157    1.5728 H   0  0  0  0  0  0  0  0  0  0  0  0
    4.0271   -8.9686    0.3692 H   0  0  0  0  0  0  0  0  0  0  0  0
    4.7813   -9.3679    6.0002 H   0  0  0  0  0  0  0  0  0  0  0  0
    3.4631  -10.4586    6.1769 H   0  0  0  0  0  0  0  0  0  0  0  0
  1  2  1  0
  1 30  1  0
  1 31  1  0
  1 32  1  0
  2  7  1  0
  2  3  2  0
  3  4  1  0
  3 33  1  0
  4  5  1  0
  4 34  1  0
  4 35  1  0
  5 24  1  0
  5  6  1  0
  5 36  1  6
  6  7  1  0
  6  8  1  0
  6 37  1  1
  7 38  1  0
  7 39  1  0
  8  9  1  0
  8 10  1  0
  8 40  1  6
  9 41  1  0
 10 21  1  0
 10 11  2  3
 11 29  1  0
 11 12  1  0
 12 13  1  0
 12 42  1  0
 12 43  1  0
 13 14  1  0
 13 44  1  0
 13 45  1  0
 14 15  1  0
 14 16  1  0
 14 46  1  1
 15 47  1  0
 16 17  1  0
 16 48  1  0
 16 49  1  0
 17 18  2  3
 17 29  1  0
 18 26  1  0
 18 19  1  0
 19 20  1  0
 19 26  1  0
 19 50  1  1
 20 21  1  0
 20 51  1  0
 20 52  1  0
 21 22  1  1
 21 24  1  0
 22 23  2  0
 22 53  1  0
 24 25  1  0
 24 54  1  1
 25 55  1  0
 25 56  1  0
 25 57  1  0
 26 27  1  0
 26 28  1  0
 27 58  1  0
 27 59  1  0
 27 60  1  0
 28 61  1  0
 28 62  1  0
 28 63  1  0
 29 64  1  0
 29 65  1  0
M  END
>  <i_m_ct_stereo_status>  (419) 
1

>  <s_m_source_file>  (419) 
/var/tmp/pbs.5076255.sched01/tmp0i_w_vt9/132llf9lao3.sdf

>  <i_m_source_file_index>  (419) 
38

>  <i_lp_mmshare_version>  (419) 
48012

>  <i_f3d_flags>  (419) 
0

>  <s_epik_input>  (419) 
W0NIM11DKFtDSDJdMSk9W0NIXVtDSDJdW0NAQEhdKFtDQEBIXTJbQ0gzXSlbQ0BASF0xW0NAQEhdKFtPSF0pQyhbQ0BdMjNbQ0hdPU8pPUM0W0NIMl1bQ0gyXVtDQEBIXShbT0hdKVtDSDJdQyhbQ0gyXTQpPUM1W0NIXShbQ0gyXTMpQzUoW0NIM10pW0NIM10=

>  <s_epik_cmdline>  (419) 
J2VwaWtfcHl0aG9uJywgJy1waHQnLCAnMi4wJywgJy1waCcsICc3LjAnLCAnLXRuJywgJzgnLCAnLW1hJywgJzIwMCcsICctaW1hZScsICc8aW5maWxlLm1hZT4nLCAnLW9tYWUnLCAnPG91dGZpbGUubWFlPic=

>  <r_lp_tautomer_probability>  (419) 
1

>  <r_epik_Ionization_Penalty>  (419) 
2.98559e-07

>  <r_epik_Ionization_Penalty_Charging>  (419) 
0

>  <r_epik_Ionization_Penalty_Neutral>  (419) 
2.98559e-07

>  <r_epik_State_Penalty>  (419) 
-0

>  <r_epik_Charging_Adjusted_Penalty>  (419) 
0

>  <i_epik_Tot_Q>  (419) 
0

>  <i_epik_Tot_abs_Q>  (419) 
0

>  <s_lp_Force_Field>  (419) 
OPLS3e

>  <r_lp_Energy>  (419) 
56.1567

>  <b_lp_Chiralities_Consistent>  (419) 
1

>  <s_lp_Variant>  (419) 
115:0-1

>  <s_i_glide_gridfile>  (419) 
pfpi4k_grid

>  <i_i_glide_lignum>  (419) 
38

>  <i_i_glide_rotatable_bonds>  (419) 
3

>  <r_i_docking_score>  (419) 
-2.70275

>  <r_i_glide_ligand_efficiency>  (419) 
-0.0931983

>  <r_i_glide_ligand_efficiency_sa>  (419) 
-0.286335

>  <r_i_glide_ligand_efficiency_ln>  (419) 
-0.618861

>  <r_i_glide_gscore>  (419) 
-2.70275

>  <r_i_glide_lipo>  (419) 
-0.0330476

>  <r_i_glide_hbond>  (419) 
-0.32

>  <r_i_glide_metal>  (419) 
-0

>  <r_i_glide_rewards>  (419) 
-0.705257

>  <r_i_glide_evdw>  (419) 
-22.8529

>  <r_i_glide_ecoul>  (419) 
-3.34535

>  <r_i_glide_erotb>  (419) 
0

>  <r_i_glide_esite>  (419) 
0

>  <r_i_glide_emodel>  (419) 
-30.636

>  <r_i_glide_energy>  (419) 
-26.1982

>  <r_i_glide_einternal>  (419) 
0.785251

>  <r_i_glide_intrahb_reward>  (419) 
-0

>  <i_i_glide_confnum>  (419) 
2

>  <i_i_glide_posenum>  (419) 
3

>  <r_i_glide_eff_state_penalty>  (419) 
0

>  <ligand_id>  (419) 
115

>  <original_smiles>  (419) 
CC1=CCC2C(C1)C(O)C1=C3CCC(O)CC(=C4C(CC1(C=O)C2C)C4(C)C)C3

>  <smiles>  (419) 
[H]OC1([H])C2=C3C([H])([H])C(=C4C([H])(C([H])([H])C2(C([H])=O)C([H])(C([H])([H])[H])C2([H])C([H])([H])C([H])=C(C([H])([H])[H])C([H])([H])C12[H])C4(C([H])([H])[H])C([H])([H])[H])C([H])([H])C([H])(O[H])C([H])([H])C3([H])[H]

$$$$
115:0:2
     RDKit          3D

 65 69  0  0  1  0  0  0  0  0999 V2000
   -1.7620   -8.8439    2.3180 C   0  0  0  0  0  0  0  0  0  0  0  0
   -0.6257   -8.4954    3.2486 C   0  0  0  0  0  0  0  0  0  0  0  0
   -0.7183   -7.5058    4.1477 C   0  0  0  0  0  0  0  0  0  0  0  0
    0.4004   -7.0956    5.0820 C   0  0  0  0  0  0  0  0  0  0  0  0
    1.7866   -7.7334    4.7740 C   0  0  2  0  0  0  0  0  0  0  0  0
    1.6203   -9.1779    4.2796 C   0  0  1  0  0  0  0  0  0  0  0  0
    0.6389   -9.3096    3.0860 C   0  0  0  0  0  0  0  0  0  0  0  0
    2.9823   -9.7827    3.9335 C   0  0  1  0  0  0  0  0  0  0  0  0
    3.5453   -9.1045    2.8226 O   0  0  0  0  0  0  0  0  0  0  0  0
    3.9934   -9.8126    5.0954 C   0  0  0  0  0  0  0  0  0  0  0  0
    4.7670  -10.9452    5.2535 C   0  0  0  0  0  0  0  0  0  0  0  0
    4.5362  -12.2703    4.5199 C   0  0  0  0  0  0  0  0  0  0  0  0
    5.4223  -12.4455    3.2717 C   0  0  0  0  0  0  0  0  0  0  0  0
    6.9204  -12.6573    3.5788 C   0  0  1  0  0  0  0  0  0  0  0  0
    7.5285  -13.1946    2.4239 O   0  0  0  0  0  0  0  0  0  0  0  0
    7.7446  -11.3977    3.9464 C   0  0  0  0  0  0  0  0  0  0  0  0
    7.0810  -10.4403    4.9191 C   0  0  0  0  0  0  0  0  0  0  0  0
    7.1750   -9.1134    4.8034 C   0  0  0  0  0  0  0  0  0  0  0  0
    6.6615   -7.8257    5.2981 C   0  0  2  0  0  0  0  0  0  0  0  0
    5.1725   -7.4985    5.1235 C   0  0  0  0  0  0  0  0  0  0  0  0
    4.1391   -8.4325    5.8577 C   0  0  2  0  0  0  0  0  0  0  0  0
    4.5510   -8.6684    7.3361 C   0  0  0  0  0  0  0  0  0  0  0  0
    5.2292   -7.8566    7.9729 O   0  0  0  0  0  0  0  0  0  0  0  0
    2.7259   -7.7092    6.0140 C   0  0  1  0  0  0  0  0  0  0  0  0
    2.7768   -6.2667    6.6053 C   0  0  0  0  0  0  0  0  0  0  0  0
    7.6765   -7.9261    4.0871 C   0  0  0  0  0  0  0  0  0  0  0  0
    9.1040   -7.4715    4.3163 C   0  0  0  0  0  0  0  0  0  0  0  0
    7.2245   -7.7206    2.6583 C   0  0  0  0  0  0  0  0  0  0  0  0
    6.1261  -11.0111    5.9420 C   0  0  0  0  0  0  0  0  0  0  0  0
   -1.4298   -8.7848    1.2815 H   0  0  0  0  0  0  0  0  0  0  0  0
   -2.5822   -8.1468    2.4524 H   0  0  0  0  0  0  0  0  0  0  0  0
   -2.1239   -9.8549    2.5102 H   0  0  0  0  0  0  0  0  0  0  0  0
   -1.6401   -6.9533    4.2492 H   0  0  0  0  0  0  0  0  0  0  0  0
    0.4790   -6.0080    5.0296 H   0  0  0  0  0  0  0  0  0  0  0  0
    0.0666   -7.3545    6.0877 H   0  0  0  0  0  0  0  0  0  0  0  0
    2.2431   -7.1469    3.9732 H   0  0  0  0  0  0  0  0  0  0  0  0
    1.1981   -9.7642    5.0973 H   0  0  0  0  0  0  0  0  0  0  0  0
    0.3677  -10.3579    2.9610 H   0  0  0  0  0  0  0  0  0  0  0  0
    1.0953   -8.9891    2.1483 H   0  0  0  0  0  0  0  0  0  0  0  0
    2.7585  -10.7649    3.5392 H   0  0  0  0  0  0  0  0  0  0  0  0
    3.9763   -9.7459    2.2738 H   0  0  0  0  0  0  0  0  0  0  0  0
    4.7448  -13.0789    5.2219 H   0  0  0  0  0  0  0  0  0  0  0  0
    3.4938  -12.4502    4.2789 H   0  0  0  0  0  0  0  0  0  0  0  0
    5.0492  -13.3338    2.7624 H   0  0  0  0  0  0  0  0  0  0  0  0
    5.2853  -11.6238    2.5702 H   0  0  0  0  0  0  0  0  0  0  0  0
    7.0106  -13.4091    4.3697 H   0  0  0  0  0  0  0  0  0  0  0  0
    6.9495  -13.8556    2.0712 H   0  0  0  0  0  0  0  0  0  0  0  0
    8.7037  -11.7079    4.3641 H   0  0  0  0  0  0  0  0  0  0  0  0
    7.9666  -10.8377    3.0346 H   0  0  0  0  0  0  0  0  0  0  0  0
    7.0732   -7.4362    6.2252 H   0  0  0  0  0  0  0  0  0  0  0  0
    5.0752   -6.4692    5.4739 H   0  0  0  0  0  0  0  0  0  0  0  0
    4.9407   -7.4430    4.0631 H   0  0  0  0  0  0  0  0  0  0  0  0
    4.1705   -9.5776    7.7945 H   0  0  0  0  0  0  0  0  0  0  0  0
    2.1838   -8.2922    6.7612 H   0  0  0  0  0  0  0  0  0  0  0  0
    3.0583   -5.5341    5.8482 H   0  0  0  0  0  0  0  0  0  0  0  0
    3.4649   -6.1547    7.4410 H   0  0  0  0  0  0  0  0  0  0  0  0
    1.8052   -5.9637    6.9977 H   0  0  0  0  0  0  0  0  0  0  0  0
    9.1935   -6.4006    4.1313 H   0  0  0  0  0  0  0  0  0  0  0  0
    9.7871   -7.9948    3.6495 H   0  0  0  0  0  0  0  0  0  0  0  0
    9.4081   -7.6650    5.3447 H   0  0  0  0  0  0  0  0  0  0  0  0
    7.0321   -6.6611    2.4791 H   0  0  0  0  0  0  0  0  0  0  0  0
    6.3078   -8.2814    2.4768 H   0  0  0  0  0  0  0  0  0  0  0  0
    7.9848   -8.0748    1.9626 H   0  0  0  0  0  0  0  0  0  0  0  0
    6.2141  -10.4407    6.8576 H   0  0  0  0  0  0  0  0  0  0  0  0
    6.4004  -12.0273    6.2295 H   0  0  0  0  0  0  0  0  0  0  0  0
  1  2  1  0
  1 30  1  0
  1 31  1  0
  1 32  1  0
  2  7  1  0
  2  3  2  0
  3  4  1  0
  3 33  1  0
  4  5  1  0
  4 34  1  0
  4 35  1  0
  5 24  1  0
  5  6  1  0
  5 36  1  6
  6  7  1  0
  6  8  1  0
  6 37  1  1
  7 38  1  0
  7 39  1  0
  8  9  1  0
  8 10  1  0
  8 40  1  6
  9 41  1  0
 10 21  1  0
 10 11  2  3
 11 29  1  0
 11 12  1  0
 12 13  1  0
 12 42  1  0
 12 43  1  0
 13 14  1  0
 13 44  1  0
 13 45  1  0
 14 15  1  0
 14 16  1  0
 14 46  1  1
 15 47  1  0
 16 17  1  0
 16 48  1  0
 16 49  1  0
 17 18  2  3
 17 29  1  0
 18 26  1  0
 18 19  1  0
 19 20  1  0
 19 26  1  0
 19 50  1  1
 20 21  1  0
 20 51  1  0
 20 52  1  0
 21 22  1  1
 21 24  1  0
 22 23  2  0
 22 53  1  0
 24 25  1  0
 24 54  1  1
 25 55  1  0
 25 56  1  0
 25 57  1  0
 26 27  1  0
 26 28  1  0
 27 58  1  0
 27 59  1  0
 27 60  1  0
 28 61  1  0
 28 62  1  0
 28 63  1  0
 29 64  1  0
 29 65  1  0
M  END
>  <i_m_ct_stereo_status>  (420) 
1

>  <s_m_source_file>  (420) 
/var/tmp/pbs.5076255.sched01/tmp0i_w_vt9/132llf9lao3.sdf

>  <i_m_source_file_index>  (420) 
38

>  <i_lp_mmshare_version>  (420) 
48012

>  <i_f3d_flags>  (420) 
0

>  <s_epik_input>  (420) 
W0NIM11DKFtDSDJdMSk9W0NIXVtDSDJdW0NAQEhdKFtDQEBIXTJbQ0gzXSlbQ0BASF0xW0NAQEhdKFtPSF0pQyhbQ0BdMjNbQ0hdPU8pPUM0W0NIMl1bQ0gyXVtDQEBIXShbT0hdKVtDSDJdQyhbQ0gyXTQpPUM1W0NIXShbQ0gyXTMpQzUoW0NIM10pW0NIM10=

>  <s_epik_cmdline>  (420) 
J2VwaWtfcHl0aG9uJywgJy1waHQnLCAnMi4wJywgJy1waCcsICc3LjAnLCAnLXRuJywgJzgnLCAnLW1hJywgJzIwMCcsICctaW1hZScsICc8aW5maWxlLm1hZT4nLCAnLW9tYWUnLCAnPG91dGZpbGUubWFlPic=

>  <r_lp_tautomer_probability>  (420) 
1

>  <r_epik_Ionization_Penalty>  (420) 
2.98559e-07

>  <r_epik_Ionization_Penalty_Charging>  (420) 
0

>  <r_epik_Ionization_Penalty_Neutral>  (420) 
2.98559e-07

>  <r_epik_State_Penalty>  (420) 
-0

>  <r_epik_Charging_Adjusted_Penalty>  (420) 
0

>  <i_epik_Tot_Q>  (420) 
0

>  <i_epik_Tot_abs_Q>  (420) 
0

>  <s_lp_Force_Field>  (420) 
OPLS3e

>  <r_lp_Energy>  (420) 
56.1567

>  <b_lp_Chiralities_Consistent>  (420) 
1

>  <s_lp_Variant>  (420) 
115:0-1

>  <s_i_glide_gridfile>  (420) 
pfpi4k_grid

>  <i_i_glide_lignum>  (420) 
38

>  <i_i_glide_rotatable_bonds>  (420) 
3

>  <r_i_docking_score>  (420) 
-2.60644

>  <r_i_glide_ligand_efficiency>  (420) 
-0.0898772

>  <r_i_glide_ligand_efficiency_sa>  (420) 
-0.276131

>  <r_i_glide_ligand_efficiency_ln>  (420) 
-0.596808

>  <r_i_glide_gscore>  (420) 
-2.60644

>  <r_i_glide_lipo>  (420) 
-0.269666

>  <r_i_glide_hbond>  (420) 
0

>  <r_i_glide_metal>  (420) 
-0

>  <r_i_glide_rewards>  (420) 
-0.705257

>  <r_i_glide_evdw>  (420) 
-25.4389

>  <r_i_glide_ecoul>  (420) 
-2.38205

>  <r_i_glide_erotb>  (420) 
0

>  <r_i_glide_esite>  (420) 
-0.00226231

>  <r_i_glide_emodel>  (420) 
-31.3074

>  <r_i_glide_energy>  (420) 
-27.8209

>  <r_i_glide_einternal>  (420) 
1.97732

>  <r_i_glide_intrahb_reward>  (420) 
-0

>  <i_i_glide_confnum>  (420) 
1

>  <i_i_glide_posenum>  (420) 
30

>  <r_i_glide_eff_state_penalty>  (420) 
0

>  <ligand_id>  (420) 
115

>  <original_smiles>  (420) 
CC1=CCC2C(C1)C(O)C1=C3CCC(O)CC(=C4C(CC1(C=O)C2C)C4(C)C)C3

>  <smiles>  (420) 
[H]OC1([H])C2=C3C([H])([H])C(=C4C([H])(C([H])([H])C2(C([H])=O)C([H])(C([H])([H])[H])C2([H])C([H])([H])C([H])=C(C([H])([H])[H])C([H])([H])C12[H])C4(C([H])([H])[H])C([H])([H])[H])C([H])([H])C([H])(O[H])C([H])([H])C3([H])[H]

$$$$
115:1:0
     RDKit          3D

 65 69  0  0  1  0  0  0  0  0999 V2000
   -1.6714   -9.1821    2.3256 C   0  0  0  0  0  0  0  0  0  0  0  0
   -0.6397   -8.2996    2.9900 C   0  0  0  0  0  0  0  0  0  0  0  0
   -0.6997   -8.0034    4.2930 C   0  0  0  0  0  0  0  0  0  0  0  0
    0.2958   -7.1214    5.0138 C   0  0  0  0  0  0  0  0  0  0  0  0
    1.2948   -6.3444    4.1066 C   0  0  2  0  0  0  0  0  0  0  0  0
    1.6736   -7.1647    2.8627 C   0  0  1  0  0  0  0  0  0  0  0  0
    0.4526   -7.7509    2.0985 C   0  0  0  0  0  0  0  0  0  0  0  0
    2.6009   -6.3761    1.9248 C   0  0  1  0  0  0  0  0  0  0  0  0
    1.8223   -5.4469    1.1883 O   0  0  0  0  0  0  0  0  0  0  0  0
    3.8198   -5.6502    2.5321 C   0  0  0  0  0  0  0  0  0  0  0  0
    4.8148   -5.2695    1.6513 C   0  0  0  0  0  0  0  0  0  0  0  0
    4.8646   -5.5408    0.1254 C   0  0  0  0  0  0  0  0  0  0  0  0
    4.9448   -4.2717   -0.7941 C   0  0  0  0  0  0  0  0  0  0  0  0
    6.2244   -3.3707   -0.7138 C   0  0  1  0  0  0  0  0  0  0  0  0
    6.3641   -2.6107   -1.9030 O   0  0  0  0  0  0  0  0  0  0  0  0
    6.2601   -2.3644    0.4702 C   0  0  0  0  0  0  0  0  0  0  0  0
    5.5817   -2.9797    1.6645 C   0  0  0  0  0  0  0  0  0  0  0  0
    4.5245   -2.4466    2.2798 C   0  0  0  0  0  0  0  0  0  0  0  0
    3.2756   -2.8899    2.9222 C   0  0  1  0  0  0  0  0  0  0  0  0
    3.4711   -3.6309    4.2217 C   0  0  0  0  0  0  0  0  0  0  0  0
    3.7142   -5.2063    4.0616 C   0  0  2  0  0  0  0  0  0  0  0  0
    5.0010   -5.6674    4.8135 C   0  0  0  0  0  0  0  0  0  0  0  0
    5.7722   -4.8821    5.3811 O   0  0  0  0  0  0  0  0  0  0  0  0
    2.6034   -6.0129    4.8691 C   0  0  1  0  0  0  0  0  0  0  0  0
    2.3277   -5.4679    6.3011 C   0  0  0  0  0  0  0  0  0  0  0  0
    3.5456   -1.3789    2.5209 C   0  0  0  0  0  0  0  0  0  0  0  0
    3.8705   -0.3595    3.5904 C   0  0  0  0  0  0  0  0  0  0  0  0
    2.8210   -0.7765    1.3451 C   0  0  0  0  0  0  0  0  0  0  0  0
    6.0008   -4.3932    1.9855 C   0  0  0  0  0  0  0  0  0  0  0  0
   -2.1299   -8.6577    1.4946 H   0  0  0  0  0  0  0  0  0  0  0  0
   -2.4590   -9.4636    3.0243 H   0  0  0  0  0  0  0  0  0  0  0  0
   -1.2103  -10.0938    1.9436 H   0  0  0  0  0  0  0  0  0  0  0  0
   -1.4850   -8.4325    4.8980 H   0  0  0  0  0  0  0  0  0  0  0  0
   -0.2727   -6.4160    5.6242 H   0  0  0  0  0  0  0  0  0  0  0  0
    0.8210   -7.7942    5.6954 H   0  0  0  0  0  0  0  0  0  0  0  0
    0.8123   -5.4187    3.7864 H   0  0  0  0  0  0  0  0  0  0  0  0
    2.2429   -8.0293    3.2101 H   0  0  0  0  0  0  0  0  0  0  0  0
    0.8105   -8.5439    1.4447 H   0  0  0  0  0  0  0  0  0  0  0  0
   -0.0364   -7.0152    1.4606 H   0  0  0  0  0  0  0  0  0  0  0  0
    2.9540   -7.1157    1.2095 H   0  0  0  0  0  0  0  0  0  0  0  0
    2.3994   -4.9748    0.6146 H   0  0  0  0  0  0  0  0  0  0  0  0
    5.7435   -6.1612   -0.0471 H   0  0  0  0  0  0  0  0  0  0  0  0
    4.0275   -6.1317   -0.2387 H   0  0  0  0  0  0  0  0  0  0  0  0
    4.8923   -4.6590   -1.8147 H   0  0  0  0  0  0  0  0  0  0  0  0
    4.0518   -3.6615   -0.6635 H   0  0  0  0  0  0  0  0  0  0  0  0
    7.1023   -4.0204   -0.6662 H   0  0  0  0  0  0  0  0  0  0  0  0
    6.4363   -3.2043   -2.6338 H   0  0  0  0  0  0  0  0  0  0  0  0
    7.2929   -2.1219    0.7178 H   0  0  0  0  0  0  0  0  0  0  0  0
    5.7460   -1.4321    0.2099 H   0  0  0  0  0  0  0  0  0  0  0  0
    2.4459   -3.2872    2.3507 H   0  0  0  0  0  0  0  0  0  0  0  0
    4.2704   -3.1297    4.7701 H   0  0  0  0  0  0  0  0  0  0  0  0
    2.5707   -3.4235    4.8008 H   0  0  0  0  0  0  0  0  0  0  0  0
    5.1487   -6.7416    4.8876 H   0  0  0  0  0  0  0  0  0  0  0  0
    3.0136   -7.0057    5.0662 H   0  0  0  0  0  0  0  0  0  0  0  0
    1.5883   -4.6681    6.2999 H   0  0  0  0  0  0  0  0  0  0  0  0
    3.2254   -5.0903    6.7918 H   0  0  0  0  0  0  0  0  0  0  0  0
    1.9427   -6.2504    6.9553 H   0  0  0  0  0  0  0  0  0  0  0  0
    2.9555    0.0366    4.0391 H   0  0  0  0  0  0  0  0  0  0  0  0
    4.4407    0.4645    3.1626 H   0  0  0  0  0  0  0  0  0  0  0  0
    4.4751   -0.8143    4.3818 H   0  0  0  0  0  0  0  0  0  0  0  0
    1.8489   -0.3936    1.6598 H   0  0  0  0  0  0  0  0  0  0  0  0
    2.6480   -1.5397    0.5875 H   0  0  0  0  0  0  0  0  0  0  0  0
    3.3971    0.0339    0.9055 H   0  0  0  0  0  0  0  0  0  0  0  0
    6.2542   -4.4041    3.0279 H   0  0  0  0  0  0  0  0  0  0  0  0
    6.8935   -4.7083    1.4475 H   0  0  0  0  0  0  0  0  0  0  0  0
  1  2  1  0
  1 30  1  0
  1 31  1  0
  1 32  1  0
  2  7  1  0
  2  3  2  0
  3  4  1  0
  3 33  1  0
  4  5  1  0
  4 34  1  0
  4 35  1  0
  5 24  1  0
  5  6  1  0
  5 36  1  6
  6  7  1  0
  6  8  1  0
  6 37  1  1
  7 38  1  0
  7 39  1  0
  8  9  1  0
  8 10  1  0
  8 40  1  6
  9 41  1  0
 10 21  1  0
 10 11  2  3
 11 29  1  0
 11 12  1  0
 12 13  1  0
 12 42  1  0
 12 43  1  0
 13 14  1  0
 13 44  1  0
 13 45  1  0
 14 15  1  0
 14 16  1  0
 14 46  1  1
 15 47  1  0
 16 17  1  0
 16 48  1  0
 16 49  1  0
 17 18  2  3
 17 29  1  0
 18 26  1  0
 18 19  1  0
 19 20  1  0
 19 26  1  0
 19 50  1  6
 20 21  1  0
 20 51  1  0
 20 52  1  0
 21 22  1  1
 21 24  1  0
 22 23  2  0
 22 53  1  0
 24 25  1  0
 24 54  1  1
 25 55  1  0
 25 56  1  0
 25 57  1  0
 26 27  1  0
 26 28  1  0
 27 58  1  0
 27 59  1  0
 27 60  1  0
 28 61  1  0
 28 62  1  0
 28 63  1  0
 29 64  1  0
 29 65  1  0
M  END
>  <i_m_ct_stereo_status>  (421) 
1

>  <s_m_source_file>  (421) 
/var/tmp/pbs.5076255.sched01/tmp0i_w_vt9/132llf9lao3.sdf

>  <i_m_source_file_index>  (421) 
39

>  <i_lp_mmshare_version>  (421) 
48012

>  <i_f3d_flags>  (421) 
0

>  <s_epik_input>  (421) 
W0NIM11DKFtDSDJdMSk9W0NIXVtDSDJdW0NAQEhdKFtDQEBIXTJbQ0gzXSlbQ0BASF0xW0NAQEhdKFtPSF0pQyhbQ0BdMjNbQ0hdPU8pPUM0W0NIMl1bQ0gyXVtDQEBIXShbT0hdKVtDSDJdQyhbQ0gyXTQpPUM1W0NIXShbQ0gyXTMpQzUoW0NIM10pW0NIM10=

>  <s_epik_cmdline>  (421) 
J2VwaWtfcHl0aG9uJywgJy1waHQnLCAnMi4wJywgJy1waCcsICc3LjAnLCAnLXRuJywgJzgnLCAnLW1hJywgJzIwMCcsICctaW1hZScsICc8aW5maWxlLm1hZT4nLCAnLW9tYWUnLCAnPG91dGZpbGUubWFlPic=

>  <r_lp_tautomer_probability>  (421) 
1

>  <r_epik_Ionization_Penalty>  (421) 
2.98559e-07

>  <r_epik_Ionization_Penalty_Charging>  (421) 
0

>  <r_epik_Ionization_Penalty_Neutral>  (421) 
2.98559e-07

>  <r_epik_State_Penalty>  (421) 
-0

>  <r_epik_Charging_Adjusted_Penalty>  (421) 
0

>  <i_epik_Tot_Q>  (421) 
0

>  <i_epik_Tot_abs_Q>  (421) 
0

>  <s_lp_Force_Field>  (421) 
OPLS3e

>  <r_lp_Energy>  (421) 
79.8554

>  <b_lp_Chiralities_Consistent>  (421) 
1

>  <s_lp_Variant>  (421) 
115:0-2

>  <s_i_glide_gridfile>  (421) 
pfpi4k_grid

>  <i_i_glide_lignum>  (421) 
39

>  <i_i_glide_rotatable_bonds>  (421) 
3

>  <r_i_docking_score>  (421) 
-3.53589

>  <r_i_glide_ligand_efficiency>  (421) 
-0.121927

>  <r_i_glide_ligand_efficiency_sa>  (421) 
-0.374599

>  <r_i_glide_ligand_efficiency_ln>  (421) 
-0.809629

>  <r_i_glide_gscore>  (421) 
-3.53589

>  <r_i_glide_lipo>  (421) 
-0.70233

>  <r_i_glide_hbond>  (421) 
-0.0832582

>  <r_i_glide_metal>  (421) 
-0

>  <r_i_glide_rewards>  (421) 
-0.705257

>  <r_i_glide_evdw>  (421) 
-29.0067

>  <r_i_glide_ecoul>  (421) 
-3.96474

>  <r_i_glide_erotb>  (421) 
0

>  <r_i_glide_esite>  (421) 
0

>  <r_i_glide_emodel>  (421) 
-39.4166

>  <r_i_glide_energy>  (421) 
-32.9714

>  <r_i_glide_einternal>  (421) 
1.3644

>  <r_i_glide_intrahb_reward>  (421) 
-0

>  <i_i_glide_confnum>  (421) 
1

>  <i_i_glide_posenum>  (421) 
39

>  <r_i_glide_eff_state_penalty>  (421) 
0

>  <ligand_id>  (421) 
115

>  <original_smiles>  (421) 
CC1=CCC2C(C1)C(O)C1=C3CCC(O)CC(=C4C(CC1(C=O)C2C)C4(C)C)C3

>  <smiles>  (421) 
[H]OC1([H])C2=C3C([H])([H])C(=C4C([H])(C([H])([H])C2(C([H])=O)C([H])(C([H])([H])[H])C2([H])C([H])([H])C([H])=C(C([H])([H])[H])C([H])([H])C12[H])C4(C([H])([H])[H])C([H])([H])[H])C([H])([H])C([H])(O[H])C([H])([H])C3([H])[H]

$$$$
115:1:1
     RDKit          3D

 65 69  0  0  1  0  0  0  0  0999 V2000
   -1.6424   -9.0896    2.4485 C   0  0  0  0  0  0  0  0  0  0  0  0
   -0.5279   -8.2956    3.0974 C   0  0  0  0  0  0  0  0  0  0  0  0
   -0.4442   -8.1367    4.4155 C   0  0  0  0  0  0  0  0  0  0  0  0
    0.6416   -7.3506    5.1193 C   0  0  0  0  0  0  0  0  0  0  0  0
    1.5639   -6.4991    4.1950 C   0  0  2  0  0  0  0  0  0  0  0  0
    1.7922   -7.1929    2.8464 C   0  0  1  0  0  0  0  0  0  0  0  0
    0.4878   -7.6754    2.1531 C   0  0  0  0  0  0  0  0  0  0  0  0
    2.6440   -6.3231    1.9046 C   0  0  1  0  0  0  0  0  0  0  0  0
    1.8218   -5.3177    1.3564 O   0  0  0  0  0  0  0  0  0  0  0  0
    3.9316   -5.6843    2.4636 C   0  0  0  0  0  0  0  0  0  0  0  0
    4.8551   -5.2255    1.5162 C   0  0  0  0  0  0  0  0  0  0  0  0
    4.7366   -5.3453   -0.0116 C   0  0  0  0  0  0  0  0  0  0  0  0
    4.7528   -3.9981   -0.8190 C   0  0  0  0  0  0  0  0  0  0  0  0
    6.0512   -3.1266   -0.7895 C   0  0  1  0  0  0  0  0  0  0  0  0
    6.0732   -2.2620   -1.9032 O   0  0  0  0  0  0  0  0  0  0  0  0
    6.2310   -2.2487    0.4840 C   0  0  0  0  0  0  0  0  0  0  0  0
    5.6655   -2.9684    1.6709 C   0  0  0  0  0  0  0  0  0  0  0  0
    4.6847   -2.4819    2.4490 C   0  0  0  0  0  0  0  0  0  0  0  0
    3.4970   -2.9684    3.1546 C   0  0  1  0  0  0  0  0  0  0  0  0
    3.8033   -3.8387    4.3588 C   0  0  0  0  0  0  0  0  0  0  0  0
    3.9904   -5.3915    4.0188 C   0  0  2  0  0  0  0  0  0  0  0  0
    5.3457   -5.9404    4.5837 C   0  0  0  0  0  0  0  0  0  0  0  0
    6.1729   -5.2432    5.1684 O   0  0  0  0  0  0  0  0  0  0  0  0
    2.9525   -6.2621    4.8523 C   0  0  1  0  0  0  0  0  0  0  0  0
    2.8326   -5.8615    6.3518 C   0  0  0  0  0  0  0  0  0  0  0  0
    3.7590   -1.4314    2.8824 C   0  0  0  0  0  0  0  0  0  0  0  0
    4.2172   -0.5282    4.0062 C   0  0  0  0  0  0  0  0  0  0  0  0
    2.9275   -0.7025    1.8484 C   0  0  0  0  0  0  0  0  0  0  0  0
    6.0845   -4.4121    1.8100 C   0  0  0  0  0  0  0  0  0  0  0  0
   -2.1786   -8.4824    1.7212 H   0  0  0  0  0  0  0  0  0  0  0  0
   -2.3566   -9.4457    3.1954 H   0  0  0  0  0  0  0  0  0  0  0  0
   -1.2414   -9.9634    1.9324 H   0  0  0  0  0  0  0  0  0  0  0  0
   -1.1767   -8.6105    5.0627 H   0  0  0  0  0  0  0  0  0  0  0  0
    0.1552   -6.7003    5.8468 H   0  0  0  0  0  0  0  0  0  0  0  0
    1.2149   -8.0933    5.6761 H   0  0  0  0  0  0  0  0  0  0  0  0
    1.0739   -5.5384    4.0204 H   0  0  0  0  0  0  0  0  0  0  0  0
    2.3722   -8.0933    3.0472 H   0  0  0  0  0  0  0  0  0  0  0  0
    0.7566   -8.4011    1.3906 H   0  0  0  0  0  0  0  0  0  0  0  0
   -0.0414   -6.8692    1.6522 H   0  0  0  0  0  0  0  0  0  0  0  0
    2.9040   -6.9958    1.0907 H   0  0  0  0  0  0  0  0  0  0  0  0
    2.3594   -4.7967    0.7694 H   0  0  0  0  0  0  0  0  0  0  0  0
    5.5762   -5.9633   -0.3397 H   0  0  0  0  0  0  0  0  0  0  0  0
    3.8530   -5.8856   -0.3331 H   0  0  0  0  0  0  0  0  0  0  0  0
    4.5974   -4.2883   -1.8581 H   0  0  0  0  0  0  0  0  0  0  0  0
    3.8864   -3.3930   -0.5437 H   0  0  0  0  0  0  0  0  0  0  0  0
    6.9160   -3.7897   -0.9022 H   0  0  0  0  0  0  0  0  0  0  0  0
    5.2223   -1.8308   -1.9463 H   0  0  0  0  0  0  0  0  0  0  0  0
    7.2943   -2.0454    0.6447 H   0  0  0  0  0  0  0  0  0  0  0  0
    5.7205   -1.2824    0.3792 H   0  0  0  0  0  0  0  0  0  0  0  0
    2.6035   -3.2947    2.6440 H   0  0  0  0  0  0  0  0  0  0  0  0
    4.6579   -3.3994    4.8658 H   0  0  0  0  0  0  0  0  0  0  0  0
    2.9682   -3.6776    5.0410 H   0  0  0  0  0  0  0  0  0  0  0  0
    5.4738   -7.0210    4.5194 H   0  0  0  0  0  0  0  0  0  0  0  0
    3.3565   -7.2755    4.9073 H   0  0  0  0  0  0  0  0  0  0  0  0
    2.1166   -5.0563    6.5040 H   0  0  0  0  0  0  0  0  0  0  0  0
    3.7844   -5.5467    6.7811 H   0  0  0  0  0  0  0  0  0  0  0  0
    2.4964   -6.6997    6.9611 H   0  0  0  0  0  0  0  0  0  0  0  0
    3.3645   -0.1650    4.5855 H   0  0  0  0  0  0  0  0  0  0  0  0
    4.7658    0.3276    3.6088 H   0  0  0  0  0  0  0  0  0  0  0  0
    4.8881   -1.0714    4.6813 H   0  0  0  0  0  0  0  0  0  0  0  0
    2.0119   -0.3351    2.3086 H   0  0  0  0  0  0  0  0  0  0  0  0
    2.6563   -1.3809    1.0487 H   0  0  0  0  0  0  0  0  0  0  0  0
    3.4795    0.1358    1.4328 H   0  0  0  0  0  0  0  0  0  0  0  0
    6.4841   -4.5357    2.8002 H   0  0  0  0  0  0  0  0  0  0  0  0
    6.9160   -4.6831    1.1432 H   0  0  0  0  0  0  0  0  0  0  0  0
  1  2  1  0
  1 30  1  0
  1 31  1  0
  1 32  1  0
  2  7  1  0
  2  3  2  0
  3  4  1  0
  3 33  1  0
  4  5  1  0
  4 34  1  0
  4 35  1  0
  5 24  1  0
  5  6  1  0
  5 36  1  6
  6  7  1  0
  6  8  1  0
  6 37  1  1
  7 38  1  0
  7 39  1  0
  8  9  1  0
  8 10  1  0
  8 40  1  6
  9 41  1  0
 10 21  1  0
 10 11  2  3
 11 29  1  0
 11 12  1  0
 12 13  1  0
 12 42  1  0
 12 43  1  0
 13 14  1  0
 13 44  1  0
 13 45  1  0
 14 15  1  0
 14 16  1  0
 14 46  1  6
 15 47  1  0
 16 17  1  0
 16 48  1  0
 16 49  1  0
 17 18  2  3
 17 29  1  0
 18 26  1  0
 18 19  1  0
 19 20  1  0
 19 26  1  0
 19 50  1  6
 20 21  1  0
 20 51  1  0
 20 52  1  0
 21 22  1  1
 21 24  1  0
 22 23  2  0
 22 53  1  0
 24 25  1  0
 24 54  1  1
 25 55  1  0
 25 56  1  0
 25 57  1  0
 26 27  1  0
 26 28  1  0
 27 58  1  0
 27 59  1  0
 27 60  1  0
 28 61  1  0
 28 62  1  0
 28 63  1  0
 29 64  1  0
 29 65  1  0
M  END
>  <i_m_ct_stereo_status>  (422) 
1

>  <s_m_source_file>  (422) 
/var/tmp/pbs.5076255.sched01/tmp0i_w_vt9/132llf9lao3.sdf

>  <i_m_source_file_index>  (422) 
39

>  <i_lp_mmshare_version>  (422) 
48012

>  <i_f3d_flags>  (422) 
0

>  <s_epik_input>  (422) 
W0NIM11DKFtDSDJdMSk9W0NIXVtDSDJdW0NAQEhdKFtDQEBIXTJbQ0gzXSlbQ0BASF0xW0NAQEhdKFtPSF0pQyhbQ0BdMjNbQ0hdPU8pPUM0W0NIMl1bQ0gyXVtDQEBIXShbT0hdKVtDSDJdQyhbQ0gyXTQpPUM1W0NIXShbQ0gyXTMpQzUoW0NIM10pW0NIM10=

>  <s_epik_cmdline>  (422) 
J2VwaWtfcHl0aG9uJywgJy1waHQnLCAnMi4wJywgJy1waCcsICc3LjAnLCAnLXRuJywgJzgnLCAnLW1hJywgJzIwMCcsICctaW1hZScsICc8aW5maWxlLm1hZT4nLCAnLW9tYWUnLCAnPG91dGZpbGUubWFlPic=

>  <r_lp_tautomer_probability>  (422) 
1

>  <r_epik_Ionization_Penalty>  (422) 
2.98559e-07

>  <r_epik_Ionization_Penalty_Charging>  (422) 
0

>  <r_epik_Ionization_Penalty_Neutral>  (422) 
2.98559e-07

>  <r_epik_State_Penalty>  (422) 
-0

>  <r_epik_Charging_Adjusted_Penalty>  (422) 
0

>  <i_epik_Tot_Q>  (422) 
0

>  <i_epik_Tot_abs_Q>  (422) 
0

>  <s_lp_Force_Field>  (422) 
OPLS3e

>  <r_lp_Energy>  (422) 
79.8554

>  <b_lp_Chiralities_Consistent>  (422) 
1

>  <s_lp_Variant>  (422) 
115:0-2

>  <s_i_glide_gridfile>  (422) 
pfpi4k_grid

>  <i_i_glide_lignum>  (422) 
39

>  <i_i_glide_rotatable_bonds>  (422) 
3

>  <r_i_docking_score>  (422) 
-3.35578

>  <r_i_glide_ligand_efficiency>  (422) 
-0.115716

>  <r_i_glide_ligand_efficiency_sa>  (422) 
-0.355518

>  <r_i_glide_ligand_efficiency_ln>  (422) 
-0.768388

>  <r_i_glide_gscore>  (422) 
-3.35578

>  <r_i_glide_lipo>  (422) 
-0.578984

>  <r_i_glide_hbond>  (422) 
-0.0988919

>  <r_i_glide_metal>  (422) 
-0

>  <r_i_glide_rewards>  (422) 
-0.705257

>  <r_i_glide_evdw>  (422) 
-28.6649

>  <r_i_glide_ecoul>  (422) 
-3.596

>  <r_i_glide_erotb>  (422) 
0

>  <r_i_glide_esite>  (422) 
0

>  <r_i_glide_emodel>  (422) 
-38.4888

>  <r_i_glide_energy>  (422) 
-32.2609

>  <r_i_glide_einternal>  (422) 
1.22364

>  <r_i_glide_intrahb_reward>  (422) 
-0

>  <i_i_glide_confnum>  (422) 
2

>  <i_i_glide_posenum>  (422) 
19

>  <r_i_glide_eff_state_penalty>  (422) 
0

>  <ligand_id>  (422) 
115

>  <original_smiles>  (422) 
CC1=CCC2C(C1)C(O)C1=C3CCC(O)CC(=C4C(CC1(C=O)C2C)C4(C)C)C3

>  <smiles>  (422) 
[H]OC1([H])C2=C3C([H])([H])C(=C4C([H])(C([H])([H])C2(C([H])=O)C([H])(C([H])([H])[H])C2([H])C([H])([H])C([H])=C(C([H])([H])[H])C([H])([H])C12[H])C4(C([H])([H])[H])C([H])([H])[H])C([H])([H])C([H])(O[H])C([H])([H])C3([H])[H]

$$$$
115:1:2
     RDKit          3D

 65 69  0  0  1  0  0  0  0  0999 V2000
    3.8651   -1.8007   -0.8964 C   0  0  0  0  0  0  0  0  0  0  0  0
    3.4830   -1.5914    0.5573 C   0  0  0  0  0  0  0  0  0  0  0  0
    3.2853   -2.6112    1.4017 C   0  0  0  0  0  0  0  0  0  0  0  0
    2.8787   -2.4472    2.8496 C   0  0  0  0  0  0  0  0  0  0  0  0
    2.4330   -1.0182    3.2797 C   0  0  2  0  0  0  0  0  0  0  0  0
    3.2109    0.0651    2.5258 C   0  0  1  0  0  0  0  0  0  0  0  0
    3.2798   -0.1570    0.9937 C   0  0  0  0  0  0  0  0  0  0  0  0
    2.6778    1.4726    2.8776 C   0  0  1  0  0  0  0  0  0  0  0  0
    1.4589    1.7128    2.1938 O   0  0  0  0  0  0  0  0  0  0  0  0
    2.5198    1.8290    4.3663 C   0  0  0  0  0  0  0  0  0  0  0  0
    2.4603    3.1722    4.6868 C   0  0  0  0  0  0  0  0  0  0  0  0
    2.6052    4.3688    3.7135 C   0  0  0  0  0  0  0  0  0  0  0  0
    1.3744    5.3288    3.6189 C   0  0  0  0  0  0  0  0  0  0  0  0
    1.0078    6.1741    4.8712 C   0  0  1  0  0  0  0  0  0  0  0  0
    0.1911    7.2713    4.4983 O   0  0  0  0  0  0  0  0  0  0  0  0
    0.1946    5.4077    5.9618 C   0  0  0  0  0  0  0  0  0  0  0  0
    0.6107    3.9647    6.0108 C   0  0  0  0  0  0  0  0  0  0  0  0
   -0.2161    2.9316    5.7935 C   0  0  0  0  0  0  0  0  0  0  0  0
   -0.1893    1.6195    5.1315 C   0  0  1  0  0  0  0  0  0  0  0  0
    0.6816    0.5993    5.8133 C   0  0  0  0  0  0  0  0  0  0  0  0
    2.2109    0.6299    5.3567 C   0  0  2  0  0  0  0  0  0  0  0  0
    3.1444    0.7894    6.5916 C   0  0  0  0  0  0  0  0  0  0  0  0
    2.8231    0.4249    7.7241 O   0  0  0  0  0  0  0  0  0  0  0  0
    2.6508   -0.7932    4.7985 C   0  0  1  0  0  0  0  0  0  0  0  0
    2.1616   -2.0101    5.6406 C   0  0  0  0  0  0  0  0  0  0  0  0
   -1.5311    2.3316    5.5732 C   0  0  0  0  0  0  0  0  0  0  0  0
   -2.2703    1.8469    6.8059 C   0  0  0  0  0  0  0  0  0  0  0  0
   -2.4346    2.9256    4.5189 C   0  0  0  0  0  0  0  0  0  0  0  0
    2.0976    3.7348    6.0509 C   0  0  0  0  0  0  0  0  0  0  0  0
    3.1257   -1.3370   -1.5514 H   0  0  0  0  0  0  0  0  0  0  0  0
    3.9086   -2.8626   -1.1407 H   0  0  0  0  0  0  0  0  0  0  0  0
    4.8379   -1.3591   -1.1073 H   0  0  0  0  0  0  0  0  0  0  0  0
    3.4300   -3.6267    1.0653 H   0  0  0  0  0  0  0  0  0  0  0  0
    2.0671   -3.1523    3.0413 H   0  0  0  0  0  0  0  0  0  0  0  0
    3.7432   -2.7790    3.4268 H   0  0  0  0  0  0  0  0  0  0  0  0
    1.3711   -0.9127    3.0396 H   0  0  0  0  0  0  0  0  0  0  0  0
    4.2450    0.0135    2.8714 H   0  0  0  0  0  0  0  0  0  0  0  0
    4.0709    0.4622    0.5707 H   0  0  0  0  0  0  0  0  0  0  0  0
    2.3451    0.1385    0.5138 H   0  0  0  0  0  0  0  0  0  0  0  0
    3.4153    2.1422    2.4452 H   0  0  0  0  0  0  0  0  0  0  0  0
    1.3537    2.6453    2.0397 H   0  0  0  0  0  0  0  0  0  0  0  0
    3.4803    4.9391    4.0211 H   0  0  0  0  0  0  0  0  0  0  0  0
    2.8182    4.0622    2.6932 H   0  0  0  0  0  0  0  0  0  0  0  0
    1.6281    6.0398    2.8338 H   0  0  0  0  0  0  0  0  0  0  0  0
    0.5024    4.7899    3.2551 H   0  0  0  0  0  0  0  0  0  0  0  0
    1.9291    6.5699    5.3086 H   0  0  0  0  0  0  0  0  0  0  0  0
    0.4219    7.6231    3.6235 H   0  0  0  0  0  0  0  0  0  0  0  0
    0.3413    5.8734    6.9389 H   0  0  0  0  0  0  0  0  0  0  0  0
   -0.8766    5.4390    5.7452 H   0  0  0  0  0  0  0  0  0  0  0  0
   -0.1656    1.5191    4.0514 H   0  0  0  0  0  0  0  0  0  0  0  0
    0.5640    0.7553    6.8878 H   0  0  0  0  0  0  0  0  0  0  0  0
    0.2144   -0.3633    5.6074 H   0  0  0  0  0  0  0  0  0  0  0  0
    4.1306    1.2036    6.3883 H   0  0  0  0  0  0  0  0  0  0  0  0
    3.7372   -0.8399    4.9063 H   0  0  0  0  0  0  0  0  0  0  0  0
    1.1543   -2.3214    5.3653 H   0  0  0  0  0  0  0  0  0  0  0  0
    2.1668   -1.8236    6.7130 H   0  0  0  0  0  0  0  0  0  0  0  0
    2.8105   -2.8762    5.4988 H   0  0  0  0  0  0  0  0  0  0  0  0
   -2.9190    1.0037    6.5594 H   0  0  0  0  0  0  0  0  0  0  0  0
   -2.8748    2.6514    7.2291 H   0  0  0  0  0  0  0  0  0  0  0  0
   -1.5594    1.5203    7.5705 H   0  0  0  0  0  0  0  0  0  0  0  0
   -3.0964    2.1642    4.1056 H   0  0  0  0  0  0  0  0  0  0  0  0
   -1.8465    3.3062    3.6872 H   0  0  0  0  0  0  0  0  0  0  0  0
   -3.0121    3.7346    4.9483 H   0  0  0  0  0  0  0  0  0  0  0  0
    2.2752    3.0769    6.8915 H   0  0  0  0  0  0  0  0  0  0  0  0
    2.6672    4.6322    6.2851 H   0  0  0  0  0  0  0  0  0  0  0  0
  1  2  1  0
  1 30  1  0
  1 31  1  0
  1 32  1  0
  2  7  1  0
  2  3  2  0
  3  4  1  0
  3 33  1  0
  4  5  1  0
  4 34  1  0
  4 35  1  0
  5 24  1  0
  5  6  1  0
  5 36  1  1
  6  7  1  0
  6  8  1  0
  6 37  1  1
  7 38  1  0
  7 39  1  0
  8  9  1  0
  8 10  1  0
  8 40  1  6
  9 41  1  0
 10 21  1  0
 10 11  2  3
 11 29  1  0
 11 12  1  0
 12 13  1  0
 12 42  1  0
 12 43  1  0
 13 14  1  0
 13 44  1  0
 13 45  1  0
 14 15  1  0
 14 16  1  0
 14 46  1  1
 15 47  1  0
 16 17  1  0
 16 48  1  0
 16 49  1  0
 17 18  2  3
 17 29  1  0
 18 26  1  0
 18 19  1  0
 19 20  1  0
 19 26  1  0
 19 50  1  6
 20 21  1  0
 20 51  1  0
 20 52  1  0
 21 22  1  1
 21 24  1  0
 22 23  2  0
 22 53  1  0
 24 25  1  0
 24 54  1  6
 25 55  1  0
 25 56  1  0
 25 57  1  0
 26 27  1  0
 26 28  1  0
 27 58  1  0
 27 59  1  0
 27 60  1  0
 28 61  1  0
 28 62  1  0
 28 63  1  0
 29 64  1  0
 29 65  1  0
M  END
>  <i_m_ct_stereo_status>  (423) 
1

>  <s_m_source_file>  (423) 
/var/tmp/pbs.5076255.sched01/tmp0i_w_vt9/132llf9lao3.sdf

>  <i_m_source_file_index>  (423) 
39

>  <i_lp_mmshare_version>  (423) 
48012

>  <i_f3d_flags>  (423) 
0

>  <s_epik_input>  (423) 
W0NIM11DKFtDSDJdMSk9W0NIXVtDSDJdW0NAQEhdKFtDQEBIXTJbQ0gzXSlbQ0BASF0xW0NAQEhdKFtPSF0pQyhbQ0BdMjNbQ0hdPU8pPUM0W0NIMl1bQ0gyXVtDQEBIXShbT0hdKVtDSDJdQyhbQ0gyXTQpPUM1W0NIXShbQ0gyXTMpQzUoW0NIM10pW0NIM10=

>  <s_epik_cmdline>  (423) 
J2VwaWtfcHl0aG9uJywgJy1waHQnLCAnMi4wJywgJy1waCcsICc3LjAnLCAnLXRuJywgJzgnLCAnLW1hJywgJzIwMCcsICctaW1hZScsICc8aW5maWxlLm1hZT4nLCAnLW9tYWUnLCAnPG91dGZpbGUubWFlPic=

>  <r_lp_tautomer_probability>  (423) 
1

>  <r_epik_Ionization_Penalty>  (423) 
2.98559e-07

>  <r_epik_Ionization_Penalty_Charging>  (423) 
0

>  <r_epik_Ionization_Penalty_Neutral>  (423) 
2.98559e-07

>  <r_epik_State_Penalty>  (423) 
-0

>  <r_epik_Charging_Adjusted_Penalty>  (423) 
0

>  <i_epik_Tot_Q>  (423) 
0

>  <i_epik_Tot_abs_Q>  (423) 
0

>  <s_lp_Force_Field>  (423) 
OPLS3e

>  <r_lp_Energy>  (423) 
79.8554

>  <b_lp_Chiralities_Consistent>  (423) 
1

>  <s_lp_Variant>  (423) 
115:0-2

>  <s_i_glide_gridfile>  (423) 
pfpi4k_grid

>  <i_i_glide_lignum>  (423) 
39

>  <i_i_glide_rotatable_bonds>  (423) 
3

>  <r_i_docking_score>  (423) 
-3.22876

>  <r_i_glide_ligand_efficiency>  (423) 
-0.111336

>  <r_i_glide_ligand_efficiency_sa>  (423) 
-0.342061

>  <r_i_glide_ligand_efficiency_ln>  (423) 
-0.739304

>  <r_i_glide_gscore>  (423) 
-3.22876

>  <r_i_glide_lipo>  (423) 
-0.027937

>  <r_i_glide_hbond>  (423) 
-0.226372

>  <r_i_glide_metal>  (423) 
-0

>  <r_i_glide_rewards>  (423) 
-0.705257

>  <r_i_glide_evdw>  (423) 
-23.0495

>  <r_i_glide_ecoul>  (423) 
-7.44476

>  <r_i_glide_erotb>  (423) 
0

>  <r_i_glide_esite>  (423) 
0

>  <r_i_glide_emodel>  (423) 
-35.9649

>  <r_i_glide_energy>  (423) 
-30.4943

>  <r_i_glide_einternal>  (423) 
2.16269

>  <r_i_glide_intrahb_reward>  (423) 
-0

>  <i_i_glide_confnum>  (423) 
1

>  <i_i_glide_posenum>  (423) 
7

>  <r_i_glide_eff_state_penalty>  (423) 
0

>  <ligand_id>  (423) 
115

>  <original_smiles>  (423) 
CC1=CCC2C(C1)C(O)C1=C3CCC(O)CC(=C4C(CC1(C=O)C2C)C4(C)C)C3

>  <smiles>  (423) 
[H]OC1([H])C2=C3C([H])([H])C(=C4C([H])(C([H])([H])C2(C([H])=O)C([H])(C([H])([H])[H])C2([H])C([H])([H])C([H])=C(C([H])([H])[H])C([H])([H])C12[H])C4(C([H])([H])[H])C([H])([H])[H])C([H])([H])C([H])(O[H])C([H])([H])C3([H])[H]

$$$$
117:0:0
     RDKit          3D

 57 60  0  0  1  0  0  0  0  0999 V2000
    8.2154   -3.2933   -0.8069 C   0  0  0  0  0  0  0  0  0  0  0  0
    7.3798   -3.2239    0.4699 C   0  0  2  0  0  0  0  0  0  0  0  0
    7.1664   -4.7595    1.1418 C   0  0  0  0  0  0  0  0  0  0  0  0
    5.7022   -5.4723    1.2458 C   0  0  2  0  0  0  0  0  0  0  0  0
    5.3656   -6.2361    0.1097 O   0  0  0  0  0  0  0  0  0  0  0  0
    5.2050   -4.1960    1.1524 C   0  0  0  0  0  0  0  0  0  0  0  0
    5.3084   -3.4127    2.2935 C   0  0  0  0  0  0  0  0  0  0  0  0
    4.0483   -2.8965    2.2406 C   0  0  2  0  0  0  0  0  0  0  0  0
    3.8997   -1.8369    3.1648 O   0  0  0  0  0  0  0  0  0  0  0  0
    3.4852   -4.4315    2.8019 C   0  0  0  0  0  0  0  0  0  0  0  0
    3.3657   -4.4067    4.3339 C   0  0  0  0  0  0  0  0  0  0  0  0
    2.0723   -4.7689    2.2873 C   0  0  0  0  0  0  0  0  0  0  0  0
    4.5927   -5.7256    2.4559 C   0  0  1  0  0  0  0  0  0  0  0  0
    3.9140   -6.9512    2.2753 O   0  0  0  0  0  0  0  0  0  0  0  0
    4.5276   -2.3887    0.7301 C   0  0  2  0  0  0  0  0  0  0  0  0
    3.6186   -1.3295    0.0762 C   0  0  1  0  0  0  0  0  0  0  0  0
    3.9212   -0.0574    0.6269 O   0  0  0  0  0  0  0  0  0  0  0  0
    3.7963   -1.2624   -1.4653 C   0  0  0  0  0  0  0  0  0  0  0  0
    3.7334   -2.6318   -2.1859 C   0  0  0  0  0  0  0  0  0  0  0  0
    2.2594   -3.0689   -2.2985 C   0  0  0  0  0  0  0  0  0  0  0  0
    4.2637   -2.4608   -3.6090 C   0  0  0  0  0  0  0  0  0  0  0  0
    4.6168   -3.6700   -1.4361 C   0  0  0  0  0  0  0  0  0  0  0  0
    4.2970   -3.6794    0.0719 C   0  0  1  0  0  0  0  0  0  0  0  0
    6.1687   -2.0629    0.3660 C   0  0  1  0  0  0  0  0  0  0  0  0
    6.5807   -0.9998    1.1584 O   0  0  0  0  0  0  0  0  0  0  0  0
    7.7331   -3.8535   -1.6039 H   0  0  0  0  0  0  0  0  0  0  0  0
    9.1602   -3.7949   -0.6044 H   0  0  0  0  0  0  0  0  0  0  0  0
    8.4721   -2.2970   -1.1715 H   0  0  0  0  0  0  0  0  0  0  0  0
    8.0880   -2.7786    1.1635 H   0  0  0  0  0  0  0  0  0  0  0  0
    7.8545   -5.4422    0.6529 H   0  0  0  0  0  0  0  0  0  0  0  0
    7.5760   -4.7029    2.1542 H   0  0  0  0  0  0  0  0  0  0  0  0
    4.7116   -5.7767   -0.3961 H   0  0  0  0  0  0  0  0  0  0  0  0
    5.7905   -3.6362    3.2467 H   0  0  0  0  0  0  0  0  0  0  0  0
    3.2465   -1.2488    2.8215 H   0  0  0  0  0  0  0  0  0  0  0  0
    3.0842   -5.3883    4.6983 H   0  0  0  0  0  0  0  0  0  0  0  0
    2.6087   -3.6933    4.6518 H   0  0  0  0  0  0  0  0  0  0  0  0
    4.3019   -4.1445    4.8128 H   0  0  0  0  0  0  0  0  0  0  0  0
    1.5849   -5.4756    2.9553 H   0  0  0  0  0  0  0  0  0  0  0  0
    2.0524   -5.2378    1.3062 H   0  0  0  0  0  0  0  0  0  0  0  0
    1.4621   -3.8651    2.2645 H   0  0  0  0  0  0  0  0  0  0  0  0
    5.1956   -5.8724    3.3495 H   0  0  0  0  0  0  0  0  0  0  0  0
    3.5052   -6.9202    1.4248 H   0  0  0  0  0  0  0  0  0  0  0  0
    2.5814   -1.5825    0.3138 H   0  0  0  0  0  0  0  0  0  0  0  0
    3.4360    0.0804    1.4278 H   0  0  0  0  0  0  0  0  0  0  0  0
    3.0017   -0.6556   -1.8918 H   0  0  0  0  0  0  0  0  0  0  0  0
    4.7104   -0.7223   -1.7269 H   0  0  0  0  0  0  0  0  0  0  0  0
    2.1548   -4.0397   -2.7799 H   0  0  0  0  0  0  0  0  0  0  0  0
    1.6815   -2.3751   -2.9052 H   0  0  0  0  0  0  0  0  0  0  0  0
    1.7762   -3.1260   -1.3295 H   0  0  0  0  0  0  0  0  0  0  0  0
    4.2310   -3.4023   -4.1614 H   0  0  0  0  0  0  0  0  0  0  0  0
    5.2982   -2.1351   -3.5652 H   0  0  0  0  0  0  0  0  0  0  0  0
    3.6952   -1.7145   -4.1676 H   0  0  0  0  0  0  0  0  0  0  0  0
    4.4246   -4.6603   -1.8480 H   0  0  0  0  0  0  0  0  0  0  0  0
    5.6585   -3.4894   -1.6745 H   0  0  0  0  0  0  0  0  0  0  0  0
    3.2874   -4.0238    0.1829 H   0  0  0  0  0  0  0  0  0  0  0  0
    6.2337   -1.6664   -0.6265 H   0  0  0  0  0  0  0  0  0  0  0  0
    5.9800   -0.2897    0.9803 H   0  0  0  0  0  0  0  0  0  0  0  0
  1  2  1  0
  1 26  1  0
  1 27  1  0
  1 28  1  0
  2 24  1  0
  2  3  1  0
  2 29  1  1
  3  4  1  0
  3 30  1  0
  3 31  1  0
  4 13  1  0
  4  5  1  6
  4  6  1  0
  5 32  1  0
  6 23  1  0
  6  7  2  0
  7  8  1  0
  7 33  1  0
  8  9  1  1
  8 10  1  0
 15  8  1  1
  9 34  1  0
 10 11  1  0
 10 12  1  0
 10 13  1  0
 11 35  1  0
 11 36  1  0
 11 37  1  0
 12 38  1  0
 12 39  1  0
 12 40  1  0
 13 14  1  0
 13 41  1  1
 14 42  1  0
 15 23  1  0
 15 16  1  0
 15 24  1  0
 16 17  1  0
 16 18  1  0
 16 43  1  6
 17 44  1  0
 18 19  1  0
 18 45  1  0
 18 46  1  0
 19 20  1  0
 19 21  1  0
 19 22  1  0
 20 47  1  0
 20 48  1  0
 20 49  1  0
 21 50  1  0
 21 51  1  0
 21 52  1  0
 22 23  1  0
 22 53  1  0
 22 54  1  0
 23 55  1  6
 24 25  1  0
 24 56  1  6
 25 57  1  0
M  END
>  <i_m_ct_stereo_status>  (424) 
1

>  <s_m_source_file>  (424) 
/var/tmp/pbs.5076255.sched01/tmp0i_w_vt9/132llf9lao3.sdf

>  <i_m_source_file_index>  (424) 
41

>  <i_lp_mmshare_version>  (424) 
48012

>  <i_f3d_flags>  (424) 
0

>  <s_epik_input>  (424) 
W09IXVtDQEhdMVtDQEhdKFtDSDNdKVtDSDJdW0NAQF0oW09IXSkoW0NASF0oW09IXSlDMihbQ0gzXSlbQ0gzXSlDKD1bQ0hdW0NAXTIoW0NAXTEzNClbT0hdKVtDQEBIXTRbQ0gyXUMoW0NIM10pKFtDSDNdKVtDSDJdW0NAQEhdM1tPSF0=

>  <s_epik_cmdline>  (424) 
J2VwaWtfcHl0aG9uJywgJy1waHQnLCAnMi4wJywgJy1waCcsICc3LjAnLCAnLXRuJywgJzgnLCAnLW1hJywgJzIwMCcsICctaW1hZScsICc8aW5maWxlLm1hZT4nLCAnLW9tYWUnLCAnPG91dGZpbGUubWFlPic=

>  <r_lp_tautomer_probability>  (424) 
1

>  <r_epik_Ionization_Penalty>  (424) 
3.90543e-07

>  <r_epik_Ionization_Penalty_Charging>  (424) 
0

>  <r_epik_Ionization_Penalty_Neutral>  (424) 
3.90543e-07

>  <r_epik_State_Penalty>  (424) 
-0

>  <r_epik_Charging_Adjusted_Penalty>  (424) 
0

>  <i_epik_Tot_Q>  (424) 
0

>  <i_epik_Tot_abs_Q>  (424) 
0

>  <s_lp_Force_Field>  (424) 
OPLS3e

>  <r_lp_Energy>  (424) 
315.66

>  <b_lp_Chiralities_Consistent>  (424) 
1

>  <s_lp_Variant>  (424) 
117:0-1

>  <s_i_glide_gridfile>  (424) 
pfpi4k_grid

>  <i_i_glide_lignum>  (424) 
41

>  <i_i_glide_rotatable_bonds>  (424) 
5

>  <r_i_docking_score>  (424) 
-3.81852

>  <r_i_glide_ligand_efficiency>  (424) 
-0.152741

>  <r_i_glide_ligand_efficiency_sa>  (424) 
-0.446617

>  <r_i_glide_ligand_efficiency_ln>  (424) 
-0.905104

>  <r_i_glide_gscore>  (424) 
-3.81852

>  <r_i_glide_lipo>  (424) 
-0.844529

>  <r_i_glide_hbond>  (424) 
0

>  <r_i_glide_metal>  (424) 
-0

>  <r_i_glide_rewards>  (424) 
-1.50592

>  <r_i_glide_evdw>  (424) 
-23.4651

>  <r_i_glide_ecoul>  (424) 
-1.96544

>  <r_i_glide_erotb>  (424) 
0

>  <r_i_glide_esite>  (424) 
0

>  <r_i_glide_emodel>  (424) 
-33.7798

>  <r_i_glide_energy>  (424) 
-25.4306

>  <r_i_glide_einternal>  (424) 
1.20284

>  <r_i_glide_intrahb_reward>  (424) 
-0.5

>  <i_i_glide_confnum>  (424) 
1

>  <i_i_glide_posenum>  (424) 
22

>  <r_i_glide_eff_state_penalty>  (424) 
0

>  <ligand_id>  (424) 
117

>  <original_smiles>  (424) 
CC1CC2(O)C3=CC(O)(C(C)(C)C2O)C2(C(O)CC(C)(C)CC32)C1O

>  <smiles>  (424) 
[H]OC1([H])C2(O[H])C3=C([H])C(O[H])(C1(C([H])([H])[H])C([H])([H])[H])C1(C([H])(O[H])C([H])([H])C(C([H])([H])[H])(C([H])([H])[H])C([H])([H])C31[H])C([H])(O[H])C([H])(C([H])([H])[H])C2([H])[H]

$$$$
117:0:1
     RDKit          3D

 57 60  0  0  1  0  0  0  0  0999 V2000
    8.1797   -3.6927   -0.3305 C   0  0  0  0  0  0  0  0  0  0  0  0
    7.2843   -3.5849    0.9084 C   0  0  2  0  0  0  0  0  0  0  0  0
    6.9860   -5.0975    1.5843 C   0  0  0  0  0  0  0  0  0  0  0  0
    5.4955   -5.7351    1.6392 C   0  0  2  0  0  0  0  0  0  0  0  0
    5.2630   -6.4916    0.4800 O   0  0  0  0  0  0  0  0  0  0  0  0
    5.0558   -4.4335    1.5285 C   0  0  0  0  0  0  0  0  0  0  0  0
    5.1496   -3.6704    2.6783 C   0  0  0  0  0  0  0  0  0  0  0  0
    3.9089   -3.0930    2.5831 C   0  0  2  0  0  0  0  0  0  0  0  0
    3.7417   -2.0230    3.4950 O   0  0  0  0  0  0  0  0  0  0  0  0
    3.2695   -4.6052    3.1202 C   0  0  0  0  0  0  0  0  0  0  0  0
    3.1046   -4.5692    4.6616 C   0  0  0  0  0  0  0  0  0  0  0  0
    1.8459   -4.8702    2.5717 C   0  0  0  0  0  0  0  0  0  0  0  0
    4.3220   -5.9405    2.7967 C   0  0  1  0  0  0  0  0  0  0  0  0
    3.5891   -7.1267    2.5659 O   0  0  0  0  0  0  0  0  0  0  0  0
    4.4571   -2.5870    1.0891 C   0  0  2  0  0  0  0  0  0  0  0  0
    3.5832   -1.5089    0.3971 C   0  0  1  0  0  0  0  0  0  0  0  0
    3.8188   -0.2426    0.9838 O   0  0  0  0  0  0  0  0  0  0  0  0
    3.8261   -1.4412   -1.1342 C   0  0  0  0  0  0  0  0  0  0  0  0
    3.7430   -2.8141   -1.8571 C   0  0  0  0  0  0  0  0  0  0  0  0
    2.2530   -3.2072   -2.0036 C   0  0  0  0  0  0  0  0  0  0  0  0
    4.3421   -2.6790   -3.2683 C   0  0  0  0  0  0  0  0  0  0  0  0
    4.5559   -3.8895   -1.0766 C   0  0  0  0  0  0  0  0  0  0  0  0
    4.1982   -3.8799    0.4239 C   0  0  1  0  0  0  0  0  0  0  0  0
    6.1408   -2.3326    0.7967 C   0  0  1  0  0  0  0  0  0  0  0  0
    6.5917   -1.2610    1.6059 O   0  0  0  0  0  0  0  0  0  0  0  0
    7.6857   -4.2145   -1.1265 H   0  0  0  0  0  0  0  0  0  0  0  0
    9.0830   -4.2585   -0.0904 H   0  0  0  0  0  0  0  0  0  0  0  0
    8.4882   -2.7127   -0.6965 H   0  0  0  0  0  0  0  0  0  0  0  0
    7.9927   -3.2194    1.6358 H   0  0  0  0  0  0  0  0  0  0  0  0
    7.6542   -5.8323    1.1232 H   0  0  0  0  0  0  0  0  0  0  0  0
    7.3575   -5.0675    2.6118 H   0  0  0  0  0  0  0  0  0  0  0  0
    4.5027   -6.1479    0.0318 H   0  0  0  0  0  0  0  0  0  0  0  0
    5.6098   -3.9040    3.6339 H   0  0  0  0  0  0  0  0  0  0  0  0
    3.4024   -1.2893    2.9982 H   0  0  0  0  0  0  0  0  0  0  0  0
    2.7610   -5.5399    5.0263 H   0  0  0  0  0  0  0  0  0  0  0  0
    2.3734   -3.8126    4.9610 H   0  0  0  0  0  0  0  0  0  0  0  0
    4.0474   -4.3486    5.1647 H   0  0  0  0  0  0  0  0  0  0  0  0
    1.2991   -5.5476    3.2288 H   0  0  0  0  0  0  0  0  0  0  0  0
    1.8397   -5.3462    1.5920 H   0  0  0  0  0  0  0  0  0  0  0  0
    1.2860   -3.9356    2.5161 H   0  0  0  0  0  0  0  0  0  0  0  0
    4.8829   -6.1371    3.7152 H   0  0  0  0  0  0  0  0  0  0  0  0
    3.1486   -7.3488    3.3685 H   0  0  0  0  0  0  0  0  0  0  0  0
    2.5313   -1.7331    0.5775 H   0  0  0  0  0  0  0  0  0  0  0  0
    3.1815    0.3755    0.6626 H   0  0  0  0  0  0  0  0  0  0  0  0
    3.0967   -0.7632   -1.5790 H   0  0  0  0  0  0  0  0  0  0  0  0
    4.7841   -0.9702   -1.3426 H   0  0  0  0  0  0  0  0  0  0  0  0
    2.1148   -4.1847   -2.4629 H   0  0  0  0  0  0  0  0  0  0  0  0
    1.7232   -2.4954   -2.6337 H   0  0  0  0  0  0  0  0  0  0  0  0
    1.7462   -3.2273   -1.0402 H   0  0  0  0  0  0  0  0  0  0  0  0
    4.2790   -3.6253   -3.8110 H   0  0  0  0  0  0  0  0  0  0  0  0
    5.3969   -2.3975   -3.2110 H   0  0  0  0  0  0  0  0  0  0  0  0
    3.8227   -1.9180   -3.8515 H   0  0  0  0  0  0  0  0  0  0  0  0
    4.3288   -4.8719   -1.4777 H   0  0  0  0  0  0  0  0  0  0  0  0
    5.6137   -3.7619   -1.2735 H   0  0  0  0  0  0  0  0  0  0  0  0
    3.1613   -4.1834    0.5051 H   0  0  0  0  0  0  0  0  0  0  0  0
    6.2527   -1.9488   -0.2145 H   0  0  0  0  0  0  0  0  0  0  0  0
    7.4098   -0.9315    1.2762 H   0  0  0  0  0  0  0  0  0  0  0  0
  1  2  1  0
  1 26  1  0
  1 27  1  0
  1 28  1  0
  2 24  1  0
  2  3  1  0
  2 29  1  1
  3  4  1  0
  3 30  1  0
  3 31  1  0
  4 13  1  0
  4  5  1  6
  4  6  1  0
  5 32  1  0
  6 23  1  0
  6  7  2  0
  7  8  1  0
  7 33  1  0
  8  9  1  1
  8 10  1  0
 15  8  1  1
  9 34  1  0
 10 11  1  0
 10 12  1  0
 10 13  1  0
 11 35  1  0
 11 36  1  0
 11 37  1  0
 12 38  1  0
 12 39  1  0
 12 40  1  0
 13 14  1  0
 13 41  1  1
 14 42  1  0
 15 23  1  0
 15 16  1  0
 15 24  1  0
 16 17  1  0
 16 18  1  0
 16 43  1  6
 17 44  1  0
 18 19  1  0
 18 45  1  0
 18 46  1  0
 19 20  1  0
 19 21  1  0
 19 22  1  0
 20 47  1  0
 20 48  1  0
 20 49  1  0
 21 50  1  0
 21 51  1  0
 21 52  1  0
 22 23  1  0
 22 53  1  0
 22 54  1  0
 23 55  1  6
 24 25  1  0
 24 56  1  6
 25 57  1  0
M  END
>  <i_m_ct_stereo_status>  (425) 
1

>  <s_m_source_file>  (425) 
/var/tmp/pbs.5076255.sched01/tmp0i_w_vt9/132llf9lao3.sdf

>  <i_m_source_file_index>  (425) 
41

>  <i_lp_mmshare_version>  (425) 
48012

>  <i_f3d_flags>  (425) 
0

>  <s_epik_input>  (425) 
W09IXVtDQEhdMVtDQEhdKFtDSDNdKVtDSDJdW0NAQF0oW09IXSkoW0NASF0oW09IXSlDMihbQ0gzXSlbQ0gzXSlDKD1bQ0hdW0NAXTIoW0NAXTEzNClbT0hdKVtDQEBIXTRbQ0gyXUMoW0NIM10pKFtDSDNdKVtDSDJdW0NAQEhdM1tPSF0=

>  <s_epik_cmdline>  (425) 
J2VwaWtfcHl0aG9uJywgJy1waHQnLCAnMi4wJywgJy1waCcsICc3LjAnLCAnLXRuJywgJzgnLCAnLW1hJywgJzIwMCcsICctaW1hZScsICc8aW5maWxlLm1hZT4nLCAnLW9tYWUnLCAnPG91dGZpbGUubWFlPic=

>  <r_lp_tautomer_probability>  (425) 
1

>  <r_epik_Ionization_Penalty>  (425) 
3.90543e-07

>  <r_epik_Ionization_Penalty_Charging>  (425) 
0

>  <r_epik_Ionization_Penalty_Neutral>  (425) 
3.90543e-07

>  <r_epik_State_Penalty>  (425) 
-0

>  <r_epik_Charging_Adjusted_Penalty>  (425) 
0

>  <i_epik_Tot_Q>  (425) 
0

>  <i_epik_Tot_abs_Q>  (425) 
0

>  <s_lp_Force_Field>  (425) 
OPLS3e

>  <r_lp_Energy>  (425) 
315.66

>  <b_lp_Chiralities_Consistent>  (425) 
1

>  <s_lp_Variant>  (425) 
117:0-1

>  <s_i_glide_gridfile>  (425) 
pfpi4k_grid

>  <i_i_glide_lignum>  (425) 
41

>  <i_i_glide_rotatable_bonds>  (425) 
5

>  <r_i_docking_score>  (425) 
-3.20061

>  <r_i_glide_ligand_efficiency>  (425) 
-0.128025

>  <r_i_glide_ligand_efficiency_sa>  (425) 
-0.374346

>  <r_i_glide_ligand_efficiency_ln>  (425) 
-0.758641

>  <r_i_glide_gscore>  (425) 
-3.20061

>  <r_i_glide_lipo>  (425) 
-0.850392

>  <r_i_glide_hbond>  (425) 
0

>  <r_i_glide_metal>  (425) 
-0

>  <r_i_glide_rewards>  (425) 
-1.00592

>  <r_i_glide_evdw>  (425) 
-20.1722

>  <r_i_glide_ecoul>  (425) 
-2.23794

>  <r_i_glide_erotb>  (425) 
0

>  <r_i_glide_esite>  (425) 
0

>  <r_i_glide_emodel>  (425) 
-25.125

>  <r_i_glide_energy>  (425) 
-22.4101

>  <r_i_glide_einternal>  (425) 
1.47738

>  <r_i_glide_intrahb_reward>  (425) 
-0

>  <i_i_glide_confnum>  (425) 
1

>  <i_i_glide_posenum>  (425) 
14

>  <r_i_glide_eff_state_penalty>  (425) 
0

>  <ligand_id>  (425) 
117

>  <original_smiles>  (425) 
CC1CC2(O)C3=CC(O)(C(C)(C)C2O)C2(C(O)CC(C)(C)CC32)C1O

>  <smiles>  (425) 
[H]OC1([H])C2(O[H])C3=C([H])C(O[H])(C1(C([H])([H])[H])C([H])([H])[H])C1(C([H])(O[H])C([H])([H])C(C([H])([H])[H])(C([H])([H])[H])C([H])([H])C31[H])C([H])(O[H])C([H])(C([H])([H])[H])C2([H])[H]

$$$$
