0:0:0
     RDKit          3D

 47 50  0  0  1  0  0  0  0  0999 V2000
    6.0826   -2.9807   -2.0337 C   0  0  0  0  0  0  0  0  0  0  0  0
    4.6358   -2.5290   -1.7377 C   0  0  2  0  0  0  0  0  0  0  0  0
    4.6156   -1.1554   -1.0284 C   0  0  0  0  0  0  0  0  0  0  0  0
    4.8578   -1.2286    0.4901 C   0  0  0  0  0  0  0  0  0  0  0  0
    3.7913   -2.1185    1.1819 C   0  0  1  0  0  0  0  0  0  0  0  0
    3.9033   -3.5495    0.5966 C   0  0  2  0  0  0  0  0  0  0  0  0
    5.1407   -4.2978    1.1454 C   0  0  0  0  0  0  0  0  0  0  0  0
    5.3290   -4.1064    2.6315 C   0  0  0  0  0  0  0  0  0  0  0  0
    4.7240   -3.1508    3.3601 C   0  0  0  0  0  0  0  0  0  0  0  0
    4.7921   -3.1689    4.8767 C   0  0  0  0  0  0  0  0  0  0  0  0
    3.3932   -3.4886    5.3945 C   0  0  0  0  0  0  0  0  0  0  0  0
    3.1975   -4.3488    6.2511 O   0  0  0  0  0  0  0  0  0  0  0  0
    2.2408   -2.6617    4.8145 C   0  0  0  0  0  0  0  0  0  0  0  0
    2.3468   -2.4945    3.2757 C   0  0  0  0  0  0  0  0  0  0  0  0
    3.7661   -2.1085    2.7586 C   0  0  2  0  0  0  0  0  0  0  0  0
    4.1000   -0.6869    3.2810 C   0  0  0  0  0  0  0  0  0  0  0  0
    3.8163   -3.5907   -0.9568 C   0  0  1  0  0  0  0  0  0  0  0  0
    2.3730   -3.4544   -1.4785 C   0  0  0  0  0  0  0  0  0  0  0  0
    2.4707   -3.0567   -2.9507 C   0  0  0  0  0  0  0  0  0  0  0  0
    3.8367   -2.4175   -3.0472 C   0  0  0  0  0  0  0  0  0  0  0  0
    4.2312   -1.8670   -4.0735 O   0  0  0  0  0  0  0  0  0  0  0  0
    6.7004   -3.0347   -1.1409 H   0  0  0  0  0  0  0  0  0  0  0  0
    6.5826   -2.2993   -2.7173 H   0  0  0  0  0  0  0  0  0  0  0  0
    6.0979   -3.9577   -2.5112 H   0  0  0  0  0  0  0  0  0  0  0  0
    5.3567   -0.4964   -1.4791 H   0  0  0  0  0  0  0  0  0  0  0  0
    3.6542   -0.6645   -1.1944 H   0  0  0  0  0  0  0  0  0  0  0  0
    5.8646   -1.5944    0.7001 H   0  0  0  0  0  0  0  0  0  0  0  0
    4.8216   -0.2042    0.8598 H   0  0  0  0  0  0  0  0  0  0  0  0
    2.8320   -1.7060    0.8708 H   0  0  0  0  0  0  0  0  0  0  0  0
    3.0424   -4.1156    0.9560 H   0  0  0  0  0  0  0  0  0  0  0  0
    5.0216   -5.3658    0.9579 H   0  0  0  0  0  0  0  0  0  0  0  0
    6.0650   -3.9932    0.6639 H   0  0  0  0  0  0  0  0  0  0  0  0
    5.9572   -4.8361    3.1198 H   0  0  0  0  0  0  0  0  0  0  0  0
    5.5010   -3.9207    5.2265 H   0  0  0  0  0  0  0  0  0  0  0  0
    5.1202   -2.2081    5.2702 H   0  0  0  0  0  0  0  0  0  0  0  0
    1.2939   -3.1337    5.0795 H   0  0  0  0  0  0  0  0  0  0  0  0
    2.2481   -1.6904    5.3092 H   0  0  0  0  0  0  0  0  0  0  0  0
    2.0416   -3.4420    2.8316 H   0  0  0  0  0  0  0  0  0  0  0  0
    1.6072   -1.7621    2.9428 H   0  0  0  0  0  0  0  0  0  0  0  0
    3.4781    0.0634    2.7898 H   0  0  0  0  0  0  0  0  0  0  0  0
    5.1447   -0.4291    3.1049 H   0  0  0  0  0  0  0  0  0  0  0  0
    3.9310   -0.5740    4.3507 H   0  0  0  0  0  0  0  0  0  0  0  0
    4.1704   -4.5727   -1.2745 H   0  0  0  0  0  0  0  0  0  0  0  0
    1.8086   -4.3806   -1.3569 H   0  0  0  0  0  0  0  0  0  0  0  0
    1.8440   -2.6717   -0.9401 H   0  0  0  0  0  0  0  0  0  0  0  0
    2.4517   -3.9330   -3.5992 H   0  0  0  0  0  0  0  0  0  0  0  0
    1.6806   -2.3776   -3.2727 H   0  0  0  0  0  0  0  0  0  0  0  0
  2  1  1  6
  1 22  1  0
  1 23  1  0
  1 24  1  0
  2 17  1  0
  2 20  1  0
  2  3  1  0
  3  4  1  0
  3 25  1  0
  3 26  1  0
  4  5  1  0
  4 27  1  0
  4 28  1  0
  5 15  1  0
  5  6  1  0
  5 29  1  6
  6  7  1  0
  6 17  1  0
  6 30  1  1
  7  8  1  0
  7 31  1  0
  7 32  1  0
  8  9  2  0
  8 33  1  0
  9 15  1  0
  9 10  1  0
 10 11  1  0
 10 34  1  0
 10 35  1  0
 11 12  2  0
 11 13  1  0
 13 14  1  0
 13 36  1  0
 13 37  1  0
 14 15  1  0
 14 38  1  0
 14 39  1  0
 15 16  1  1
 16 40  1  0
 16 41  1  0
 16 42  1  0
 17 18  1  0
 17 43  1  6
 18 19  1  0
 18 44  1  0
 18 45  1  0
 19 20  1  0
 19 46  1  0
 19 47  1  0
 20 21  2  0
M  END
>  <i_m_ct_stereo_status>  (1) 
1

>  <s_m_source_file>  (1) 
/var/tmp/pbs.5076255.sched01/tmpr7id634h/0ay6m0hv_.sdf

>  <i_m_source_file_index>  (1) 
1

>  <i_lp_mmshare_version>  (1) 
48012

>  <i_f3d_flags>  (1) 
0

>  <s_epik_input>  (1) 
Tz1DMVtDSDJdW0NIMl1bQ0BASF0oW0NAQF0xMltDSDNdKVtDQEBIXTNbQ0BIXShbQ0gyXVtDSDJdMilbQ0BdNChbQ0gzXSlDKD1bQ0hdW0NIMl0zKVtDSDJdQyg9TylbQ0gyXVtDSDJdNA==

>  <s_epik_cmdline>  (1) 
J2VwaWtfcHl0aG9uJywgJy1waHQnLCAnMi4wJywgJy1waCcsICc3LjAnLCAnLXRuJywgJzgnLCAnLW1hJywgJzIwMCcsICctaW1hZScsICc8aW5maWxlLm1hZT4nLCAnLW9tYWUnLCAnPG91dGZpbGUubWFlPic=

>  <r_lp_tautomer_probability>  (1) 
1

>  <r_epik_Ionization_Penalty>  (1) 
2.15887e-13

>  <r_epik_Ionization_Penalty_Charging>  (1) 
0

>  <r_epik_Ionization_Penalty_Neutral>  (1) 
2.15887e-13

>  <r_epik_State_Penalty>  (1) 
-0

>  <r_epik_Charging_Adjusted_Penalty>  (1) 
0

>  <i_epik_Tot_Q>  (1) 
0

>  <i_epik_Tot_abs_Q>  (1) 
0

>  <s_lp_Force_Field>  (1) 
OPLS3e

>  <r_lp_Energy>  (1) 
35.3757

>  <b_lp_Chiralities_Consistent>  (1) 
1

>  <s_lp_Variant>  (1) 
0:0-1

>  <s_i_glide_gridfile>  (1) 
pfpi4k_grid

>  <i_i_glide_lignum>  (1) 
1

>  <i_i_glide_rotatable_bonds>  (1) 
0

>  <r_i_docking_score>  (1) 
-4.11227

>  <r_i_glide_ligand_efficiency>  (1) 
-0.195823

>  <r_i_glide_ligand_efficiency_sa>  (1) 
-0.540259

>  <r_i_glide_ligand_efficiency_ln>  (1) 
-1.01675

>  <r_i_glide_gscore>  (1) 
-4.11227

>  <r_i_glide_lipo>  (1) 
-0.507435

>  <r_i_glide_hbond>  (1) 
-0.235617

>  <r_i_glide_metal>  (1) 
-0

>  <r_i_glide_rewards>  (1) 
-1.61475

>  <r_i_glide_evdw>  (1) 
-23.6755

>  <r_i_glide_ecoul>  (1) 
-3.80464

>  <r_i_glide_erotb>  (1) 
0

>  <r_i_glide_esite>  (1) 
0

>  <r_i_glide_emodel>  (1) 
-34.1987

>  <r_i_glide_energy>  (1) 
-27.4802

>  <r_i_glide_einternal>  (1) 
0

>  <r_i_glide_intrahb_reward>  (1) 
-0

>  <i_i_glide_confnum>  (1) 
1

>  <i_i_glide_posenum>  (1) 
30

>  <r_i_glide_eff_state_penalty>  (1) 
0

>  <ligand_id>  (1) 
0

>  <original_smiles>  (1) 
CC12CCC3C(CC=C4CC(=O)CCC43C)C1CCC2=O

>  <smiles>  (1) 
[H]C1=C2C([H])([H])C(=O)C([H])([H])C([H])([H])C2(C([H])([H])[H])C2([H])C([H])([H])C([H])([H])C3(C([H])([H])[H])C(=O)C([H])([H])C([H])([H])C3([H])C2([H])C1([H])[H]

$$$$
0:0:1
     RDKit          3D

 47 50  0  0  1  0  0  0  0  0999 V2000
    3.0848   -3.3155   -3.9296 C   0  0  0  0  0  0  0  0  0  0  0  0
    3.9791   -2.6245   -2.9163 C   0  0  2  0  0  0  0  0  0  0  0  0
    5.3089   -3.3046   -2.6020 C   0  0  0  0  0  0  0  0  0  0  0  0
    5.2358   -4.3117   -1.4383 C   0  0  0  0  0  0  0  0  0  0  0  0
    4.7068   -3.7642   -0.1153 C   0  0  1  0  0  0  0  0  0  0  0  0
    3.3229   -3.1990   -0.3600 C   0  0  2  0  0  0  0  0  0  0  0  0
    2.2955   -4.2956   -0.5260 C   0  0  0  0  0  0  0  0  0  0  0  0
    2.4310   -5.4329    0.5023 C   0  0  0  0  0  0  0  0  0  0  0  0
    3.5320   -5.6197    1.2488 C   0  0  0  0  0  0  0  0  0  0  0  0
    3.5291   -6.5967    2.4299 C   0  0  0  0  0  0  0  0  0  0  0  0
    3.6661   -5.7538    3.6963 C   0  0  0  0  0  0  0  0  0  0  0  0
    2.9152   -5.9226    4.6622 O   0  0  0  0  0  0  0  0  0  0  0  0
    4.7786   -4.7098    3.7296 C   0  0  0  0  0  0  0  0  0  0  0  0
    4.8601   -3.8931    2.4169 C   0  0  0  0  0  0  0  0  0  0  0  0
    4.7825   -4.7477    1.1242 C   0  0  2  0  0  0  0  0  0  0  0  0
    6.0557   -5.6310    1.0439 C   0  0  0  0  0  0  0  0  0  0  0  0
    3.3052   -2.2541   -1.5874 C   0  0  1  0  0  0  0  0  0  0  0  0
    3.8814   -0.9217   -1.2006 C   0  0  0  0  0  0  0  0  0  0  0  0
    4.1528   -0.2162   -2.5314 C   0  0  0  0  0  0  0  0  0  0  0  0
    4.2289   -1.2746   -3.5445 C   0  0  0  0  0  0  0  0  0  0  0  0
    4.4221   -1.0570   -4.7349 O   0  0  0  0  0  0  0  0  0  0  0  0
    2.8075   -4.2413   -3.5413 H   0  0  0  0  0  0  0  0  0  0  0  0
    3.6205   -3.4797   -4.8715 H   0  0  0  0  0  0  0  0  0  0  0  0
    2.1293   -2.8301   -4.1004 H   0  0  0  0  0  0  0  0  0  0  0  0
    5.7085   -3.7917   -3.4929 H   0  0  0  0  0  0  0  0  0  0  0  0
    6.0636   -2.5683   -2.3131 H   0  0  0  0  0  0  0  0  0  0  0  0
    4.6624   -5.1751   -1.7534 H   0  0  0  0  0  0  0  0  0  0  0  0
    6.2191   -4.6050   -1.2119 H   0  0  0  0  0  0  0  0  0  0  0  0
    5.3874   -2.9430    0.0950 H   0  0  0  0  0  0  0  0  0  0  0  0
    3.0251   -2.6179    0.5225 H   0  0  0  0  0  0  0  0  0  0  0  0
    1.3845   -3.7958   -0.3809 H   0  0  0  0  0  0  0  0  0  0  0  0
    2.1992   -4.5765   -1.5474 H   0  0  0  0  0  0  0  0  0  0  0  0
    1.5603   -6.0461    0.6802 H   0  0  0  0  0  0  0  0  0  0  0  0
    2.6096   -7.1774    2.4567 H   0  0  0  0  0  0  0  0  0  0  0  0
    4.3656   -7.2918    2.3613 H   0  0  0  0  0  0  0  0  0  0  0  0
    4.6262   -4.0394    4.5745 H   0  0  0  0  0  0  0  0  0  0  0  0
    5.7176   -5.2265    3.9168 H   0  0  0  0  0  0  0  0  0  0  0  0
    4.0303   -3.1865    2.4244 H   0  0  0  0  0  0  0  0  0  0  0  0
    5.7697   -3.2910    2.4154 H   0  0  0  0  0  0  0  0  0  0  0  0
    6.9474   -5.0358    0.8550 H   0  0  0  0  0  0  0  0  0  0  0  0
    5.9738   -6.3739    0.2506 H   0  0  0  0  0  0  0  0  0  0  0  0
    6.2488   -6.1816    1.9626 H   0  0  0  0  0  0  0  0  0  0  0  0
    2.2802   -2.0995   -1.8866 H   0  0  0  0  0  0  0  0  0  0  0  0
    3.1906   -0.4406   -0.5135 H   0  0  0  0  0  0  0  0  0  0  0  0
    4.8124   -0.9840   -0.6443 H   0  0  0  0  0  0  0  0  0  0  0  0
    3.3003    0.3661   -2.8582 H   0  0  0  0  0  0  0  0  0  0  0  0
    5.0101    0.4406   -2.5417 H   0  0  0  0  0  0  0  0  0  0  0  0
  2  1  1  6
  1 22  1  0
  1 23  1  0
  1 24  1  0
  2 17  1  0
  2 20  1  0
  2  3  1  0
  3  4  1  0
  3 25  1  0
  3 26  1  0
  4  5  1  0
  4 27  1  0
  4 28  1  0
  5 15  1  0
  5  6  1  0
  5 29  1  1
  6  7  1  0
  6 17  1  0
  6 30  1  1
  7  8  1  0
  7 31  1  0
  7 32  1  0
  8  9  2  0
  8 33  1  0
  9 15  1  0
  9 10  1  0
 10 11  1  0
 10 34  1  0
 10 35  1  0
 11 12  2  0
 11 13  1  0
 13 14  1  0
 13 36  1  0
 13 37  1  0
 14 15  1  0
 14 38  1  0
 14 39  1  0
 15 16  1  6
 16 40  1  0
 16 41  1  0
 16 42  1  0
 17 18  1  0
 17 43  1  6
 18 19  1  0
 18 44  1  0
 18 45  1  0
 19 20  1  0
 19 46  1  0
 19 47  1  0
 20 21  2  0
M  END
>  <i_m_ct_stereo_status>  (2) 
1

>  <s_m_source_file>  (2) 
/var/tmp/pbs.5076255.sched01/tmpr7id634h/0ay6m0hv_.sdf

>  <i_m_source_file_index>  (2) 
1

>  <i_lp_mmshare_version>  (2) 
48012

>  <i_f3d_flags>  (2) 
0

>  <s_epik_input>  (2) 
Tz1DMVtDSDJdW0NIMl1bQ0BASF0oW0NAQF0xMltDSDNdKVtDQEBIXTNbQ0BIXShbQ0gyXVtDSDJdMilbQ0BdNChbQ0gzXSlDKD1bQ0hdW0NIMl0zKVtDSDJdQyg9TylbQ0gyXVtDSDJdNA==

>  <s_epik_cmdline>  (2) 
J2VwaWtfcHl0aG9uJywgJy1waHQnLCAnMi4wJywgJy1waCcsICc3LjAnLCAnLXRuJywgJzgnLCAnLW1hJywgJzIwMCcsICctaW1hZScsICc8aW5maWxlLm1hZT4nLCAnLW9tYWUnLCAnPG91dGZpbGUubWFlPic=

>  <r_lp_tautomer_probability>  (2) 
1

>  <r_epik_Ionization_Penalty>  (2) 
2.15887e-13

>  <r_epik_Ionization_Penalty_Charging>  (2) 
0

>  <r_epik_Ionization_Penalty_Neutral>  (2) 
2.15887e-13

>  <r_epik_State_Penalty>  (2) 
-0

>  <r_epik_Charging_Adjusted_Penalty>  (2) 
0

>  <i_epik_Tot_Q>  (2) 
0

>  <i_epik_Tot_abs_Q>  (2) 
0

>  <s_lp_Force_Field>  (2) 
OPLS3e

>  <r_lp_Energy>  (2) 
35.3757

>  <b_lp_Chiralities_Consistent>  (2) 
1

>  <s_lp_Variant>  (2) 
0:0-1

>  <s_i_glide_gridfile>  (2) 
pfpi4k_grid

>  <i_i_glide_lignum>  (2) 
1

>  <i_i_glide_rotatable_bonds>  (2) 
0

>  <r_i_docking_score>  (2) 
-3.60595

>  <r_i_glide_ligand_efficiency>  (2) 
-0.171712

>  <r_i_glide_ligand_efficiency_sa>  (2) 
-0.47374

>  <r_i_glide_ligand_efficiency_ln>  (2) 
-0.891564

>  <r_i_glide_gscore>  (2) 
-3.60595

>  <r_i_glide_lipo>  (2) 
-0.786595

>  <r_i_glide_hbond>  (2) 
-0.32

>  <r_i_glide_metal>  (2) 
-0

>  <r_i_glide_rewards>  (2) 
-1.71013

>  <r_i_glide_evdw>  (2) 
-6.38354

>  <r_i_glide_ecoul>  (2) 
-3.13368

>  <r_i_glide_erotb>  (2) 
0

>  <r_i_glide_esite>  (2) 
0

>  <r_i_glide_emodel>  (2) 
-13.4351

>  <r_i_glide_energy>  (2) 
-9.51722

>  <r_i_glide_einternal>  (2) 
0

>  <r_i_glide_intrahb_reward>  (2) 
-0

>  <i_i_glide_confnum>  (2) 
2

>  <i_i_glide_posenum>  (2) 
10

>  <r_i_glide_eff_state_penalty>  (2) 
0

>  <ligand_id>  (2) 
0

>  <original_smiles>  (2) 
CC12CCC3C(CC=C4CC(=O)CCC43C)C1CCC2=O

>  <smiles>  (2) 
[H]C1=C2C([H])([H])C(=O)C([H])([H])C([H])([H])C2(C([H])([H])[H])C2([H])C([H])([H])C([H])([H])C3(C([H])([H])[H])C(=O)C([H])([H])C([H])([H])C3([H])C2([H])C1([H])[H]

$$$$
0:0:2
     RDKit          3D

 47 50  0  0  1  0  0  0  0  0999 V2000
    2.6007   -3.3652   -2.7765 C   0  0  0  0  0  0  0  0  0  0  0  0
    3.8732   -2.7988   -2.1173 C   0  0  2  0  0  0  0  0  0  0  0  0
    4.9797   -3.8605   -1.9241 C   0  0  0  0  0  0  0  0  0  0  0  0
    4.8041   -4.7112   -0.6468 C   0  0  0  0  0  0  0  0  0  0  0  0
    4.8086   -3.8376    0.6231 C   0  0  1  0  0  0  0  0  0  0  0  0
    3.6335   -2.8478    0.5196 C   0  0  2  0  0  0  0  0  0  0  0  0
    2.3069   -3.5331    0.7793 C   0  0  0  0  0  0  0  0  0  0  0  0
    2.3036   -4.4916    1.9442 C   0  0  0  0  0  0  0  0  0  0  0  0
    3.4256   -4.9711    2.4984 C   0  0  0  0  0  0  0  0  0  0  0  0
    3.3822   -5.7260    3.8219 C   0  0  0  0  0  0  0  0  0  0  0  0
    4.0263   -4.8389    4.8906 C   0  0  0  0  0  0  0  0  0  0  0  0
    3.4833   -4.6274    5.9740 O   0  0  0  0  0  0  0  0  0  0  0  0
    5.3802   -4.2187    4.5279 C   0  0  0  0  0  0  0  0  0  0  0  0
    5.3787   -3.6356    3.0810 C   0  0  0  0  0  0  0  0  0  0  0  0
    4.8191   -4.5941    2.0031 C   0  0  2  0  0  0  0  0  0  0  0  0
    5.7291   -5.8429    1.8997 C   0  0  0  0  0  0  0  0  0  0  0  0
    3.6111   -2.0297   -0.8003 C   0  0  1  0  0  0  0  0  0  0  0  0
    4.6040   -0.8631   -0.7778 C   0  0  0  0  0  0  0  0  0  0  0  0
    4.7727   -0.4683   -2.2340 C   0  0  0  0  0  0  0  0  0  0  0  0
    4.3847   -1.6888   -3.0178 C   0  0  0  0  0  0  0  0  0  0  0  0
    4.4337   -1.7524   -4.2439 O   0  0  0  0  0  0  0  0  0  0  0  0
    2.1584   -4.1704   -2.2010 H   0  0  0  0  0  0  0  0  0  0  0  0
    2.8073   -3.7710   -3.7681 H   0  0  0  0  0  0  0  0  0  0  0  0
    1.8290   -2.6070   -2.9032 H   0  0  0  0  0  0  0  0  0  0  0  0
    5.0064   -4.5252   -2.7897 H   0  0  0  0  0  0  0  0  0  0  0  0
    5.9633   -3.3885   -1.8906 H   0  0  0  0  0  0  0  0  0  0  0  0
    3.8808   -5.2884   -0.6863 H   0  0  0  0  0  0  0  0  0  0  0  0
    5.6139   -5.4344   -0.6319 H   0  0  0  0  0  0  0  0  0  0  0  0
    5.7285   -3.2533    0.5719 H   0  0  0  0  0  0  0  0  0  0  0  0
    3.7305   -2.1073    1.3169 H   0  0  0  0  0  0  0  0  0  0  0  0
    1.6139   -2.7152    1.0105 H   0  0  0  0  0  0  0  0  0  0  0  0
    1.9207   -4.0749   -0.0808 H   0  0  0  0  0  0  0  0  0  0  0  0
    1.3515   -4.7421    2.3777 H   0  0  0  0  0  0  0  0  0  0  0  0
    2.3582   -5.9596    4.1031 H   0  0  0  0  0  0  0  0  0  0  0  0
    3.9281   -6.6656    3.7517 H   0  0  0  0  0  0  0  0  0  0  0  0
    5.6211   -3.4374    5.2512 H   0  0  0  0  0  0  0  0  0  0  0  0
    6.1417   -4.9902    4.6509 H   0  0  0  0  0  0  0  0  0  0  0  0
    4.8060   -2.7055    3.1158 H   0  0  0  0  0  0  0  0  0  0  0  0
    6.3595   -3.3346    2.7351 H   0  0  0  0  0  0  0  0  0  0  0  0
    6.6937   -5.5887    1.4611 H   0  0  0  0  0  0  0  0  0  0  0  0
    5.2675   -6.6151    1.2808 H   0  0  0  0  0  0  0  0  0  0  0  0
    5.9349   -6.3018    2.8652 H   0  0  0  0  0  0  0  0  0  0  0  0
    2.6271   -1.5822   -0.9062 H   0  0  0  0  0  0  0  0  0  0  0  0
    4.2327   -0.0325   -0.1753 H   0  0  0  0  0  0  0  0  0  0  0  0
    5.5718   -1.1660   -0.3763 H   0  0  0  0  0  0  0  0  0  0  0  0
    4.1270    0.3582   -2.5309 H   0  0  0  0  0  0  0  0  0  0  0  0
    5.8094   -0.1749   -2.3812 H   0  0  0  0  0  0  0  0  0  0  0  0
  2  1  1  6
  1 22  1  0
  1 23  1  0
  1 24  1  0
  2 17  1  0
  2 20  1  0
  2  3  1  0
  3  4  1  0
  3 25  1  0
  3 26  1  0
  4  5  1  0
  4 27  1  0
  4 28  1  0
  5 15  1  0
  5  6  1  0
  5 29  1  6
  6  7  1  0
  6 17  1  0
  6 30  1  1
  7  8  1  0
  7 31  1  0
  7 32  1  0
  8  9  2  0
  8 33  1  0
  9 15  1  0
  9 10  1  0
 10 11  1  0
 10 34  1  0
 10 35  1  0
 11 12  2  0
 11 13  1  0
 13 14  1  0
 13 36  1  0
 13 37  1  0
 14 15  1  0
 14 38  1  0
 14 39  1  0
 15 16  1  6
 16 40  1  0
 16 41  1  0
 16 42  1  0
 17 18  1  0
 17 43  1  6
 18 19  1  0
 18 44  1  0
 18 45  1  0
 19 20  1  0
 19 46  1  0
 19 47  1  0
 20 21  2  0
M  END
>  <i_m_ct_stereo_status>  (3) 
1

>  <s_m_source_file>  (3) 
/var/tmp/pbs.5076255.sched01/tmpr7id634h/0ay6m0hv_.sdf

>  <i_m_source_file_index>  (3) 
1

>  <i_lp_mmshare_version>  (3) 
48012

>  <i_f3d_flags>  (3) 
0

>  <s_epik_input>  (3) 
Tz1DMVtDSDJdW0NIMl1bQ0BASF0oW0NAQF0xMltDSDNdKVtDQEBIXTNbQ0BIXShbQ0gyXVtDSDJdMilbQ0BdNChbQ0gzXSlDKD1bQ0hdW0NIMl0zKVtDSDJdQyg9TylbQ0gyXVtDSDJdNA==

>  <s_epik_cmdline>  (3) 
J2VwaWtfcHl0aG9uJywgJy1waHQnLCAnMi4wJywgJy1waCcsICc3LjAnLCAnLXRuJywgJzgnLCAnLW1hJywgJzIwMCcsICctaW1hZScsICc8aW5maWxlLm1hZT4nLCAnLW9tYWUnLCAnPG91dGZpbGUubWFlPic=

>  <r_lp_tautomer_probability>  (3) 
1

>  <r_epik_Ionization_Penalty>  (3) 
2.15887e-13

>  <r_epik_Ionization_Penalty_Charging>  (3) 
0

>  <r_epik_Ionization_Penalty_Neutral>  (3) 
2.15887e-13

>  <r_epik_State_Penalty>  (3) 
-0

>  <r_epik_Charging_Adjusted_Penalty>  (3) 
0

>  <i_epik_Tot_Q>  (3) 
0

>  <i_epik_Tot_abs_Q>  (3) 
0

>  <s_lp_Force_Field>  (3) 
OPLS3e

>  <r_lp_Energy>  (3) 
35.3757

>  <b_lp_Chiralities_Consistent>  (3) 
1

>  <s_lp_Variant>  (3) 
0:0-1

>  <s_i_glide_gridfile>  (3) 
pfpi4k_grid

>  <i_i_glide_lignum>  (3) 
1

>  <i_i_glide_rotatable_bonds>  (3) 
0

>  <r_i_docking_score>  (3) 
-3.01516

>  <r_i_glide_ligand_efficiency>  (3) 
-0.143579

>  <r_i_glide_ligand_efficiency_sa>  (3) 
-0.396124

>  <r_i_glide_ligand_efficiency_ln>  (3) 
-0.745493

>  <r_i_glide_gscore>  (3) 
-3.01516

>  <r_i_glide_lipo>  (3) 
-0.247887

>  <r_i_glide_hbond>  (3) 
-0.32

>  <r_i_glide_metal>  (3) 
-0

>  <r_i_glide_rewards>  (3) 
-1.50244

>  <r_i_glide_evdw>  (3) 
-8.49094

>  <r_i_glide_ecoul>  (3) 
-3.46861

>  <r_i_glide_erotb>  (3) 
0

>  <r_i_glide_esite>  (3) 
0

>  <r_i_glide_emodel>  (3) 
-16.5103

>  <r_i_glide_energy>  (3) 
-11.9595

>  <r_i_glide_einternal>  (3) 
0

>  <r_i_glide_intrahb_reward>  (3) 
-0

>  <i_i_glide_confnum>  (3) 
1

>  <i_i_glide_posenum>  (3) 
2

>  <r_i_glide_eff_state_penalty>  (3) 
0

>  <ligand_id>  (3) 
0

>  <original_smiles>  (3) 
CC12CCC3C(CC=C4CC(=O)CCC43C)C1CCC2=O

>  <smiles>  (3) 
[H]C1=C2C([H])([H])C(=O)C([H])([H])C([H])([H])C2(C([H])([H])[H])C2([H])C([H])([H])C([H])([H])C3(C([H])([H])[H])C(=O)C([H])([H])C([H])([H])C3([H])C2([H])C1([H])[H]

$$$$
1:0:0
     RDKit          3D

 55 58  0  0  1  0  0  0  0  0999 V2000
    3.1610   -2.9557   -2.5936 C   0  0  0  0  0  0  0  0  0  0  0  0
    3.7826   -3.3227   -1.2298 C   0  0  2  0  0  0  0  0  0  0  0  0
    2.8140   -4.0499   -0.2961 C   0  0  0  0  0  0  0  0  0  0  0  0
    3.4405   -3.9447    1.1034 C   0  0  2  0  0  0  0  0  0  0  0  0
    2.4655   -3.6582    2.2563 C   0  0  1  0  0  0  0  0  0  0  0  0
    1.8507   -4.8813    2.9482 C   0  0  0  0  0  0  0  0  0  0  0  0
    1.0956   -4.4586    4.1882 C   0  0  0  0  0  0  0  0  0  0  0  0
    1.2767   -3.2818    4.8229 C   0  0  0  0  0  0  0  0  0  0  0  0
    0.3518   -2.8708    5.9551 C   0  0  0  0  0  0  0  0  0  0  0  0
   -0.3684   -1.5908    5.5352 C   0  0  0  0  0  0  0  0  0  0  0  0
   -1.5811   -1.4596    5.6817 O   0  0  0  0  0  0  0  0  0  0  0  0
    0.5064   -0.4566    4.9959 C   0  0  0  0  0  0  0  0  0  0  0  0
    1.5397   -0.9575    3.9587 C   0  0  0  0  0  0  0  0  0  0  0  0
    2.3274   -2.2288    4.3908 C   0  0  1  0  0  0  0  0  0  0  0  0
    3.2261   -1.8967    5.6118 C   0  0  0  0  0  0  0  0  0  0  0  0
    3.2462   -2.7987    3.2451 C   0  0  2  0  0  0  0  0  0  0  0  0
    3.9891   -1.8441    2.2750 C   0  0  1  0  0  0  0  0  0  0  0  0
    5.1061   -0.9908    2.8973 C   0  0  0  0  0  0  0  0  0  0  0  0
    4.4424   -2.7618    1.0785 C   0  0  1  0  0  0  0  0  0  0  0  0
    5.8548   -3.3573    1.3269 C   0  0  0  0  0  0  0  0  0  0  0  0
    4.3309   -2.1617   -0.3758 C   0  0  1  0  0  0  0  0  0  0  0  0
    5.6214   -1.5573   -0.9555 C   0  0  0  0  0  0  0  0  0  0  0  0
    3.4186   -1.0850   -0.4303 O   0  0  0  0  0  0  0  0  0  0  0  0
    2.2845   -2.3134   -2.4882 H   0  0  0  0  0  0  0  0  0  0  0  0
    2.8453   -3.8520   -3.1234 H   0  0  0  0  0  0  0  0  0  0  0  0
    3.8748   -2.4333   -3.2281 H   0  0  0  0  0  0  0  0  0  0  0  0
    4.6097   -4.0066   -1.4254 H   0  0  0  0  0  0  0  0  0  0  0  0
    1.8382   -3.5682   -0.3333 H   0  0  0  0  0  0  0  0  0  0  0  0
    2.6716   -5.0875   -0.5957 H   0  0  0  0  0  0  0  0  0  0  0  0
    3.9711   -4.8783    1.3098 H   0  0  0  0  0  0  0  0  0  0  0  0
    1.6601   -3.0347    1.8710 H   0  0  0  0  0  0  0  0  0  0  0  0
    1.1546   -5.3819    2.2729 H   0  0  0  0  0  0  0  0  0  0  0  0
    2.6094   -5.6137    3.2321 H   0  0  0  0  0  0  0  0  0  0  0  0
    0.3422   -5.1514    4.5357 H   0  0  0  0  0  0  0  0  0  0  0  0
   -0.3753   -3.6561    6.1607 H   0  0  0  0  0  0  0  0  0  0  0  0
    0.9103   -2.6936    6.8712 H   0  0  0  0  0  0  0  0  0  0  0  0
   -0.1244    0.3152    4.5568 H   0  0  0  0  0  0  0  0  0  0  0  0
    1.0135    0.0099    5.8409 H   0  0  0  0  0  0  0  0  0  0  0  0
    1.0057   -1.1611    3.0315 H   0  0  0  0  0  0  0  0  0  0  0  0
    2.2265   -0.1407    3.7364 H   0  0  0  0  0  0  0  0  0  0  0  0
    4.0010   -1.1689    5.3780 H   0  0  0  0  0  0  0  0  0  0  0  0
    3.7251   -2.7905    5.9920 H   0  0  0  0  0  0  0  0  0  0  0  0
    2.6671   -1.4720    6.4439 H   0  0  0  0  0  0  0  0  0  0  0  0
    3.9899   -3.4490    3.7088 H   0  0  0  0  0  0  0  0  0  0  0  0
    3.2376   -1.1440    1.9220 H   0  0  0  0  0  0  0  0  0  0  0  0
    5.7971   -1.5916    3.4876 H   0  0  0  0  0  0  0  0  0  0  0  0
    4.6922   -0.2197    3.5411 H   0  0  0  0  0  0  0  0  0  0  0  0
    5.6791   -0.4773    2.1257 H   0  0  0  0  0  0  0  0  0  0  0  0
    6.6361   -2.5953    1.3225 H   0  0  0  0  0  0  0  0  0  0  0  0
    6.1226   -4.0903    0.5605 H   0  0  0  0  0  0  0  0  0  0  0  0
    5.9138   -3.8697    2.2875 H   0  0  0  0  0  0  0  0  0  0  0  0
    6.4024   -2.2994   -1.1061 H   0  0  0  0  0  0  0  0  0  0  0  0
    6.0082   -0.7798   -0.3033 H   0  0  0  0  0  0  0  0  0  0  0  0
    5.4277   -1.0980   -1.9216 H   0  0  0  0  0  0  0  0  0  0  0  0
    2.5086   -1.3840   -0.4617 H   0  0  0  0  0  0  0  0  0  0  0  0
  1  2  1  0
  1 24  1  0
  1 25  1  0
  1 26  1  0
  2 21  1  0
  2  3  1  0
  2 27  1  6
  3  4  1  0
  3 28  1  0
  3 29  1  0
  4 19  1  0
  4  5  1  0
  4 30  1  1
  5 16  1  0
  5  6  1  0
  5 31  1  6
  6  7  1  0
  6 32  1  0
  6 33  1  0
  7  8  2  0
  7 34  1  0
  8 14  1  0
  8  9  1  0
  9 10  1  0
  9 35  1  0
  9 36  1  0
 10 11  2  0
 10 12  1  0
 12 13  1  0
 12 37  1  0
 12 38  1  0
 13 14  1  0
 13 39  1  0
 13 40  1  0
 14 15  1  1
 14 16  1  0
 15 41  1  0
 15 42  1  0
 15 43  1  0
 16 17  1  0
 16 44  1  1
 17 18  1  0
 17 19  1  0
 17 45  1  6
 18 46  1  0
 18 47  1  0
 18 48  1  0
 19 20  1  1
 19 21  1  0
 20 49  1  0
 20 50  1  0
 20 51  1  0
 21 22  1  0
 21 23  1  1
 22 52  1  0
 22 53  1  0
 22 54  1  0
 23 55  1  0
M  END
>  <i_m_ct_stereo_status>  (4) 
1

>  <s_m_source_file>  (4) 
/var/tmp/pbs.5076255.sched01/tmpr7id634h/0ay6m0hv_.sdf

>  <i_m_source_file_index>  (4) 
2

>  <i_lp_mmshare_version>  (4) 
48012

>  <i_f3d_flags>  (4) 
0

>  <s_epik_input>  (4) 
W0NIM11bQ0BIXShbQ0gyXTEpW0NAQF0oW0NIM10pKFtPSF0pW0NAQF0oW0NIM10pKFtDQEBIXShbQ0BIXTIzKVtDSDNdKVtDQEhdMVtDQEhdMltDSDJdW0NIXT1DKFtDQEBdMzRbQ0gzXSlbQ0gyXUMoPU8pW0NIMl1bQ0gyXTQ=

>  <s_epik_cmdline>  (4) 
J2VwaWtfcHl0aG9uJywgJy1waHQnLCAnMi4wJywgJy1waCcsICc3LjAnLCAnLXRuJywgJzgnLCAnLW1hJywgJzIwMCcsICctaW1hZScsICc8aW5maWxlLm1hZT4nLCAnLW9tYWUnLCAnPG91dGZpbGUubWFlPic=

>  <r_lp_tautomer_probability>  (4) 
1

>  <r_epik_Ionization_Penalty>  (4) 
2.26186e-06

>  <r_epik_Ionization_Penalty_Charging>  (4) 
0

>  <r_epik_Ionization_Penalty_Neutral>  (4) 
2.26186e-06

>  <r_epik_State_Penalty>  (4) 
-0

>  <r_epik_Charging_Adjusted_Penalty>  (4) 
0

>  <i_epik_Tot_Q>  (4) 
0

>  <i_epik_Tot_abs_Q>  (4) 
0

>  <s_lp_Force_Field>  (4) 
OPLS3e

>  <r_lp_Energy>  (4) 
37.6946

>  <b_lp_Chiralities_Consistent>  (4) 
1

>  <s_lp_Variant>  (4) 
1:0-1

>  <s_i_glide_gridfile>  (4) 
pfpi4k_grid

>  <i_i_glide_lignum>  (4) 
2

>  <i_i_glide_rotatable_bonds>  (4) 
1

>  <r_i_docking_score>  (4) 
-3.44865

>  <r_i_glide_ligand_efficiency>  (4) 
-0.149941

>  <r_i_glide_ligand_efficiency_sa>  (4) 
-0.426413

>  <r_i_glide_ligand_efficiency_ln>  (4) 
-0.833915

>  <r_i_glide_gscore>  (4) 
-3.44865

>  <r_i_glide_lipo>  (4) 
-0.23243

>  <r_i_glide_hbond>  (4) 
-0.154706

>  <r_i_glide_metal>  (4) 
-0

>  <r_i_glide_rewards>  (4) 
-1.25129

>  <r_i_glide_evdw>  (4) 
-22.6039

>  <r_i_glide_ecoul>  (4) 
-4.35585

>  <r_i_glide_erotb>  (4) 
0

>  <r_i_glide_esite>  (4) 
-0.0266514

>  <r_i_glide_emodel>  (4) 
-32.8661

>  <r_i_glide_energy>  (4) 
-26.9598

>  <r_i_glide_einternal>  (4) 
0.361101

>  <r_i_glide_intrahb_reward>  (4) 
-0

>  <i_i_glide_confnum>  (4) 
2

>  <i_i_glide_posenum>  (4) 
14

>  <r_i_glide_eff_state_penalty>  (4) 
0

>  <ligand_id>  (4) 
1

>  <original_smiles>  (4) 
CC1CC2C3CC=C4CC(=O)CCC4(C)C3C(C)C2(C)C1(C)O

>  <smiles>  (4) 
[H]OC1(C([H])([H])[H])C([H])(C([H])([H])[H])C([H])([H])C2([H])C3([H])C([H])([H])C([H])=C4C([H])([H])C(=O)C([H])([H])C([H])([H])C4(C([H])([H])[H])C3([H])C([H])(C([H])([H])[H])C21C([H])([H])[H]

$$$$
1:0:1
     RDKit          3D

 55 58  0  0  1  0  0  0  0  0999 V2000
    2.7115   -3.1352   -3.0171 C   0  0  0  0  0  0  0  0  0  0  0  0
    3.4836   -3.4258   -1.7082 C   0  0  2  0  0  0  0  0  0  0  0  0
    2.5990   -3.9343   -0.5721 C   0  0  0  0  0  0  0  0  0  0  0  0
    3.4102   -3.7310    0.7167 C   0  0  2  0  0  0  0  0  0  0  0  0
    2.6216   -3.2075    1.9281 C   0  0  1  0  0  0  0  0  0  0  0  0
    2.0166   -4.2704    2.8571 C   0  0  0  0  0  0  0  0  0  0  0  0
    1.4726   -3.6232    4.1085 C   0  0  0  0  0  0  0  0  0  0  0  0
    1.8405   -2.4082    4.5533 C   0  0  0  0  0  0  0  0  0  0  0  0
    1.1185   -1.7710    5.7285 C   0  0  0  0  0  0  0  0  0  0  0  0
    0.4579   -0.4878    5.2407 C   0  0  0  0  0  0  0  0  0  0  0  0
   -0.7173   -0.2342    5.5085 O   0  0  0  0  0  0  0  0  0  0  0  0
    1.3400    0.4822    4.4465 C   0  0  0  0  0  0  0  0  0  0  0  0
    2.1786   -0.2401    3.3629 C   0  0  0  0  0  0  0  0  0  0  0  0
    2.9051   -1.5242    3.8568 C   0  0  1  0  0  0  0  0  0  0  0  0
    3.9898   -1.1431    4.9012 C   0  0  0  0  0  0  0  0  0  0  0  0
    3.6028   -2.3178    2.6885 C   0  0  2  0  0  0  0  0  0  0  0  0
    4.2854   -1.5703    1.5155 C   0  0  1  0  0  0  0  0  0  0  0  0
    5.5433   -0.7689    1.8804 C   0  0  0  0  0  0  0  0  0  0  0  0
    4.4947   -2.6674    0.4102 C   0  0  1  0  0  0  0  0  0  0  0  0
    5.8746   -3.3700    0.5572 C   0  0  0  0  0  0  0  0  0  0  0  0
    4.2368   -2.2392   -1.0850 C   0  0  1  0  0  0  0  0  0  0  0  0
    5.4773   -1.8566   -1.8971 C   0  0  0  0  0  0  0  0  0  0  0  0
    3.4161   -1.0975   -1.1820 O   0  0  0  0  0  0  0  0  0  0  0  0
    1.9106   -2.4060   -2.8845 H   0  0  0  0  0  0  0  0  0  0  0  0
    2.2337   -4.0398   -3.3957 H   0  0  0  0  0  0  0  0  0  0  0  0
    3.3738   -2.7802   -3.8063 H   0  0  0  0  0  0  0  0  0  0  0  0
    4.2167   -4.2093   -1.9170 H   0  0  0  0  0  0  0  0  0  0  0  0
    1.6837   -3.3467   -0.5620 H   0  0  0  0  0  0  0  0  0  0  0  0
    2.3179   -4.9798   -0.7109 H   0  0  0  0  0  0  0  0  0  0  0  0
    3.8830   -4.6802    0.9766 H   0  0  0  0  0  0  0  0  0  0  0  0
    1.8200   -2.5655    1.5633 H   0  0  0  0  0  0  0  0  0  0  0  0
    1.1957   -4.7780    2.3548 H   0  0  0  0  0  0  0  0  0  0  0  0
    2.7435   -5.0335    3.1371 H   0  0  0  0  0  0  0  0  0  0  0  0
    0.7129   -4.1907    4.6363 H   0  0  0  0  0  0  0  0  0  0  0  0
    0.3601   -2.4481    6.1264 H   0  0  0  0  0  0  0  0  0  0  0  0
    1.8085   -1.5420    6.5375 H   0  0  0  0  0  0  0  0  0  0  0  0
    0.7242    1.2592    3.9935 H   0  0  0  0  0  0  0  0  0  0  0  0
    1.9960    0.9911    5.1514 H   0  0  0  0  0  0  0  0  0  0  0  0
    1.5040   -0.4975    2.5455 H   0  0  0  0  0  0  0  0  0  0  0  0
    2.8963    0.4717    2.9485 H   0  0  0  0  0  0  0  0  0  0  0  0
    4.7825   -0.5316    4.4774 H   0  0  0  0  0  0  0  0  0  0  0  0
    4.4547   -2.0312    5.3317 H   0  0  0  0  0  0  0  0  0  0  0  0
    3.5857   -0.5662    5.7337 H   0  0  0  0  0  0  0  0  0  0  0  0
    4.3460   -2.9802    3.1364 H   0  0  0  0  0  0  0  0  0  0  0  0
    3.5572   -0.8443    1.1635 H   0  0  0  0  0  0  0  0  0  0  0  0
    6.2533   -1.3609    2.4576 H   0  0  0  0  0  0  0  0  0  0  0  0
    5.2869    0.1122    2.4650 H   0  0  0  0  0  0  0  0  0  0  0  0
    6.0480   -0.4085    0.9849 H   0  0  0  0  0  0  0  0  0  0  0  0
    6.7074   -2.6951    0.3560 H   0  0  0  0  0  0  0  0  0  0  0  0
    5.9685   -4.2090   -0.1356 H   0  0  0  0  0  0  0  0  0  0  0  0
    6.0185   -3.7668    1.5629 H   0  0  0  0  0  0  0  0  0  0  0  0
    6.1727   -2.6809   -2.0518 H   0  0  0  0  0  0  0  0  0  0  0  0
    6.0026   -1.0487   -1.3998 H   0  0  0  0  0  0  0  0  0  0  0  0
    5.1835   -1.4947   -2.8797 H   0  0  0  0  0  0  0  0  0  0  0  0
    2.5000   -1.3076   -0.9714 H   0  0  0  0  0  0  0  0  0  0  0  0
  1  2  1  0
  1 24  1  0
  1 25  1  0
  1 26  1  0
  2 21  1  0
  2  3  1  0
  2 27  1  6
  3  4  1  0
  3 28  1  0
  3 29  1  0
  4 19  1  0
  4  5  1  0
  4 30  1  1
  5 16  1  0
  5  6  1  0
  5 31  1  6
  6  7  1  0
  6 32  1  0
  6 33  1  0
  7  8  2  0
  7 34  1  0
  8 14  1  0
  8  9  1  0
  9 10  1  0
  9 35  1  0
  9 36  1  0
 10 11  2  0
 10 12  1  0
 12 13  1  0
 12 37  1  0
 12 38  1  0
 13 14  1  0
 13 39  1  0
 13 40  1  0
 14 15  1  1
 14 16  1  0
 15 41  1  0
 15 42  1  0
 15 43  1  0
 16 17  1  0
 16 44  1  1
 17 18  1  0
 17 19  1  0
 17 45  1  6
 18 46  1  0
 18 47  1  0
 18 48  1  0
 19 20  1  6
 19 21  1  0
 20 49  1  0
 20 50  1  0
 20 51  1  0
 21 22  1  0
 21 23  1  1
 22 52  1  0
 22 53  1  0
 22 54  1  0
 23 55  1  0
M  END
>  <i_m_ct_stereo_status>  (5) 
1

>  <s_m_source_file>  (5) 
/var/tmp/pbs.5076255.sched01/tmpr7id634h/0ay6m0hv_.sdf

>  <i_m_source_file_index>  (5) 
2

>  <i_lp_mmshare_version>  (5) 
48012

>  <i_f3d_flags>  (5) 
0

>  <s_epik_input>  (5) 
W0NIM11bQ0BIXShbQ0gyXTEpW0NAQF0oW0NIM10pKFtPSF0pW0NAQF0oW0NIM10pKFtDQEBIXShbQ0BIXTIzKVtDSDNdKVtDQEhdMVtDQEhdMltDSDJdW0NIXT1DKFtDQEBdMzRbQ0gzXSlbQ0gyXUMoPU8pW0NIMl1bQ0gyXTQ=

>  <s_epik_cmdline>  (5) 
J2VwaWtfcHl0aG9uJywgJy1waHQnLCAnMi4wJywgJy1waCcsICc3LjAnLCAnLXRuJywgJzgnLCAnLW1hJywgJzIwMCcsICctaW1hZScsICc8aW5maWxlLm1hZT4nLCAnLW9tYWUnLCAnPG91dGZpbGUubWFlPic=

>  <r_lp_tautomer_probability>  (5) 
1

>  <r_epik_Ionization_Penalty>  (5) 
2.26186e-06

>  <r_epik_Ionization_Penalty_Charging>  (5) 
0

>  <r_epik_Ionization_Penalty_Neutral>  (5) 
2.26186e-06

>  <r_epik_State_Penalty>  (5) 
-0

>  <r_epik_Charging_Adjusted_Penalty>  (5) 
0

>  <i_epik_Tot_Q>  (5) 
0

>  <i_epik_Tot_abs_Q>  (5) 
0

>  <s_lp_Force_Field>  (5) 
OPLS3e

>  <r_lp_Energy>  (5) 
37.6946

>  <b_lp_Chiralities_Consistent>  (5) 
1

>  <s_lp_Variant>  (5) 
1:0-1

>  <s_i_glide_gridfile>  (5) 
pfpi4k_grid

>  <i_i_glide_lignum>  (5) 
2

>  <i_i_glide_rotatable_bonds>  (5) 
1

>  <r_i_docking_score>  (5) 
-3.37176

>  <r_i_glide_ligand_efficiency>  (5) 
-0.146598

>  <r_i_glide_ligand_efficiency_sa>  (5) 
-0.416906

>  <r_i_glide_ligand_efficiency_ln>  (5) 
-0.815321

>  <r_i_glide_gscore>  (5) 
-3.37176

>  <r_i_glide_lipo>  (5) 
-0.303768

>  <r_i_glide_hbond>  (5) 
-0.16

>  <r_i_glide_metal>  (5) 
-0

>  <r_i_glide_rewards>  (5) 
-1.25129

>  <r_i_glide_evdw>  (5) 
-21.5333

>  <r_i_glide_ecoul>  (5) 
-3.81439

>  <r_i_glide_erotb>  (5) 
0

>  <r_i_glide_esite>  (5) 
-0.00787774

>  <r_i_glide_emodel>  (5) 
-31.1995

>  <r_i_glide_energy>  (5) 
-25.3476

>  <r_i_glide_einternal>  (5) 
0.225673

>  <r_i_glide_intrahb_reward>  (5) 
-0

>  <i_i_glide_confnum>  (5) 
1

>  <i_i_glide_posenum>  (5) 
11

>  <r_i_glide_eff_state_penalty>  (5) 
0

>  <ligand_id>  (5) 
1

>  <original_smiles>  (5) 
CC1CC2C3CC=C4CC(=O)CCC4(C)C3C(C)C2(C)C1(C)O

>  <smiles>  (5) 
[H]OC1(C([H])([H])[H])C([H])(C([H])([H])[H])C([H])([H])C2([H])C3([H])C([H])([H])C([H])=C4C([H])([H])C(=O)C([H])([H])C([H])([H])C4(C([H])([H])[H])C3([H])C([H])(C([H])([H])[H])C21C([H])([H])[H]

$$$$
1:0:2
     RDKit          3D

 55 58  0  0  1  0  0  0  0  0999 V2000
    2.5400   -9.6806    2.0910 C   0  0  0  0  0  0  0  0  0  0  0  0
    3.3578   -8.4659    2.5802 C   0  0  2  0  0  0  0  0  0  0  0  0
    2.6115   -7.1369    2.4312 C   0  0  0  0  0  0  0  0  0  0  0  0
    3.6967   -6.0552    2.5381 C   0  0  2  0  0  0  0  0  0  0  0  0
    3.5652   -4.8764    1.5602 C   0  0  1  0  0  0  0  0  0  0  0  0
    2.7476   -3.6773    2.0545 C   0  0  0  0  0  0  0  0  0  0  0  0
    2.9010   -2.5110    1.0992 C   0  0  0  0  0  0  0  0  0  0  0  0
    3.9090   -2.3825    0.2151 C   0  0  0  0  0  0  0  0  0  0  0  0
    3.8823   -1.2823   -0.8340 C   0  0  0  0  0  0  0  0  0  0  0  0
    3.8463   -1.9200   -2.2215 C   0  0  0  0  0  0  0  0  0  0  0  0
    3.0736   -1.5488   -3.1010 O   0  0  0  0  0  0  0  0  0  0  0  0
    4.8791   -3.0092   -2.4884 C   0  0  0  0  0  0  0  0  0  0  0  0
    4.9723   -4.0142   -1.3185 C   0  0  0  0  0  0  0  0  0  0  0  0
    5.0782   -3.3846    0.0962 C   0  0  1  0  0  0  0  0  0  0  0  0
    6.4130   -2.6075    0.2240 C   0  0  0  0  0  0  0  0  0  0  0  0
    5.0007   -4.4627    1.2435 C   0  0  2  0  0  0  0  0  0  0  0  0
    5.6806   -5.8458    1.0851 C   0  0  1  0  0  0  0  0  0  0  0  0
    7.2184   -5.8354    1.0278 C   0  0  0  0  0  0  0  0  0  0  0  0
    5.0642   -6.7256    2.2357 C   0  0  1  0  0  0  0  0  0  0  0  0
    5.9154   -6.6328    3.5334 C   0  0  0  0  0  0  0  0  0  0  0  0
    4.7165   -8.2234    1.8879 C   0  0  1  0  0  0  0  0  0  0  0  0
    5.7804   -9.2719    2.2812 C   0  0  0  0  0  0  0  0  0  0  0  0
    4.5154   -8.4090    0.5031 O   0  0  0  0  0  0  0  0  0  0  0  0
    2.2482   -9.5961    1.0427 H   0  0  0  0  0  0  0  0  0  0  0  0
    1.6209   -9.7815    2.6676 H   0  0  0  0  0  0  0  0  0  0  0  0
    3.0955  -10.6120    2.2055 H   0  0  0  0  0  0  0  0  0  0  0  0
    3.5530   -8.6115    3.6429 H   0  0  0  0  0  0  0  0  0  0  0  0
    2.1182   -7.0995    1.4598 H   0  0  0  0  0  0  0  0  0  0  0  0
    1.8409   -7.0232    3.1957 H   0  0  0  0  0  0  0  0  0  0  0  0
    3.6947   -5.6720    3.5611 H   0  0  0  0  0  0  0  0  0  0  0  0
    3.1130   -5.2440    0.6375 H   0  0  0  0  0  0  0  0  0  0  0  0
    1.6954   -3.9532    2.1058 H   0  0  0  0  0  0  0  0  0  0  0  0
    3.0516   -3.3547    3.0510 H   0  0  0  0  0  0  0  0  0  0  0  0
    2.1056   -1.7790    1.1169 H   0  0  0  0  0  0  0  0  0  0  0  0
    3.0052   -0.6588   -0.6899 H   0  0  0  0  0  0  0  0  0  0  0  0
    4.7495   -0.6314   -0.7477 H   0  0  0  0  0  0  0  0  0  0  0  0
    4.6283   -3.5308   -3.4135 H   0  0  0  0  0  0  0  0  0  0  0  0
    5.8406   -2.5246   -2.6561 H   0  0  0  0  0  0  0  0  0  0  0  0
    4.0945   -4.6575   -1.3549 H   0  0  0  0  0  0  0  0  0  0  0  0
    5.8132   -4.6588   -1.5028 H   0  0  0  0  0  0  0  0  0  0  0  0
    7.2810   -3.2604    0.1603 H   0  0  0  0  0  0  0  0  0  0  0  0
    6.4700   -2.0746    1.1753 H   0  0  0  0  0  0  0  0  0  0  0  0
    6.5397   -1.8660   -0.5637 H   0  0  0  0  0  0  0  0  0  0  0  0
    5.4030   -3.9991    2.1480 H   0  0  0  0  0  0  0  0  0  0  0  0
    5.3436   -6.2286    0.1254 H   0  0  0  0  0  0  0  0  0  0  0  0
    7.6564   -5.2578    1.8421 H   0  0  0  0  0  0  0  0  0  0  0  0
    7.5690   -5.4152    0.0882 H   0  0  0  0  0  0  0  0  0  0  0  0
    7.6146   -6.8488    1.0788 H   0  0  0  0  0  0  0  0  0  0  0  0
    6.9020   -7.0843    3.4173 H   0  0  0  0  0  0  0  0  0  0  0  0
    5.4264   -7.1429    4.3664 H   0  0  0  0  0  0  0  0  0  0  0  0
    6.0701   -5.5962    3.8389 H   0  0  0  0  0  0  0  0  0  0  0  0
    5.9201   -9.3380    3.3593 H   0  0  0  0  0  0  0  0  0  0  0  0
    6.7462   -9.0467    1.8350 H   0  0  0  0  0  0  0  0  0  0  0  0
    5.4977  -10.2687    1.9486 H   0  0  0  0  0  0  0  0  0  0  0  0
    4.3083   -9.3251    0.3747 H   0  0  0  0  0  0  0  0  0  0  0  0
  1  2  1  0
  1 24  1  0
  1 25  1  0
  1 26  1  0
  2 21  1  0
  2  3  1  0
  2 27  1  1
  3  4  1  0
  3 28  1  0
  3 29  1  0
  4 19  1  0
  4  5  1  0
  4 30  1  1
  5 16  1  0
  5  6  1  0
  5 31  1  6
  6  7  1  0
  6 32  1  0
  6 33  1  0
  7  8  2  0
  7 34  1  0
  8 14  1  0
  8  9  1  0
  9 10  1  0
  9 35  1  0
  9 36  1  0
 10 11  2  0
 10 12  1  0
 12 13  1  0
 12 37  1  0
 12 38  1  0
 13 14  1  0
 13 39  1  0
 13 40  1  0
 14 15  1  6
 14 16  1  0
 15 41  1  0
 15 42  1  0
 15 43  1  0
 16 17  1  0
 16 44  1  1
 17 18  1  0
 17 19  1  0
 17 45  1  6
 18 46  1  0
 18 47  1  0
 18 48  1  0
 19 20  1  1
 19 21  1  0
 20 49  1  0
 20 50  1  0
 20 51  1  0
 21 22  1  0
 21 23  1  6
 22 52  1  0
 22 53  1  0
 22 54  1  0
 23 55  1  0
M  END
>  <i_m_ct_stereo_status>  (6) 
1

>  <s_m_source_file>  (6) 
/var/tmp/pbs.5076255.sched01/tmpr7id634h/0ay6m0hv_.sdf

>  <i_m_source_file_index>  (6) 
2

>  <i_lp_mmshare_version>  (6) 
48012

>  <i_f3d_flags>  (6) 
0

>  <s_epik_input>  (6) 
W0NIM11bQ0BIXShbQ0gyXTEpW0NAQF0oW0NIM10pKFtPSF0pW0NAQF0oW0NIM10pKFtDQEBIXShbQ0BIXTIzKVtDSDNdKVtDQEhdMVtDQEhdMltDSDJdW0NIXT1DKFtDQEBdMzRbQ0gzXSlbQ0gyXUMoPU8pW0NIMl1bQ0gyXTQ=

>  <s_epik_cmdline>  (6) 
J2VwaWtfcHl0aG9uJywgJy1waHQnLCAnMi4wJywgJy1waCcsICc3LjAnLCAnLXRuJywgJzgnLCAnLW1hJywgJzIwMCcsICctaW1hZScsICc8aW5maWxlLm1hZT4nLCAnLW9tYWUnLCAnPG91dGZpbGUubWFlPic=

>  <r_lp_tautomer_probability>  (6) 
1

>  <r_epik_Ionization_Penalty>  (6) 
2.26186e-06

>  <r_epik_Ionization_Penalty_Charging>  (6) 
0

>  <r_epik_Ionization_Penalty_Neutral>  (6) 
2.26186e-06

>  <r_epik_State_Penalty>  (6) 
-0

>  <r_epik_Charging_Adjusted_Penalty>  (6) 
0

>  <i_epik_Tot_Q>  (6) 
0

>  <i_epik_Tot_abs_Q>  (6) 
0

>  <s_lp_Force_Field>  (6) 
OPLS3e

>  <r_lp_Energy>  (6) 
37.6946

>  <b_lp_Chiralities_Consistent>  (6) 
1

>  <s_lp_Variant>  (6) 
1:0-1

>  <s_i_glide_gridfile>  (6) 
pfpi4k_grid

>  <i_i_glide_lignum>  (6) 
2

>  <i_i_glide_rotatable_bonds>  (6) 
1

>  <r_i_docking_score>  (6) 
-3.3028

>  <r_i_glide_ligand_efficiency>  (6) 
-0.1436

>  <r_i_glide_ligand_efficiency_sa>  (6) 
-0.408379

>  <r_i_glide_ligand_efficiency_ln>  (6) 
-0.798647

>  <r_i_glide_gscore>  (6) 
-3.3028

>  <r_i_glide_lipo>  (6) 
-0.451581

>  <r_i_glide_hbond>  (6) 
0

>  <r_i_glide_metal>  (6) 
-0

>  <r_i_glide_rewards>  (6) 
-1.25129

>  <r_i_glide_evdw>  (6) 
-27.6357

>  <r_i_glide_ecoul>  (6) 
-1.26465

>  <r_i_glide_erotb>  (6) 
0

>  <r_i_glide_esite>  (6) 
-0.0284496

>  <r_i_glide_emodel>  (6) 
-34.8393

>  <r_i_glide_energy>  (6) 
-28.9003

>  <r_i_glide_einternal>  (6) 
0.00656053

>  <r_i_glide_intrahb_reward>  (6) 
-0

>  <i_i_glide_confnum>  (6) 
1

>  <i_i_glide_posenum>  (6) 
2

>  <r_i_glide_eff_state_penalty>  (6) 
0

>  <ligand_id>  (6) 
1

>  <original_smiles>  (6) 
CC1CC2C3CC=C4CC(=O)CCC4(C)C3C(C)C2(C)C1(C)O

>  <smiles>  (6) 
[H]OC1(C([H])([H])[H])C([H])(C([H])([H])[H])C([H])([H])C2([H])C3([H])C([H])([H])C([H])=C4C([H])([H])C(=O)C([H])([H])C([H])([H])C4(C([H])([H])[H])C3([H])C([H])(C([H])([H])[H])C21C([H])([H])[H]

$$$$
2:1:0
     RDKit          3D

 60 66  0  0  1  0  0  0  0  0999 V2000
    3.1318   -8.2337    6.8074 O   0  0  0  0  0  0  0  0  0  0  0  0
    3.4090   -7.6337    5.6088 C   0  0  0  0  0  0  0  0  0  0  0  0
    3.1477   -6.2480    5.4344 C   0  0  0  0  0  0  0  0  0  0  0  0
    3.4810   -5.5914    4.2290 C   0  0  0  0  0  0  0  0  0  0  0  0
    4.0452   -6.3302    3.1651 C   0  0  0  0  0  0  0  0  0  0  0  0
    4.2007   -7.6881    3.3638 C   0  0  0  0  0  0  0  0  0  0  0  0
    3.9663   -8.3858    4.5575 C   0  0  0  0  0  0  0  0  0  0  0  0
    4.4961   -9.8249    4.5868 C   0  0  0  0  0  0  0  0  0  0  0  0
    4.7427  -10.4674    3.1916 C   0  0  2  0  0  0  0  0  0  0  0  0
    5.5351   -9.5082    2.2610 C   0  0  2  0  0  0  0  0  0  0  0  0
    6.9263   -9.1028    2.7546 C   0  0  0  0  0  0  0  0  0  0  0  0
    7.5716   -8.1458    1.7450 C   0  0  0  0  0  0  0  0  0  0  0  0
    6.8053   -6.8382    1.6155 C   0  0  0  0  0  0  0  0  0  0  0  0
    7.4636   -5.7500    1.6409 N   0  0  0  0  0  0  0  0  0  0  0  0
    6.6616   -4.6185    1.4740 O   0  0  0  0  0  0  0  0  0  0  0  0
    7.3050   -3.7453    0.5696 C   0  0  0  0  0  0  0  0  0  0  0  0
    6.3531   -2.6222    0.2110 C   0  0  0  0  0  0  0  0  0  0  0  0
    6.5222   -1.8949   -1.1054 C   0  0  0  0  0  0  0  0  0  0  0  0
    6.8404   -1.1939    0.1928 C   0  0  0  0  0  0  0  0  0  0  0  0
    5.2792   -6.9813    1.3808 C   0  0  2  0  0  0  0  0  0  0  0  0
    4.4984   -5.9031    1.9584 O   0  0  0  0  0  0  0  0  0  0  0  0
    4.6614   -8.2577    2.0499 C   0  0  2  0  0  0  0  0  0  0  0  0
    3.4422   -8.7372    1.2237 C   0  0  0  0  0  0  0  0  0  0  0  0
    2.6251   -9.7725    1.9857 C   0  0  0  0  0  0  0  0  0  0  0  0
    3.4684  -10.8971    2.4998 N   0  0  2  0  0  0  0  0  0  0  0  0
    2.6720  -11.9319    3.2362 C   0  0  0  0  0  0  0  0  0  0  0  0
    1.6127  -11.3506    4.1830 C   0  0  0  0  0  0  0  0  0  0  0  0
    0.3585  -12.1149    4.5463 C   0  0  0  0  0  0  0  0  0  0  0  0
    0.2671  -10.9066    3.6497 C   0  0  0  0  0  0  0  0  0  0  0  0
    3.2575   -9.1709    6.7980 H   0  0  0  0  0  0  0  0  0  0  0  0
    2.7159   -5.6836    6.2460 H   0  0  0  0  0  0  0  0  0  0  0  0
    3.3239   -4.5280    4.1158 H   0  0  0  0  0  0  0  0  0  0  0  0
    5.4591   -9.7833    5.1011 H   0  0  0  0  0  0  0  0  0  0  0  0
    3.8844  -10.4605    5.2157 H   0  0  0  0  0  0  0  0  0  0  0  0
    5.3283  -11.3736    3.3305 H   0  0  0  0  0  0  0  0  0  0  0  0
    5.6799  -10.0085    1.2997 H   0  0  0  0  0  0  0  0  0  0  0  0
    6.8753   -8.6129    3.7307 H   0  0  0  0  0  0  0  0  0  0  0  0
    7.5491   -9.9886    2.8844 H   0  0  0  0  0  0  0  0  0  0  0  0
    8.6026   -7.9395    2.0436 H   0  0  0  0  0  0  0  0  0  0  0  0
    7.6196   -8.6179    0.7649 H   0  0  0  0  0  0  0  0  0  0  0  0
    8.2272   -3.3462    0.9965 H   0  0  0  0  0  0  0  0  0  0  0  0
    7.5609   -4.2852   -0.3410 H   0  0  0  0  0  0  0  0  0  0  0  0
    5.3214   -2.7927    0.5189 H   0  0  0  0  0  0  0  0  0  0  0  0
    7.3423   -2.2249   -1.7443 H   0  0  0  0  0  0  0  0  0  0  0  0
    5.6180   -1.5872   -1.6288 H   0  0  0  0  0  0  0  0  0  0  0  0
    6.1457   -0.4304    0.5385 H   0  0  0  0  0  0  0  0  0  0  0  0
    7.8855   -1.0299    0.4545 H   0  0  0  0  0  0  0  0  0  0  0  0
    5.1240   -6.9964    0.3004 H   0  0  0  0  0  0  0  0  0  0  0  0
    2.7782   -7.9051    0.9918 H   0  0  0  0  0  0  0  0  0  0  0  0
    3.7698   -9.1677    0.2716 H   0  0  0  0  0  0  0  0  0  0  0  0
    2.1312   -9.2600    2.8084 H   0  0  0  0  0  0  0  0  0  0  0  0
    1.8503  -10.1789    1.3426 H   0  0  0  0  0  0  0  0  0  0  0  0
    2.1957  -12.5577    2.4881 H   0  0  0  0  0  0  0  0  0  0  0  0
    3.3333  -12.5888    3.7921 H   0  0  0  0  0  0  0  0  0  0  0  0
    1.9952  -10.7706    5.0198 H   0  0  0  0  0  0  0  0  0  0  0  0
    0.1868  -13.0896    4.1001 H   0  0  0  0  0  0  0  0  0  0  0  0
   -0.0072  -11.9990    5.5642 H   0  0  0  0  0  0  0  0  0  0  0  0
   -0.1001   -9.9727    4.0689 H   0  0  0  0  0  0  0  0  0  0  0  0
    0.0734  -11.0591    2.5857 H   0  0  0  0  0  0  0  0  0  0  0  0
    3.7897  -11.3822    1.6411 H   0  0  0  0  0  0  0  0  0  0  0  0
  1  2  1  0
  1 30  1  0
  2  7  2  0
  2  3  1  0
  3  4  2  0
  3 31  1  0
  4  5  1  0
  4 32  1  0
  5 21  1  0
  5  6  2  0
  6 22  1  0
  6  7  1  0
  7  8  1  0
  8  9  1  0
  8 33  1  0
  8 34  1  0
  9 25  1  0
  9 10  1  0
  9 35  1  1
 10 22  1  0
 10 11  1  0
 10 36  1  6
 11 12  1  0
 11 37  1  0
 11 38  1  0
 12 13  1  0
 12 39  1  0
 12 40  1  0
 13 14  2  3
 13 20  1  0
 14 15  1  0
 15 16  1  0
 16 17  1  0
 16 41  1  0
 16 42  1  0
 17 19  1  0
 17 18  1  0
 17 43  1  0
 18 19  1  0
 18 44  1  0
 18 45  1  0
 19 46  1  0
 19 47  1  0
 20 21  1  0
 20 22  1  0
 20 48  1  6
 22 23  1  6
 23 24  1  0
 23 49  1  0
 23 50  1  0
 24 25  1  0
 24 51  1  0
 24 52  1  0
 25 26  1  0
 25 60  1  6
 26 27  1  0
 26 53  1  0
 26 54  1  0
 27 29  1  0
 27 28  1  0
 27 55  1  0
 28 29  1  0
 28 56  1  0
 28 57  1  0
 29 58  1  0
 29 59  1  0
M  CHG  1  25   1
M  END
>  <i_m_ct_stereo_status>  (7) 
1

>  <s_m_source_file>  (7) 
/var/tmp/pbs.5076255.sched01/tmpr7id634h/0ay6m0hv_.sdf

>  <i_m_source_file_index>  (7) 
4

>  <i_lp_mmshare_version>  (7) 
48012

>  <i_f3d_flags>  (7) 
0

>  <s_epik_input>  (7) 
W0NAQF0xMjNjNGM1W2NIXVtjSF1jKFtPSF0pYzRbQ0gyXVtDQEBIXShOKFtDSDJdW0NIMl0zKVtDSDJdW0NIXTZbQ0gyXVtDSDJdNilbQ0BASF0xW0NIMl1bQ0gyXS9DKFtDQEBIXTJPNSk9TlxPW0NIMl1bQ0hdN1tDSDJdW0NIMl03

>  <s_epik_cmdline>  (7) 
J2VwaWtfcHl0aG9uJywgJy1waHQnLCAnMi4wJywgJy1waCcsICc3LjAnLCAnLXRuJywgJzgnLCAnLW1hJywgJzIwMCcsICctaW1hZScsICc8aW5maWxlLm1hZT4nLCAnLW9tYWUnLCAnPG91dGZpbGUubWFlPic=

>  <r_lp_tautomer_probability>  (7) 
1

>  <r_epik_Ionization_Penalty>  (7) 
0.0144647

>  <r_epik_Ionization_Penalty_Charging>  (7) 
0.0125596

>  <r_epik_Ionization_Penalty_Neutral>  (7) 
0.00190511

>  <r_epik_State_Penalty>  (7) 
0.00972868

>  <r_epik_Charging_Adjusted_Penalty>  (7) 
0.0222883

>  <i_epik_Tot_Q>  (7) 
1

>  <i_epik_Tot_abs_Q>  (7) 
1

>  <s_epik_Chemistry_Notes>  (7) 
This compound has an imine and may undergo hydrolysis.

>  <s_lp_Force_Field>  (7) 
OPLS3e

>  <r_lp_Energy>  (7) 
65.4884

>  <b_lp_Chiralities_Consistent>  (7) 
1

>  <s_lp_Variant>  (7) 
2:0-2

>  <s_i_glide_gridfile>  (7) 
pfpi4k_grid

>  <i_i_glide_lignum>  (7) 
4

>  <i_i_glide_rotatable_bonds>  (7) 
6

>  <r_i_docking_score>  (7) 
-3.18031

>  <r_i_glide_ligand_efficiency>  (7) 
-0.109666

>  <r_i_glide_ligand_efficiency_sa>  (7) 
-0.336928

>  <r_i_glide_ligand_efficiency_ln>  (7) 
-0.72821

>  <r_i_glide_gscore>  (7) 
-3.18031

>  <r_i_glide_lipo>  (7) 
-0.413328

>  <r_i_glide_hbond>  (7) 
-0.2

>  <r_i_glide_metal>  (7) 
-0

>  <r_i_glide_rewards>  (7) 
-0.819783

>  <r_i_glide_evdw>  (7) 
-22.0932

>  <r_i_glide_ecoul>  (7) 
-6.9749

>  <r_i_glide_erotb>  (7) 
0.500043

>  <r_i_glide_esite>  (7) 
-0.0963465

>  <r_i_glide_emodel>  (7) 
-32.2824

>  <r_i_glide_energy>  (7) 
-29.0681

>  <r_i_glide_einternal>  (7) 
9.12812

>  <r_i_glide_intrahb_reward>  (7) 
-0

>  <i_i_glide_confnum>  (7) 
2

>  <i_i_glide_posenum>  (7) 
40

>  <r_i_glide_eff_state_penalty>  (7) 
0

>  <ligand_id>  (7) 
2

>  <original_smiles>  (7) 
Oc1ccc2c3c1CC1C4CCC(=NOCC5CC5)C(O2)C34CCN1CC1CC1

>  <smiles>  (7) 
[H]Oc1c([H])c([H])c2c3c1C([H])([H])C1([H])C4([H])C([H])([H])C([H])([H])C(=NOC([H])([H])C5([H])C([H])([H])C5([H])[H])C([H])(O2)C34C([H])([H])C([H])([H])[N+]1([H])C([H])([H])C1([H])C([H])([H])C1([H])[H]

$$$$
2:1:1
     RDKit          3D

 60 66  0  0  1  0  0  0  0  0999 V2000
    1.8806   -7.4230    6.8293 O   0  0  0  0  0  0  0  0  0  0  0  0
    2.0093   -6.9112    5.5689 C   0  0  0  0  0  0  0  0  0  0  0  0
    1.3345   -5.7109    5.2226 C   0  0  0  0  0  0  0  0  0  0  0  0
    1.4996   -5.1330    3.9398 C   0  0  0  0  0  0  0  0  0  0  0  0
    2.3123   -5.7722    2.9818 C   0  0  0  0  0  0  0  0  0  0  0  0
    2.8832   -6.9743    3.3519 C   0  0  0  0  0  0  0  0  0  0  0  0
    2.8230   -7.5626    4.6248 C   0  0  0  0  0  0  0  0  0  0  0  0
    3.7631   -8.7559    4.8362 C   0  0  0  0  0  0  0  0  0  0  0  0
    4.2683   -9.4542    3.5448 C   0  0  2  0  0  0  0  0  0  0  0  0
    4.7661   -8.4078    2.4994 C   0  0  2  0  0  0  0  0  0  0  0  0
    5.9376   -7.5311    2.9376 C   0  0  0  0  0  0  0  0  0  0  0  0
    6.2883   -6.5531    1.8065 C   0  0  0  0  0  0  0  0  0  0  0  0
    5.1600   -5.5680    1.5109 C   0  0  0  0  0  0  0  0  0  0  0  0
    5.4365   -4.3278    1.4384 N   0  0  0  0  0  0  0  0  0  0  0  0
    4.3366   -3.5380    1.0871 O   0  0  0  0  0  0  0  0  0  0  0  0
    4.6994   -2.1758    1.2081 C   0  0  0  0  0  0  0  0  0  0  0  0
    3.4801   -1.3313    0.9080 C   0  0  0  0  0  0  0  0  0  0  0  0
    3.3570    0.0581    1.4916 C   0  0  0  0  0  0  0  0  0  0  0  0
    2.4748   -1.0529    2.0031 C   0  0  0  0  0  0  0  0  0  0  0  0
    3.7670   -6.2112    1.2931 C   0  0  2  0  0  0  0  0  0  0  0  0
    2.6614   -5.3753    1.7290 O   0  0  0  0  0  0  0  0  0  0  0  0
    3.5615   -7.5248    2.1246 C   0  0  2  0  0  0  0  0  0  0  0  0
    2.6062   -8.4620    1.3556 C   0  0  0  0  0  0  0  0  0  0  0  0
    2.1237   -9.5874    2.2400 C   0  0  0  0  0  0  0  0  0  0  0  0
    3.2293  -10.3408    2.9058 N   0  0  2  0  0  0  0  0  0  0  0  0
    2.7442  -11.4736    3.7541 C   0  0  0  0  0  0  0  0  0  0  0  0
    1.5410  -11.1592    4.6500 C   0  0  0  0  0  0  0  0  0  0  0  0
    0.3403  -12.0816    4.7568 C   0  0  0  0  0  0  0  0  0  0  0  0
    0.2031  -10.7779    4.0494 C   0  0  0  0  0  0  0  0  0  0  0  0
    2.3020   -8.2596    6.9440 H   0  0  0  0  0  0  0  0  0  0  0  0
    0.7175   -5.2192    5.9566 H   0  0  0  0  0  0  0  0  0  0  0  0
    1.0228   -4.1936    3.6986 H   0  0  0  0  0  0  0  0  0  0  0  0
    4.6268   -8.3779    5.3836 H   0  0  0  0  0  0  0  0  0  0  0  0
    3.3103   -9.4638    5.5283 H   0  0  0  0  0  0  0  0  0  0  0  0
    5.1052  -10.1084    3.8114 H   0  0  0  0  0  0  0  0  0  0  0  0
    5.0975   -8.9528    1.6128 H   0  0  0  0  0  0  0  0  0  0  0  0
    5.6888   -6.9728    3.8428 H   0  0  0  0  0  0  0  0  0  0  0  0
    6.7937   -8.1593    3.1827 H   0  0  0  0  0  0  0  0  0  0  0  0
    7.1958   -6.0097    2.0743 H   0  0  0  0  0  0  0  0  0  0  0  0
    6.5173   -7.1081    0.8953 H   0  0  0  0  0  0  0  0  0  0  0  0
    5.0528   -1.9553    2.2189 H   0  0  0  0  0  0  0  0  0  0  0  0
    5.4974   -1.9234    0.5088 H   0  0  0  0  0  0  0  0  0  0  0  0
    3.0703   -1.4754   -0.0933 H   0  0  0  0  0  0  0  0  0  0  0  0
    4.1647    0.4087    2.1306 H   0  0  0  0  0  0  0  0  0  0  0  0
    2.8792    0.8257    0.8845 H   0  0  0  0  0  0  0  0  0  0  0  0
    1.4233   -1.0274    1.7228 H   0  0  0  0  0  0  0  0  0  0  0  0
    2.6892   -1.4623    2.9889 H   0  0  0  0  0  0  0  0  0  0  0  0
    3.6652   -6.4101    0.2213 H   0  0  0  0  0  0  0  0  0  0  0  0
    1.7220   -7.9272    1.0030 H   0  0  0  0  0  0  0  0  0  0  0  0
    3.1046   -8.9116    0.5020 H   0  0  0  0  0  0  0  0  0  0  0  0
    1.4744   -9.1135    2.9772 H   0  0  0  0  0  0  0  0  0  0  0  0
    1.5057  -10.2476    1.6266 H   0  0  0  0  0  0  0  0  0  0  0  0
    2.4821  -12.2972    3.0906 H   0  0  0  0  0  0  0  0  0  0  0  0
    3.5497  -11.8456    4.3909 H   0  0  0  0  0  0  0  0  0  0  0  0
    1.7809  -10.7201    5.6199 H   0  0  0  0  0  0  0  0  0  0  0  0
    0.2853  -12.9768    4.1442 H   0  0  0  0  0  0  0  0  0  0  0  0
   -0.1620  -12.1607    5.7017 H   0  0  0  0  0  0  0  0  0  0  0  0
   -0.2729   -9.9343    4.5512 H   0  0  0  0  0  0  0  0  0  0  0  0
   -0.0071  -10.8734    2.9897 H   0  0  0  0  0  0  0  0  0  0  0  0
    3.7267  -10.8167    2.1506 H   0  0  0  0  0  0  0  0  0  0  0  0
  1  2  1  0
  1 30  1  0
  2  7  2  0
  2  3  1  0
  3  4  2  0
  3 31  1  0
  4  5  1  0
  4 32  1  0
  5 21  1  0
  5  6  2  0
  6 22  1  0
  6  7  1  0
  7  8  1  0
  8  9  1  0
  8 33  1  0
  8 34  1  0
  9 25  1  0
  9 10  1  0
  9 35  1  1
 10 22  1  0
 10 11  1  0
 10 36  1  6
 11 12  1  0
 11 37  1  0
 11 38  1  0
 12 13  1  0
 12 39  1  0
 12 40  1  0
 13 14  2  3
 13 20  1  0
 14 15  1  0
 15 16  1  0
 16 17  1  0
 16 41  1  0
 16 42  1  0
 17 19  1  0
 17 18  1  0
 17 43  1  0
 18 19  1  0
 18 44  1  0
 18 45  1  0
 19 46  1  0
 19 47  1  0
 20 21  1  0
 20 22  1  0
 20 48  1  6
 22 23  1  6
 23 24  1  0
 23 49  1  0
 23 50  1  0
 24 25  1  0
 24 51  1  0
 24 52  1  0
 25 26  1  0
 25 60  1  6
 26 27  1  0
 26 53  1  0
 26 54  1  0
 27 29  1  0
 27 28  1  0
 27 55  1  0
 28 29  1  0
 28 56  1  0
 28 57  1  0
 29 58  1  0
 29 59  1  0
M  CHG  1  25   1
M  END
>  <i_m_ct_stereo_status>  (8) 
1

>  <s_m_source_file>  (8) 
/var/tmp/pbs.5076255.sched01/tmpr7id634h/0ay6m0hv_.sdf

>  <i_m_source_file_index>  (8) 
4

>  <i_lp_mmshare_version>  (8) 
48012

>  <i_f3d_flags>  (8) 
0

>  <s_epik_input>  (8) 
W0NAQF0xMjNjNGM1W2NIXVtjSF1jKFtPSF0pYzRbQ0gyXVtDQEBIXShOKFtDSDJdW0NIMl0zKVtDSDJdW0NIXTZbQ0gyXVtDSDJdNilbQ0BASF0xW0NIMl1bQ0gyXS9DKFtDQEBIXTJPNSk9TlxPW0NIMl1bQ0hdN1tDSDJdW0NIMl03

>  <s_epik_cmdline>  (8) 
J2VwaWtfcHl0aG9uJywgJy1waHQnLCAnMi4wJywgJy1waCcsICc3LjAnLCAnLXRuJywgJzgnLCAnLW1hJywgJzIwMCcsICctaW1hZScsICc8aW5maWxlLm1hZT4nLCAnLW9tYWUnLCAnPG91dGZpbGUubWFlPic=

>  <r_lp_tautomer_probability>  (8) 
1

>  <r_epik_Ionization_Penalty>  (8) 
0.0144647

>  <r_epik_Ionization_Penalty_Charging>  (8) 
0.0125596

>  <r_epik_Ionization_Penalty_Neutral>  (8) 
0.00190511

>  <r_epik_State_Penalty>  (8) 
0.00972868

>  <r_epik_Charging_Adjusted_Penalty>  (8) 
0.0222883

>  <i_epik_Tot_Q>  (8) 
1

>  <i_epik_Tot_abs_Q>  (8) 
1

>  <s_epik_Chemistry_Notes>  (8) 
This compound has an imine and may undergo hydrolysis.

>  <s_lp_Force_Field>  (8) 
OPLS3e

>  <r_lp_Energy>  (8) 
65.4884

>  <b_lp_Chiralities_Consistent>  (8) 
1

>  <s_lp_Variant>  (8) 
2:0-2

>  <s_i_glide_gridfile>  (8) 
pfpi4k_grid

>  <i_i_glide_lignum>  (8) 
4

>  <i_i_glide_rotatable_bonds>  (8) 
6

>  <r_i_docking_score>  (8) 
-2.32369

>  <r_i_glide_ligand_efficiency>  (8) 
-0.0801272

>  <r_i_glide_ligand_efficiency_sa>  (8) 
-0.246176

>  <r_i_glide_ligand_efficiency_ln>  (8) 
-0.532066

>  <r_i_glide_gscore>  (8) 
-2.32369

>  <r_i_glide_lipo>  (8) 
-0.263295

>  <r_i_glide_hbond>  (8) 
-0.0747791

>  <r_i_glide_metal>  (8) 
-0

>  <r_i_glide_rewards>  (8) 
-0.778746

>  <r_i_glide_evdw>  (8) 
-20.3142

>  <r_i_glide_ecoul>  (8) 
-4.33605

>  <r_i_glide_erotb>  (8) 
0.500043

>  <r_i_glide_esite>  (8) 
-0.0407976

>  <r_i_glide_emodel>  (8) 
-25.2311

>  <r_i_glide_energy>  (8) 
-24.6502

>  <r_i_glide_einternal>  (8) 
8.0593

>  <r_i_glide_intrahb_reward>  (8) 
-0

>  <i_i_glide_confnum>  (8) 
2

>  <i_i_glide_posenum>  (8) 
1

>  <r_i_glide_eff_state_penalty>  (8) 
0

>  <ligand_id>  (8) 
2

>  <original_smiles>  (8) 
Oc1ccc2c3c1CC1C4CCC(=NOCC5CC5)C(O2)C34CCN1CC1CC1

>  <smiles>  (8) 
[H]Oc1c([H])c([H])c2c3c1C([H])([H])C1([H])C4([H])C([H])([H])C([H])([H])C(=NOC([H])([H])C5([H])C([H])([H])C5([H])[H])C([H])(O2)C34C([H])([H])C([H])([H])[N+]1([H])C([H])([H])C1([H])C([H])([H])C1([H])[H]

$$$$
2:1:2
     RDKit          3D

 60 66  0  0  1  0  0  0  0  0999 V2000
   -1.3206   -3.6919    6.8978 O   0  0  0  0  0  0  0  0  0  0  0  0
   -0.1161   -3.4168    6.3153 C   0  0  0  0  0  0  0  0  0  0  0  0
    0.2262   -2.0812    5.9791 C   0  0  0  0  0  0  0  0  0  0  0  0
    1.4998   -1.7688    5.4398 C   0  0  0  0  0  0  0  0  0  0  0  0
    2.4305   -2.7970    5.1962 C   0  0  0  0  0  0  0  0  0  0  0  0
    2.0106   -4.0822    5.4577 C   0  0  0  0  0  0  0  0  0  0  0  0
    0.7972   -4.4597    6.0553 C   0  0  0  0  0  0  0  0  0  0  0  0
    0.7081   -5.9340    6.4554 C   0  0  0  0  0  0  0  0  0  0  0  0
    1.7260   -6.8954    5.7858 C   0  0  2  0  0  0  0  0  0  0  0  0
    3.1618   -6.2902    5.7892 C   0  0  2  0  0  0  0  0  0  0  0  0
    3.7904   -6.0209    7.1648 C   0  0  0  0  0  0  0  0  0  0  0  0
    5.1945   -5.4241    6.9814 C   0  0  0  0  0  0  0  0  0  0  0  0
    5.1639   -4.0658    6.2929 C   0  0  0  0  0  0  0  0  0  0  0  0
    5.8318   -3.1096    6.8039 N   0  0  0  0  0  0  0  0  0  0  0  0
    5.7768   -1.9298    6.0550 O   0  0  0  0  0  0  0  0  0  0  0  0
    6.6226   -0.9663    6.6544 C   0  0  0  0  0  0  0  0  0  0  0  0
    6.6214    0.2834    5.7951 C   0  0  0  0  0  0  0  0  0  0  0  0
    7.8132    1.2176    5.8131 C   0  0  0  0  0  0  0  0  0  0  0  0
    6.5089    1.6502    6.4325 C   0  0  0  0  0  0  0  0  0  0  0  0
    4.3340   -4.0132    4.9840 C   0  0  2  0  0  0  0  0  0  0  0  0
    3.7176   -2.7244    4.7495 O   0  0  0  0  0  0  0  0  0  0  0  0
    3.1039   -4.9912    4.9696 C   0  0  2  0  0  0  0  0  0  0  0  0
    2.7911   -5.4275    3.5179 C   0  0  0  0  0  0  0  0  0  0  0  0
    1.4362   -6.1446    3.4168 C   0  0  0  0  0  0  0  0  0  0  0  0
    1.3320   -7.2766    4.3852 N   0  0  2  0  0  0  0  0  0  0  0  0
    0.0349   -8.0096    4.2897 C   0  0  0  0  0  0  0  0  0  0  0  0
   -0.1325   -8.7483    2.9631 C   0  0  0  0  0  0  0  0  0  0  0  0
   -1.4306   -9.4542    2.6331 C   0  0  0  0  0  0  0  0  0  0  0  0
   -0.1908  -10.2570    2.9231 C   0  0  0  0  0  0  0  0  0  0  0  0
   -1.4243   -4.6104    7.0956 H   0  0  0  0  0  0  0  0  0  0  0  0
   -0.4785   -1.2883    6.1589 H   0  0  0  0  0  0  0  0  0  0  0  0
    1.7678   -0.7464    5.2252 H   0  0  0  0  0  0  0  0  0  0  0  0
    0.8678   -5.9692    7.5333 H   0  0  0  0  0  0  0  0  0  0  0  0
   -0.3166   -6.2770    6.3144 H   0  0  0  0  0  0  0  0  0  0  0  0
    1.7464   -7.8207    6.3638 H   0  0  0  0  0  0  0  0  0  0  0  0
    3.8245   -6.9998    5.2924 H   0  0  0  0  0  0  0  0  0  0  0  0
    3.1805   -5.3306    7.7516 H   0  0  0  0  0  0  0  0  0  0  0  0
    3.8541   -6.9470    7.7372 H   0  0  0  0  0  0  0  0  0  0  0  0
    5.6860   -5.3343    7.9514 H   0  0  0  0  0  0  0  0  0  0  0  0
    5.8160   -6.0970    6.3898 H   0  0  0  0  0  0  0  0  0  0  0  0
    6.2850   -0.7214    7.6635 H   0  0  0  0  0  0  0  0  0  0  0  0
    7.6428   -1.3471    6.7218 H   0  0  0  0  0  0  0  0  0  0  0  0
    6.1435    0.1581    4.8233 H   0  0  0  0  0  0  0  0  0  0  0  0
    8.6358    0.9677    6.4811 H   0  0  0  0  0  0  0  0  0  0  0  0
    8.1039    1.6890    4.8766 H   0  0  0  0  0  0  0  0  0  0  0  0
    5.9200    2.3988    5.9071 H   0  0  0  0  0  0  0  0  0  0  0  0
    6.4474    1.6874    7.5188 H   0  0  0  0  0  0  0  0  0  0  0  0
    5.0233   -4.2314    4.1652 H   0  0  0  0  0  0  0  0  0  0  0  0
    2.7859   -4.5707    2.8418 H   0  0  0  0  0  0  0  0  0  0  0  0
    3.5767   -6.0924    3.1471 H   0  0  0  0  0  0  0  0  0  0  0  0
    0.6181   -5.4378    3.5661 H   0  0  0  0  0  0  0  0  0  0  0  0
    1.3458   -6.4879    2.3895 H   0  0  0  0  0  0  0  0  0  0  0  0
   -0.0501   -8.7322    5.1026 H   0  0  0  0  0  0  0  0  0  0  0  0
   -0.8022   -7.3222    4.4045 H   0  0  0  0  0  0  0  0  0  0  0  0
    0.3138   -8.2779    2.0871 H   0  0  0  0  0  0  0  0  0  0  0  0
   -2.2269   -9.4558    3.3746 H   0  0  0  0  0  0  0  0  0  0  0  0
   -1.7607   -9.4151    1.5971 H   0  0  0  0  0  0  0  0  0  0  0  0
    0.3030  -10.7354    2.0789 H   0  0  0  0  0  0  0  0  0  0  0  0
   -0.1554  -10.7981    3.8676 H   0  0  0  0  0  0  0  0  0  0  0  0
    2.0256   -7.9567    4.0991 H   0  0  0  0  0  0  0  0  0  0  0  0
  1  2  1  0
  1 30  1  0
  2  7  2  0
  2  3  1  0
  3  4  2  0
  3 31  1  0
  4  5  1  0
  4 32  1  0
  5 21  1  0
  5  6  2  0
  6 22  1  0
  6  7  1  0
  7  8  1  0
  8  9  1  0
  8 33  1  0
  8 34  1  0
  9 25  1  0
  9 10  1  0
  9 35  1  1
 10 22  1  0
 10 11  1  0
 10 36  1  6
 11 12  1  0
 11 37  1  0
 11 38  1  0
 12 13  1  0
 12 39  1  0
 12 40  1  0
 13 14  2  3
 13 20  1  0
 14 15  1  0
 15 16  1  0
 16 17  1  0
 16 41  1  0
 16 42  1  0
 17 19  1  0
 17 18  1  0
 17 43  1  0
 18 19  1  0
 18 44  1  0
 18 45  1  0
 19 46  1  0
 19 47  1  0
 20 21  1  0
 20 22  1  0
 20 48  1  6
 22 23  1  6
 23 24  1  0
 23 49  1  0
 23 50  1  0
 24 25  1  0
 24 51  1  0
 24 52  1  0
 25 26  1  0
 25 60  1  6
 26 27  1  0
 26 53  1  0
 26 54  1  0
 27 29  1  0
 27 28  1  0
 27 55  1  0
 28 29  1  0
 28 56  1  0
 28 57  1  0
 29 58  1  0
 29 59  1  0
M  CHG  1  25   1
M  END
>  <i_m_ct_stereo_status>  (9) 
1

>  <s_m_source_file>  (9) 
/var/tmp/pbs.5076255.sched01/tmpr7id634h/0ay6m0hv_.sdf

>  <i_m_source_file_index>  (9) 
4

>  <i_lp_mmshare_version>  (9) 
48012

>  <i_f3d_flags>  (9) 
0

>  <s_epik_input>  (9) 
W0NAQF0xMjNjNGM1W2NIXVtjSF1jKFtPSF0pYzRbQ0gyXVtDQEBIXShOKFtDSDJdW0NIMl0zKVtDSDJdW0NIXTZbQ0gyXVtDSDJdNilbQ0BASF0xW0NIMl1bQ0gyXS9DKFtDQEBIXTJPNSk9TlxPW0NIMl1bQ0hdN1tDSDJdW0NIMl03

>  <s_epik_cmdline>  (9) 
J2VwaWtfcHl0aG9uJywgJy1waHQnLCAnMi4wJywgJy1waCcsICc3LjAnLCAnLXRuJywgJzgnLCAnLW1hJywgJzIwMCcsICctaW1hZScsICc8aW5maWxlLm1hZT4nLCAnLW9tYWUnLCAnPG91dGZpbGUubWFlPic=

>  <r_lp_tautomer_probability>  (9) 
1

>  <r_epik_Ionization_Penalty>  (9) 
0.0144647

>  <r_epik_Ionization_Penalty_Charging>  (9) 
0.0125596

>  <r_epik_Ionization_Penalty_Neutral>  (9) 
0.00190511

>  <r_epik_State_Penalty>  (9) 
0.00972868

>  <r_epik_Charging_Adjusted_Penalty>  (9) 
0.0222883

>  <i_epik_Tot_Q>  (9) 
1

>  <i_epik_Tot_abs_Q>  (9) 
1

>  <s_epik_Chemistry_Notes>  (9) 
This compound has an imine and may undergo hydrolysis.

>  <s_lp_Force_Field>  (9) 
OPLS3e

>  <r_lp_Energy>  (9) 
65.4884

>  <b_lp_Chiralities_Consistent>  (9) 
1

>  <s_lp_Variant>  (9) 
2:0-2

>  <s_i_glide_gridfile>  (9) 
pfpi4k_grid

>  <i_i_glide_lignum>  (9) 
4

>  <i_i_glide_rotatable_bonds>  (9) 
6

>  <r_i_docking_score>  (9) 
-1.9387

>  <r_i_glide_ligand_efficiency>  (9) 
-0.0668516

>  <r_i_glide_ligand_efficiency_sa>  (9) 
-0.205389

>  <r_i_glide_ligand_efficiency_ln>  (9) 
-0.443913

>  <r_i_glide_gscore>  (9) 
-1.9387

>  <r_i_glide_lipo>  (9) 
-0.410404

>  <r_i_glide_hbond>  (9) 
0

>  <r_i_glide_metal>  (9) 
-0

>  <r_i_glide_rewards>  (9) 
-0.713582

>  <r_i_glide_evdw>  (9) 
-19.1498

>  <r_i_glide_ecoul>  (9) 
-2.33132

>  <r_i_glide_erotb>  (9) 
0.500043

>  <r_i_glide_esite>  (9) 
-0.00756797

>  <r_i_glide_emodel>  (9) 
-25.6329

>  <r_i_glide_energy>  (9) 
-21.4811

>  <r_i_glide_einternal>  (9) 
1.31698

>  <r_i_glide_intrahb_reward>  (9) 
-0

>  <i_i_glide_confnum>  (9) 
2

>  <i_i_glide_posenum>  (9) 
4

>  <r_i_glide_eff_state_penalty>  (9) 
0

>  <ligand_id>  (9) 
2

>  <original_smiles>  (9) 
Oc1ccc2c3c1CC1C4CCC(=NOCC5CC5)C(O2)C34CCN1CC1CC1

>  <smiles>  (9) 
[H]Oc1c([H])c([H])c2c3c1C([H])([H])C1([H])C4([H])C([H])([H])C([H])([H])C(=NOC([H])([H])C5([H])C([H])([H])C5([H])[H])C([H])(O2)C34C([H])([H])C([H])([H])[N+]1([H])C([H])([H])C1([H])C([H])([H])C1([H])[H]

$$$$
2:2:0
     RDKit          3D

 59 65  0  0  1  0  0  0  0  0999 V2000
    2.3871    4.6164    2.1635 O   0  0  0  0  0  0  0  0  0  0  0  0
    2.5153    3.8212    3.2645 C   0  0  0  0  0  0  0  0  0  0  0  0
    3.0067    4.3814    4.4749 C   0  0  0  0  0  0  0  0  0  0  0  0
    3.0037    3.6221    5.6715 C   0  0  0  0  0  0  0  0  0  0  0  0
    2.5580    2.2824    5.6538 C   0  0  0  0  0  0  0  0  0  0  0  0
    2.2093    1.7633    4.4243 C   0  0  0  0  0  0  0  0  0  0  0  0
    2.1250    2.4690    3.2185 C   0  0  0  0  0  0  0  0  0  0  0  0
    1.5174    1.6970    2.0536 C   0  0  0  0  0  0  0  0  0  0  0  0
    1.3136    0.1794    2.2244 C   0  0  2  0  0  0  0  0  0  0  0  0
    0.8348   -0.1979    3.6481 C   0  0  2  0  0  0  0  0  0  0  0  0
   -0.5521    0.3346    4.0313 C   0  0  0  0  0  0  0  0  0  0  0  0
   -0.8872   -0.1049    5.4611 C   0  0  0  0  0  0  0  0  0  0  0  0
    0.0791    0.4976    6.4909 C   0  0  0  0  0  0  0  0  0  0  0  0
   -0.2771    1.1098    7.5515 N   0  0  0  0  0  0  0  0  0  0  0  0
   -1.6661    1.2830    7.6598 O   0  0  0  0  0  0  0  0  0  0  0  0
   -1.9303    2.2402    8.6747 C   0  0  0  0  0  0  0  0  0  0  0  0
   -3.1348    3.0622    8.2639 C   0  0  0  0  0  0  0  0  0  0  0  0
   -3.3530    4.4214    8.9023 C   0  0  0  0  0  0  0  0  0  0  0  0
   -4.2887    3.2857    9.2154 C   0  0  0  0  0  0  0  0  0  0  0  0
    1.5773    0.3073    6.1663 C   0  0  2  0  0  0  0  0  0  0  0  0
    2.3658    1.4052    6.6879 O   0  0  0  0  0  0  0  0  0  0  0  0
    1.9008    0.3091    4.6316 C   0  0  2  0  0  0  0  0  0  0  0  0
    3.1570   -0.5398    4.3290 C   0  0  0  0  0  0  0  0  0  0  0  0
    3.6457   -0.3383    2.8806 C   0  0  0  0  0  0  0  0  0  0  0  0
    2.5728   -0.5139    1.8908 N   0  0  0  0  0  0  0  0  0  0  0  0
    2.3904   -1.9045    1.4872 C   0  0  0  0  0  0  0  0  0  0  0  0
    3.5161   -2.3396    0.5633 C   0  0  0  0  0  0  0  0  0  0  0  0
    3.6894   -3.7946    0.1864 C   0  0  0  0  0  0  0  0  0  0  0  0
    4.6857   -3.1275    1.0986 C   0  0  0  0  0  0  0  0  0  0  0  0
    1.6519    4.4092    1.5842 H   0  0  0  0  0  0  0  0  0  0  0  0
    3.3330    5.4090    4.4887 H   0  0  0  0  0  0  0  0  0  0  0  0
    3.3071    4.0738    6.6038 H   0  0  0  0  0  0  0  0  0  0  0  0
    0.5487    2.1442    1.8405 H   0  0  0  0  0  0  0  0  0  0  0  0
    2.1560    1.8734    1.1966 H   0  0  0  0  0  0  0  0  0  0  0  0
    0.5652   -0.1182    1.4885 H   0  0  0  0  0  0  0  0  0  0  0  0
    0.7651   -1.2855    3.7137 H   0  0  0  0  0  0  0  0  0  0  0  0
   -0.5922    1.4243    3.9629 H   0  0  0  0  0  0  0  0  0  0  0  0
   -1.3056   -0.0477    3.3457 H   0  0  0  0  0  0  0  0  0  0  0  0
   -1.9222    0.1617    5.6688 H   0  0  0  0  0  0  0  0  0  0  0  0
   -0.8235   -1.1908    5.5453 H   0  0  0  0  0  0  0  0  0  0  0  0
   -2.1177    1.7410    9.6240 H   0  0  0  0  0  0  0  0  0  0  0  0
   -1.0971    2.9318    8.8351 H   0  0  0  0  0  0  0  0  0  0  0  0
   -3.3764    3.0005    7.2005 H   0  0  0  0  0  0  0  0  0  0  0  0
   -2.6610    4.7298    9.6857 H   0  0  0  0  0  0  0  0  0  0  0  0
   -3.7390    5.2309    8.2893 H   0  0  0  0  0  0  0  0  0  0  0  0
   -5.2864    3.3246    8.7871 H   0  0  0  0  0  0  0  0  0  0  0  0
   -4.2186    2.8396   10.2062 H   0  0  0  0  0  0  0  0  0  0  0  0
    1.8935   -0.6298    6.6323 H   0  0  0  0  0  0  0  0  0  0  0  0
    3.9725   -0.2948    5.0136 H   0  0  0  0  0  0  0  0  0  0  0  0
    2.9344   -1.5966    4.4941 H   0  0  0  0  0  0  0  0  0  0  0  0
    4.0596    0.6654    2.7706 H   0  0  0  0  0  0  0  0  0  0  0  0
    4.4716   -1.0133    2.6715 H   0  0  0  0  0  0  0  0  0  0  0  0
    2.3117   -2.5699    2.3463 H   0  0  0  0  0  0  0  0  0  0  0  0
    1.4747   -2.0001    0.9086 H   0  0  0  0  0  0  0  0  0  0  0  0
    3.7176   -1.6362   -0.2483 H   0  0  0  0  0  0  0  0  0  0  0  0
    3.0204   -4.5253    0.6361 H   0  0  0  0  0  0  0  0  0  0  0  0
    4.0362   -4.0311   -0.8177 H   0  0  0  0  0  0  0  0  0  0  0  0
    5.6653   -2.8800    0.6967 H   0  0  0  0  0  0  0  0  0  0  0  0
    4.6565   -3.3837    2.1562 H   0  0  0  0  0  0  0  0  0  0  0  0
  1  2  1  0
  1 30  1  0
  2  7  2  0
  2  3  1  0
  3  4  2  0
  3 31  1  0
  4  5  1  0
  4 32  1  0
  5 21  1  0
  5  6  2  0
  6 22  1  0
  6  7  1  0
  7  8  1  0
  8  9  1  0
  8 33  1  0
  8 34  1  0
  9 25  1  0
  9 10  1  0
  9 35  1  6
 10 22  1  0
 10 11  1  0
 10 36  1  6
 11 12  1  0
 11 37  1  0
 11 38  1  0
 12 13  1  0
 12 39  1  0
 12 40  1  0
 13 14  2  3
 13 20  1  0
 14 15  1  0
 15 16  1  0
 16 17  1  0
 16 41  1  0
 16 42  1  0
 17 19  1  0
 17 18  1  0
 17 43  1  0
 18 19  1  0
 18 44  1  0
 18 45  1  0
 19 46  1  0
 19 47  1  0
 20 21  1  0
 20 22  1  0
 20 48  1  1
 22 23  1  1
 23 24  1  0
 23 49  1  0
 23 50  1  0
 24 25  1  0
 24 51  1  0
 24 52  1  0
 25 26  1  0
 26 27  1  0
 26 53  1  0
 26 54  1  0
 27 29  1  0
 27 28  1  0
 27 55  1  0
 28 29  1  0
 28 56  1  0
 28 57  1  0
 29 58  1  0
 29 59  1  0
M  END
>  <i_m_ct_stereo_status>  (10) 
1

>  <s_m_source_file>  (10) 
/var/tmp/pbs.5076255.sched01/tmpr7id634h/0ay6m0hv_.sdf

>  <i_m_source_file_index>  (10) 
5

>  <i_lp_mmshare_version>  (10) 
48012

>  <i_f3d_flags>  (10) 
0

>  <s_epik_input>  (10) 
W0NAQF0xMjNjNGM1W2NIXVtjSF1jKFtPSF0pYzRbQ0gyXVtDQEBIXShOKFtDSDJdW0NIMl0zKVtDSDJdW0NIXTZbQ0gyXVtDSDJdNilbQ0BASF0xW0NIMl1bQ0gyXS9DKFtDQEBIXTJPNSk9TlxPW0NIMl1bQ0hdN1tDSDJdW0NIMl03

>  <s_epik_cmdline>  (10) 
J2VwaWtfcHl0aG9uJywgJy1waHQnLCAnMi4wJywgJy1waCcsICc3LjAnLCAnLXRuJywgJzgnLCAnLW1hJywgJzIwMCcsICctaW1hZScsICc8aW5maWxlLm1hZT4nLCAnLW9tYWUnLCAnPG91dGZpbGUubWFlPic=

>  <r_lp_tautomer_probability>  (10) 
1

>  <r_epik_Ionization_Penalty>  (10) 
2.28972

>  <r_epik_Ionization_Penalty_Charging>  (10) 
0

>  <r_epik_Ionization_Penalty_Neutral>  (10) 
2.28972

>  <r_epik_State_Penalty>  (10) 
2.43953

>  <r_epik_Charging_Adjusted_Penalty>  (10) 
2.43953

>  <i_epik_Tot_Q>  (10) 
0

>  <i_epik_Tot_abs_Q>  (10) 
0

>  <s_epik_Chemistry_Notes>  (10) 
This compound has an imine and may undergo hydrolysis.

>  <s_lp_Force_Field>  (10) 
OPLS3e

>  <r_lp_Energy>  (10) 
72.8462

>  <b_lp_Chiralities_Consistent>  (10) 
1

>  <s_lp_Variant>  (10) 
2:0-3

>  <s_i_glide_gridfile>  (10) 
pfpi4k_grid

>  <i_i_glide_lignum>  (10) 
5

>  <i_i_glide_rotatable_bonds>  (10) 
6

>  <r_i_docking_score>  (10) 
-2.64657

>  <r_i_glide_ligand_efficiency>  (10) 
-0.091261

>  <r_i_glide_ligand_efficiency_sa>  (10) 
-0.280383

>  <r_i_glide_ligand_efficiency_ln>  (10) 
-0.605997

>  <r_i_glide_gscore>  (10) 
-2.64657

>  <r_i_glide_lipo>  (10) 
-0.214712

>  <r_i_glide_hbond>  (10) 
-0.16

>  <r_i_glide_metal>  (10) 
-0

>  <r_i_glide_rewards>  (10) 
-0.719273

>  <r_i_glide_evdw>  (10) 
-21.3633

>  <r_i_glide_ecoul>  (10) 
-5.79698

>  <r_i_glide_erotb>  (10) 
0.502342

>  <r_i_glide_esite>  (10) 
-0.117214

>  <r_i_glide_emodel>  (10) 
-29.3315

>  <r_i_glide_energy>  (10) 
-27.1603

>  <r_i_glide_einternal>  (10) 
5.18994

>  <r_i_glide_intrahb_reward>  (10) 
-0

>  <i_i_glide_confnum>  (10) 
2

>  <i_i_glide_posenum>  (10) 
2

>  <r_i_glide_eff_state_penalty>  (10) 
0

>  <ligand_id>  (10) 
2

>  <original_smiles>  (10) 
Oc1ccc2c3c1CC1C4CCC(=NOCC5CC5)C(O2)C34CCN1CC1CC1

>  <smiles>  (10) 
[H]Oc1c([H])c([H])c2c3c1C([H])([H])C1([H])N(C([H])([H])C4([H])C([H])([H])C4([H])[H])C([H])([H])C([H])([H])C34C([H])(O2)C(=NOC([H])([H])C2([H])C([H])([H])C2([H])[H])C([H])([H])C([H])([H])C14[H]

$$$$
2:2:1
     RDKit          3D

 59 65  0  0  1  0  0  0  0  0999 V2000
    6.2172  -11.0829    1.1946 O   0  0  0  0  0  0  0  0  0  0  0  0
    6.1914  -10.8156    2.5244 C   0  0  0  0  0  0  0  0  0  0  0  0
    7.3102  -11.1473    3.3446 C   0  0  0  0  0  0  0  0  0  0  0  0
    7.3174  -10.8425    4.7291 C   0  0  0  0  0  0  0  0  0  0  0  0
    6.1924  -10.2070    5.3421 C   0  0  0  0  0  0  0  0  0  0  0  0
    5.1103  -10.0039    4.4973 C   0  0  0  0  0  0  0  0  0  0  0  0
    5.0497  -10.2317    3.1054 C   0  0  0  0  0  0  0  0  0  0  0  0
    3.7938   -9.7038    2.4273 C   0  0  0  0  0  0  0  0  0  0  0  0
    2.6341   -9.2134    3.3148 C   0  0  2  0  0  0  0  0  0  0  0  0
    3.1130   -8.4740    4.5867 C   0  0  2  0  0  0  0  0  0  0  0  0
    3.8254   -7.1426    4.3313 C   0  0  0  0  0  0  0  0  0  0  0  0
    4.2465   -6.5282    5.6756 C   0  0  0  0  0  0  0  0  0  0  0  0
    5.2578   -7.4056    6.4034 C   0  0  0  0  0  0  0  0  0  0  0  0
    6.3687   -6.9893    6.8646 N   0  0  0  0  0  0  0  0  0  0  0  0
    6.6029   -5.6171    6.6647 O   0  0  0  0  0  0  0  0  0  0  0  0
    7.9320   -5.3278    7.0700 C   0  0  0  0  0  0  0  0  0  0  0  0
    8.9574   -5.8492    6.0889 C   0  0  0  0  0  0  0  0  0  0  0  0
    9.6285   -7.1818    6.3242 C   0  0  0  0  0  0  0  0  0  0  0  0
   10.4238   -5.9081    6.4614 C   0  0  0  0  0  0  0  0  0  0  0  0
    4.8566   -8.8769    6.5643 C   0  0  2  0  0  0  0  0  0  0  0  0
    6.0256   -9.7332    6.5924 O   0  0  0  0  0  0  0  0  0  0  0  0
    4.0133   -9.4391    5.3617 C   0  0  2  0  0  0  0  0  0  0  0  0
    3.0710  -10.5763    5.8327 C   0  0  0  0  0  0  0  0  0  0  0  0
    2.4184  -11.3006    4.6350 C   0  0  0  0  0  0  0  0  0  0  0  0
    1.8017  -10.3790    3.6713 N   0  0  0  0  0  0  0  0  0  0  0  0
    0.4212  -10.0342    3.9898 C   0  0  0  0  0  0  0  0  0  0  0  0
   -0.3598   -9.8155    2.7148 C   0  0  0  0  0  0  0  0  0  0  0  0
   -0.6797   -8.4139    2.2091 C   0  0  0  0  0  0  0  0  0  0  0  0
   -1.7751   -9.2645    2.7779 C   0  0  0  0  0  0  0  0  0  0  0  0
    5.3441  -11.3808    0.8779 H   0  0  0  0  0  0  0  0  0  0  0  0
    8.1611  -11.6332    2.9066 H   0  0  0  0  0  0  0  0  0  0  0  0
    8.1771  -11.0700    5.3423 H   0  0  0  0  0  0  0  0  0  0  0  0
    4.1232   -8.8507    1.8220 H   0  0  0  0  0  0  0  0  0  0  0  0
    3.4313  -10.4308    1.6997 H   0  0  0  0  0  0  0  0  0  0  0  0
    2.0211   -8.5536    2.7056 H   0  0  0  0  0  0  0  0  0  0  0  0
    2.2507   -8.2251    5.1994 H   0  0  0  0  0  0  0  0  0  0  0  0
    4.7095   -7.2756    3.7055 H   0  0  0  0  0  0  0  0  0  0  0  0
    3.1602   -6.4540    3.8124 H   0  0  0  0  0  0  0  0  0  0  0  0
    4.6284   -5.5205    5.4971 H   0  0  0  0  0  0  0  0  0  0  0  0
    3.3779   -6.4059    6.3296 H   0  0  0  0  0  0  0  0  0  0  0  0
    8.0458   -4.2449    7.1334 H   0  0  0  0  0  0  0  0  0  0  0  0
    8.1321   -5.7088    8.0743 H   0  0  0  0  0  0  0  0  0  0  0  0
    8.7576   -5.5771    5.0499 H   0  0  0  0  0  0  0  0  0  0  0  0
    9.3341   -7.7082    7.2312 H   0  0  0  0  0  0  0  0  0  0  0  0
    9.8025   -7.8093    5.4540 H   0  0  0  0  0  0  0  0  0  0  0  0
   11.1608   -5.7009    5.6887 H   0  0  0  0  0  0  0  0  0  0  0  0
   10.6936   -5.5778    7.4645 H   0  0  0  0  0  0  0  0  0  0  0  0
    4.3186   -8.9692    7.5085 H   0  0  0  0  0  0  0  0  0  0  0  0
    3.6018  -11.3041    6.4484 H   0  0  0  0  0  0  0  0  0  0  0  0
    2.2881  -10.1730    6.4742 H   0  0  0  0  0  0  0  0  0  0  0  0
    3.1858  -11.8889    4.1296 H   0  0  0  0  0  0  0  0  0  0  0  0
    1.6924  -12.0351    4.9943 H   0  0  0  0  0  0  0  0  0  0  0  0
   -0.0495  -10.8713    4.5010 H   0  0  0  0  0  0  0  0  0  0  0  0
    0.3540   -9.1610    4.6336 H   0  0  0  0  0  0  0  0  0  0  0  0
   -0.2211  -10.5877    1.9582 H   0  0  0  0  0  0  0  0  0  0  0  0
   -0.3230   -7.5767    2.8031 H   0  0  0  0  0  0  0  0  0  0  0  0
   -0.6899   -8.2505    1.1343 H   0  0  0  0  0  0  0  0  0  0  0  0
   -2.5033   -9.6802    2.0830 H   0  0  0  0  0  0  0  0  0  0  0  0
   -2.1654   -9.0017    3.7597 H   0  0  0  0  0  0  0  0  0  0  0  0
  1  2  1  0
  1 30  1  0
  2  7  2  0
  2  3  1  0
  3  4  2  0
  3 31  1  0
  4  5  1  0
  4 32  1  0
  5 21  1  0
  5  6  2  0
  6 22  1  0
  6  7  1  0
  7  8  1  0
  8  9  1  0
  8 33  1  0
  8 34  1  0
  9 25  1  0
  9 10  1  0
  9 35  1  6
 10 22  1  0
 10 11  1  0
 10 36  1  1
 11 12  1  0
 11 37  1  0
 11 38  1  0
 12 13  1  0
 12 39  1  0
 12 40  1  0
 13 14  2  3
 13 20  1  0
 14 15  1  0
 15 16  1  0
 16 17  1  0
 16 41  1  0
 16 42  1  0
 17 19  1  0
 17 18  1  0
 17 43  1  0
 18 19  1  0
 18 44  1  0
 18 45  1  0
 19 46  1  0
 19 47  1  0
 20 21  1  0
 20 22  1  0
 20 48  1  1
 22 23  1  1
 23 24  1  0
 23 49  1  0
 23 50  1  0
 24 25  1  0
 24 51  1  0
 24 52  1  0
 25 26  1  0
 26 27  1  0
 26 53  1  0
 26 54  1  0
 27 29  1  0
 27 28  1  0
 27 55  1  0
 28 29  1  0
 28 56  1  0
 28 57  1  0
 29 58  1  0
 29 59  1  0
M  END
>  <i_m_ct_stereo_status>  (11) 
1

>  <s_m_source_file>  (11) 
/var/tmp/pbs.5076255.sched01/tmpr7id634h/0ay6m0hv_.sdf

>  <i_m_source_file_index>  (11) 
5

>  <i_lp_mmshare_version>  (11) 
48012

>  <i_f3d_flags>  (11) 
0

>  <s_epik_input>  (11) 
W0NAQF0xMjNjNGM1W2NIXVtjSF1jKFtPSF0pYzRbQ0gyXVtDQEBIXShOKFtDSDJdW0NIMl0zKVtDSDJdW0NIXTZbQ0gyXVtDSDJdNilbQ0BASF0xW0NIMl1bQ0gyXS9DKFtDQEBIXTJPNSk9TlxPW0NIMl1bQ0hdN1tDSDJdW0NIMl03

>  <s_epik_cmdline>  (11) 
J2VwaWtfcHl0aG9uJywgJy1waHQnLCAnMi4wJywgJy1waCcsICc3LjAnLCAnLXRuJywgJzgnLCAnLW1hJywgJzIwMCcsICctaW1hZScsICc8aW5maWxlLm1hZT4nLCAnLW9tYWUnLCAnPG91dGZpbGUubWFlPic=

>  <r_lp_tautomer_probability>  (11) 
1

>  <r_epik_Ionization_Penalty>  (11) 
2.28972

>  <r_epik_Ionization_Penalty_Charging>  (11) 
0

>  <r_epik_Ionization_Penalty_Neutral>  (11) 
2.28972

>  <r_epik_State_Penalty>  (11) 
2.43953

>  <r_epik_Charging_Adjusted_Penalty>  (11) 
2.43953

>  <i_epik_Tot_Q>  (11) 
0

>  <i_epik_Tot_abs_Q>  (11) 
0

>  <s_epik_Chemistry_Notes>  (11) 
This compound has an imine and may undergo hydrolysis.

>  <s_lp_Force_Field>  (11) 
OPLS3e

>  <r_lp_Energy>  (11) 
72.8462

>  <b_lp_Chiralities_Consistent>  (11) 
1

>  <s_lp_Variant>  (11) 
2:0-3

>  <s_i_glide_gridfile>  (11) 
pfpi4k_grid

>  <i_i_glide_lignum>  (11) 
5

>  <i_i_glide_rotatable_bonds>  (11) 
6

>  <r_i_docking_score>  (11) 
-2.58027

>  <r_i_glide_ligand_efficiency>  (11) 
-0.0889749

>  <r_i_glide_ligand_efficiency_sa>  (11) 
-0.273359

>  <r_i_glide_ligand_efficiency_ln>  (11) 
-0.590817

>  <r_i_glide_gscore>  (11) 
-2.58027

>  <r_i_glide_lipo>  (11) 
-0.0695617

>  <r_i_glide_hbond>  (11) 
-0.172613

>  <r_i_glide_metal>  (11) 
-0

>  <r_i_glide_rewards>  (11) 
-0.719273

>  <r_i_glide_evdw>  (11) 
-18.2085

>  <r_i_glide_ecoul>  (11) 
-8.07163

>  <r_i_glide_erotb>  (11) 
0.502342

>  <r_i_glide_esite>  (11) 
0

>  <r_i_glide_emodel>  (11) 
-28.3648

>  <r_i_glide_energy>  (11) 
-26.2801

>  <r_i_glide_einternal>  (11) 
5.08379

>  <r_i_glide_intrahb_reward>  (11) 
-0

>  <i_i_glide_confnum>  (11) 
4

>  <i_i_glide_posenum>  (11) 
33

>  <r_i_glide_eff_state_penalty>  (11) 
0

>  <ligand_id>  (11) 
2

>  <original_smiles>  (11) 
Oc1ccc2c3c1CC1C4CCC(=NOCC5CC5)C(O2)C34CCN1CC1CC1

>  <smiles>  (11) 
[H]Oc1c([H])c([H])c2c3c1C([H])([H])C1([H])N(C([H])([H])C4([H])C([H])([H])C4([H])[H])C([H])([H])C([H])([H])C34C([H])(O2)C(=NOC([H])([H])C2([H])C([H])([H])C2([H])[H])C([H])([H])C([H])([H])C14[H]

$$$$
2:2:2
     RDKit          3D

 59 65  0  0  1  0  0  0  0  0999 V2000
    5.4683   -0.5944    6.9096 O   0  0  0  0  0  0  0  0  0  0  0  0
    4.2144   -0.9982    6.5807 C   0  0  0  0  0  0  0  0  0  0  0  0
    3.4531   -1.7934    7.4849 C   0  0  0  0  0  0  0  0  0  0  0  0
    2.1180   -2.1586    7.1827 C   0  0  0  0  0  0  0  0  0  0  0  0
    1.5168   -1.7571    5.9515 C   0  0  0  0  0  0  0  0  0  0  0  0
    2.3583   -1.0665    5.0878 C   0  0  0  0  0  0  0  0  0  0  0  0
    3.6686   -0.6175    5.3393 C   0  0  0  0  0  0  0  0  0  0  0  0
    4.2527    0.2921    4.2690 C   0  0  0  0  0  0  0  0  0  0  0  0
    3.4876    0.4174    2.9398 C   0  0  2  0  0  0  0  0  0  0  0  0
    1.9504    0.4405    3.1147 C   0  0  2  0  0  0  0  0  0  0  0  0
    1.3975    1.6602    3.8672 C   0  0  0  0  0  0  0  0  0  0  0  0
   -0.1298    1.5381    3.9805 C   0  0  0  0  0  0  0  0  0  0  0  0
   -0.5425    0.3205    4.8144 C   0  0  0  0  0  0  0  0  0  0  0  0
   -1.3454    0.3540    5.8097 N   0  0  0  0  0  0  0  0  0  0  0  0
   -1.8454    1.6343    6.0735 O   0  0  0  0  0  0  0  0  0  0  0  0
   -2.5711    1.5978    7.2818 C   0  0  0  0  0  0  0  0  0  0  0  0
   -3.2235    2.9306    7.5150 C   0  0  0  0  0  0  0  0  0  0  0  0
   -2.5776    3.9666    8.4088 C   0  0  0  0  0  0  0  0  0  0  0  0
   -3.8399    3.2762    8.8600 C   0  0  0  0  0  0  0  0  0  0  0  0
    0.1031   -1.0061    4.3871 C   0  0  2  0  0  0  0  0  0  0  0  0
    0.2537   -1.9015    5.5136 O   0  0  0  0  0  0  0  0  0  0  0  0
    1.5638   -0.8549    3.8247 C   0  0  2  0  0  0  0  0  0  0  0  0
    1.8860   -1.9755    2.8051 C   0  0  0  0  0  0  0  0  0  0  0  0
    3.3894   -2.0043    2.4601 C   0  0  0  0  0  0  0  0  0  0  0  0
    3.9153   -0.6901    2.0600 N   0  0  0  0  0  0  0  0  0  0  0  0
    3.7271   -0.4097    0.6373 C   0  0  0  0  0  0  0  0  0  0  0  0
    4.5423   -1.3612   -0.2087 C   0  0  0  0  0  0  0  0  0  0  0  0
    4.4449   -1.3511   -1.7246 C   0  0  0  0  0  0  0  0  0  0  0  0
    3.8535   -2.4922   -0.9479 C   0  0  0  0  0  0  0  0  0  0  0  0
    5.8645   -0.0679    6.2507 H   0  0  0  0  0  0  0  0  0  0  0  0
    3.8897   -2.0990    8.4171 H   0  0  0  0  0  0  0  0  0  0  0  0
    1.5334   -2.7273    7.8878 H   0  0  0  0  0  0  0  0  0  0  0  0
    4.3075    1.2930    4.7214 H   0  0  0  0  0  0  0  0  0  0  0  0
    5.2934    0.0084    4.0905 H   0  0  0  0  0  0  0  0  0  0  0  0
    3.8087    1.3427    2.4630 H   0  0  0  0  0  0  0  0  0  0  0  0
    1.4893    0.4748    2.1278 H   0  0  0  0  0  0  0  0  0  0  0  0
    1.8296    1.7395    4.8658 H   0  0  0  0  0  0  0  0  0  0  0  0
    1.6533    2.5741    3.3364 H   0  0  0  0  0  0  0  0  0  0  0  0
   -0.5251    2.4699    4.3861 H   0  0  0  0  0  0  0  0  0  0  0  0
   -0.5727    1.4369    2.9847 H   0  0  0  0  0  0  0  0  0  0  0  0
   -3.3572    0.8476    7.2271 H   0  0  0  0  0  0  0  0  0  0  0  0
   -1.9169    1.3546    8.1267 H   0  0  0  0  0  0  0  0  0  0  0  0
   -3.7614    3.3047    6.6380 H   0  0  0  0  0  0  0  0  0  0  0  0
   -1.6391    3.6809    8.8860 H   0  0  0  0  0  0  0  0  0  0  0  0
   -2.6536    5.0083    8.1155 H   0  0  0  0  0  0  0  0  0  0  0  0
   -4.7524    3.8655    8.8802 H   0  0  0  0  0  0  0  0  0  0  0  0
   -3.7541    2.5428    9.6600 H   0  0  0  0  0  0  0  0  0  0  0  0
   -0.5660   -1.4703    3.6659 H   0  0  0  0  0  0  0  0  0  0  0  0
    1.5931   -2.9529    3.1872 H   0  0  0  0  0  0  0  0  0  0  0  0
    1.3056   -1.8259    1.8915 H   0  0  0  0  0  0  0  0  0  0  0  0
    3.9526   -2.3556    3.3220 H   0  0  0  0  0  0  0  0  0  0  0  0
    3.5684   -2.7495    1.6875 H   0  0  0  0  0  0  0  0  0  0  0  0
    2.6768   -0.4393    0.3605 H   0  0  0  0  0  0  0  0  0  0  0  0
    4.1085    0.5957    0.4408 H   0  0  0  0  0  0  0  0  0  0  0  0
    5.5405   -1.5748    0.1738 H   0  0  0  0  0  0  0  0  0  0  0  0
    3.7489   -0.6543   -2.1887 H   0  0  0  0  0  0  0  0  0  0  0  0
    5.3430   -1.5707   -2.2993 H   0  0  0  0  0  0  0  0  0  0  0  0
    4.3672   -3.4515   -0.9673 H   0  0  0  0  0  0  0  0  0  0  0  0
    2.7683   -2.5421   -0.8604 H   0  0  0  0  0  0  0  0  0  0  0  0
  1  2  1  0
  1 30  1  0
  2  7  2  0
  2  3  1  0
  3  4  2  0
  3 31  1  0
  4  5  1  0
  4 32  1  0
  5 21  1  0
  5  6  2  0
  6 22  1  0
  6  7  1  0
  7  8  1  0
  8  9  1  0
  8 33  1  0
  8 34  1  0
  9 25  1  0
  9 10  1  0
  9 35  1  6
 10 22  1  0
 10 11  1  0
 10 36  1  6
 11 12  1  0
 11 37  1  0
 11 38  1  0
 12 13  1  0
 12 39  1  0
 12 40  1  0
 13 14  2  3
 13 20  1  0
 14 15  1  0
 15 16  1  0
 16 17  1  0
 16 41  1  0
 16 42  1  0
 17 19  1  0
 17 18  1  0
 17 43  1  0
 18 19  1  0
 18 44  1  0
 18 45  1  0
 19 46  1  0
 19 47  1  0
 20 21  1  0
 20 22  1  0
 20 48  1  6
 22 23  1  6
 23 24  1  0
 23 49  1  0
 23 50  1  0
 24 25  1  0
 24 51  1  0
 24 52  1  0
 25 26  1  0
 26 27  1  0
 26 53  1  0
 26 54  1  0
 27 29  1  0
 27 28  1  0
 27 55  1  0
 28 29  1  0
 28 56  1  0
 28 57  1  0
 29 58  1  0
 29 59  1  0
M  END
>  <i_m_ct_stereo_status>  (12) 
1

>  <s_m_source_file>  (12) 
/var/tmp/pbs.5076255.sched01/tmpr7id634h/0ay6m0hv_.sdf

>  <i_m_source_file_index>  (12) 
5

>  <i_lp_mmshare_version>  (12) 
48012

>  <i_f3d_flags>  (12) 
0

>  <s_epik_input>  (12) 
W0NAQF0xMjNjNGM1W2NIXVtjSF1jKFtPSF0pYzRbQ0gyXVtDQEBIXShOKFtDSDJdW0NIMl0zKVtDSDJdW0NIXTZbQ0gyXVtDSDJdNilbQ0BASF0xW0NIMl1bQ0gyXS9DKFtDQEBIXTJPNSk9TlxPW0NIMl1bQ0hdN1tDSDJdW0NIMl03

>  <s_epik_cmdline>  (12) 
J2VwaWtfcHl0aG9uJywgJy1waHQnLCAnMi4wJywgJy1waCcsICc3LjAnLCAnLXRuJywgJzgnLCAnLW1hJywgJzIwMCcsICctaW1hZScsICc8aW5maWxlLm1hZT4nLCAnLW9tYWUnLCAnPG91dGZpbGUubWFlPic=

>  <r_lp_tautomer_probability>  (12) 
1

>  <r_epik_Ionization_Penalty>  (12) 
2.28972

>  <r_epik_Ionization_Penalty_Charging>  (12) 
0

>  <r_epik_Ionization_Penalty_Neutral>  (12) 
2.28972

>  <r_epik_State_Penalty>  (12) 
2.43953

>  <r_epik_Charging_Adjusted_Penalty>  (12) 
2.43953

>  <i_epik_Tot_Q>  (12) 
0

>  <i_epik_Tot_abs_Q>  (12) 
0

>  <s_epik_Chemistry_Notes>  (12) 
This compound has an imine and may undergo hydrolysis.

>  <s_lp_Force_Field>  (12) 
OPLS3e

>  <r_lp_Energy>  (12) 
72.8462

>  <b_lp_Chiralities_Consistent>  (12) 
1

>  <s_lp_Variant>  (12) 
2:0-3

>  <s_i_glide_gridfile>  (12) 
pfpi4k_grid

>  <i_i_glide_lignum>  (12) 
5

>  <i_i_glide_rotatable_bonds>  (12) 
6

>  <r_i_docking_score>  (12) 
-2.12692

>  <r_i_glide_ligand_efficiency>  (12) 
-0.0733422

>  <r_i_glide_ligand_efficiency_sa>  (12) 
-0.22533

>  <r_i_glide_ligand_efficiency_ln>  (12) 
-0.487011

>  <r_i_glide_gscore>  (12) 
-2.12692

>  <r_i_glide_lipo>  (12) 
-0.259559

>  <r_i_glide_hbond>  (12) 
0

>  <r_i_glide_metal>  (12) 
-0

>  <r_i_glide_rewards>  (12) 
-0.719273

>  <r_i_glide_evdw>  (12) 
-22.6973

>  <r_i_glide_ecoul>  (12) 
-2.77772

>  <r_i_glide_erotb>  (12) 
0.502342

>  <r_i_glide_esite>  (12) 
-0.0989092

>  <r_i_glide_emodel>  (12) 
-29.1788

>  <r_i_glide_energy>  (12) 
-25.475

>  <r_i_glide_einternal>  (12) 
0.733995

>  <r_i_glide_intrahb_reward>  (12) 
-0

>  <i_i_glide_confnum>  (12) 
3

>  <i_i_glide_posenum>  (12) 
3

>  <r_i_glide_eff_state_penalty>  (12) 
0

>  <ligand_id>  (12) 
2

>  <original_smiles>  (12) 
Oc1ccc2c3c1CC1C4CCC(=NOCC5CC5)C(O2)C34CCN1CC1CC1

>  <smiles>  (12) 
[H]Oc1c([H])c([H])c2c3c1C([H])([H])C1([H])N(C([H])([H])C4([H])C([H])([H])C4([H])[H])C([H])([H])C([H])([H])C34C([H])(O2)C(=NOC([H])([H])C2([H])C([H])([H])C2([H])[H])C([H])([H])C([H])([H])C14[H]

$$$$
2:3:0
     RDKit          3D

 59 65  0  0  1  0  0  0  0  0999 V2000
    5.8088  -11.2755    2.0789 O   0  0  0  0  0  0  0  0  0  0  0  0
    5.4742   -9.9500    2.1498 C   0  0  0  0  0  0  0  0  0  0  0  0
    6.3096   -8.9633    1.5625 C   0  0  0  0  0  0  0  0  0  0  0  0
    5.9193   -7.5998    1.5550 C   0  0  0  0  0  0  0  0  0  0  0  0
    4.7060   -7.2149    2.1558 C   0  0  0  0  0  0  0  0  0  0  0  0
    3.9783   -8.2085    2.7817 C   0  0  0  0  0  0  0  0  0  0  0  0
    4.2734   -9.5783    2.7824 C   0  0  0  0  0  0  0  0  0  0  0  0
    3.1954  -10.4839    3.3771 C   0  0  0  0  0  0  0  0  0  0  0  0
    2.0382   -9.7967    4.1418 C   0  0  2  0  0  0  0  0  0  0  0  0
    1.5863   -8.4664    3.4808 C   0  0  2  0  0  0  0  0  0  0  0  0
    0.9743   -8.5999    2.0841 C   0  0  0  0  0  0  0  0  0  0  0  0
    0.5627   -7.2112    1.5810 C   0  0  0  0  0  0  0  0  0  0  0  0
    1.7508   -6.2637    1.4222 C   0  0  0  0  0  0  0  0  0  0  0  0
    1.8164   -5.5507    0.3699 N   0  0  0  0  0  0  0  0  0  0  0  0
    2.8924   -4.6668    0.3514 O   0  0  0  0  0  0  0  0  0  0  0  0
    2.6697   -3.7010   -0.6595 C   0  0  0  0  0  0  0  0  0  0  0  0
    3.9221   -2.8629   -0.7972 C   0  0  0  0  0  0  0  0  0  0  0  0
    4.0260   -1.8230   -1.8913 C   0  0  0  0  0  0  0  0  0  0  0  0
    4.8638   -3.0757   -1.9633 C   0  0  0  0  0  0  0  0  0  0  0  0
    2.7335   -6.2066    2.6169 C   0  0  2  0  0  0  0  0  0  0  0  0
    4.1043   -5.9931    2.2015 O   0  0  0  0  0  0  0  0  0  0  0  0
    2.8080   -7.5380    3.4418 C   0  0  2  0  0  0  0  0  0  0  0  0
    3.1376   -7.2345    4.9191 C   0  0  0  0  0  0  0  0  0  0  0  0
    3.4859   -8.5185    5.6889 C   0  0  0  0  0  0  0  0  0  0  0  0
    2.4621   -9.5647    5.5365 N   0  0  0  0  0  0  0  0  0  0  0  0
    1.3391   -9.4457    6.4649 C   0  0  0  0  0  0  0  0  0  0  0  0
    1.8146   -9.4802    7.9080 C   0  0  0  0  0  0  0  0  0  0  0  0
    0.8776   -9.1691    9.0539 C   0  0  0  0  0  0  0  0  0  0  0  0
    1.9663   -8.1957    8.6876 C   0  0  0  0  0  0  0  0  0  0  0  0
    5.1763  -11.7405    1.5187 H   0  0  0  0  0  0  0  0  0  0  0  0
    7.2335   -9.2453    1.0830 H   0  0  0  0  0  0  0  0  0  0  0  0
    6.5319   -6.8523    1.0692 H   0  0  0  0  0  0  0  0  0  0  0  0
    2.7698  -11.0315    2.5373 H   0  0  0  0  0  0  0  0  0  0  0  0
    3.6755  -11.2326    4.0096 H   0  0  0  0  0  0  0  0  0  0  0  0
    1.2030  -10.4989    4.1599 H   0  0  0  0  0  0  0  0  0  0  0  0
    0.8125   -8.0142    4.1007 H   0  0  0  0  0  0  0  0  0  0  0  0
    1.6791   -9.0485    1.3816 H   0  0  0  0  0  0  0  0  0  0  0  0
    0.1030   -9.2539    2.1196 H   0  0  0  0  0  0  0  0  0  0  0  0
    0.0344   -7.3114    0.6302 H   0  0  0  0  0  0  0  0  0  0  0  0
   -0.1416   -6.7603    2.2828 H   0  0  0  0  0  0  0  0  0  0  0  0
    2.4201   -4.1532   -1.6206 H   0  0  0  0  0  0  0  0  0  0  0  0
    1.8415   -3.0544   -0.3734 H   0  0  0  0  0  0  0  0  0  0  0  0
    4.3681   -2.5825    0.1570 H   0  0  0  0  0  0  0  0  0  0  0  0
    3.1763   -1.7286   -2.5668 H   0  0  0  0  0  0  0  0  0  0  0  0
    4.5355   -0.8923   -1.6499 H   0  0  0  0  0  0  0  0  0  0  0  0
    5.9296   -2.9851   -1.7641 H   0  0  0  0  0  0  0  0  0  0  0  0
    4.5878   -3.8419   -2.6880 H   0  0  0  0  0  0  0  0  0  0  0  0
    2.4099   -5.3708    3.2420 H   0  0  0  0  0  0  0  0  0  0  0  0
    3.9730   -6.5365    5.0035 H   0  0  0  0  0  0  0  0  0  0  0  0
    2.2887   -6.7406    5.3948 H   0  0  0  0  0  0  0  0  0  0  0  0
    4.4410   -8.9115    5.3389 H   0  0  0  0  0  0  0  0  0  0  0  0
    3.6629   -8.2734    6.7319 H   0  0  0  0  0  0  0  0  0  0  0  0
    0.7594   -8.5405    6.2879 H   0  0  0  0  0  0  0  0  0  0  0  0
    0.6789  -10.3029    6.3259 H   0  0  0  0  0  0  0  0  0  0  0  0
    2.5450  -10.2624    8.1158 H   0  0  0  0  0  0  0  0  0  0  0  0
   -0.1460   -8.8912    8.8124 H   0  0  0  0  0  0  0  0  0  0  0  0
    1.0125   -9.7257    9.9797 H   0  0  0  0  0  0  0  0  0  0  0  0
    2.8378   -8.1265    9.3360 H   0  0  0  0  0  0  0  0  0  0  0  0
    1.6879   -7.2800    8.1687 H   0  0  0  0  0  0  0  0  0  0  0  0
  1  2  1  0
  1 30  1  0
  2  7  2  0
  2  3  1  0
  3  4  2  0
  3 31  1  0
  4  5  1  0
  4 32  1  0
  5 21  1  0
  5  6  2  0
  6 22  1  0
  6  7  1  0
  7  8  1  0
  8  9  1  0
  8 33  1  0
  8 34  1  0
  9 25  1  0
  9 10  1  0
  9 35  1  1
 10 22  1  0
 10 11  1  0
 10 36  1  1
 11 12  1  0
 11 37  1  0
 11 38  1  0
 12 13  1  0
 12 39  1  0
 12 40  1  0
 13 14  2  3
 13 20  1  0
 14 15  1  0
 15 16  1  0
 16 17  1  0
 16 41  1  0
 16 42  1  0
 17 19  1  0
 17 18  1  0
 17 43  1  0
 18 19  1  0
 18 44  1  0
 18 45  1  0
 19 46  1  0
 19 47  1  0
 20 21  1  0
 20 22  1  0
 20 48  1  1
 22 23  1  1
 23 24  1  0
 23 49  1  0
 23 50  1  0
 24 25  1  0
 24 51  1  0
 24 52  1  0
 25 26  1  0
 26 27  1  0
 26 53  1  0
 26 54  1  0
 27 29  1  0
 27 28  1  0
 27 55  1  0
 28 29  1  0
 28 56  1  0
 28 57  1  0
 29 58  1  0
 29 59  1  0
M  END
>  <i_m_ct_stereo_status>  (13) 
1

>  <s_m_source_file>  (13) 
/var/tmp/pbs.5076255.sched01/tmpr7id634h/0ay6m0hv_.sdf

>  <i_m_source_file_index>  (13) 
6

>  <i_lp_mmshare_version>  (13) 
48012

>  <i_f3d_flags>  (13) 
0

>  <s_epik_input>  (13) 
W0NAQF0xMjNjNGM1W2NIXVtjSF1jKFtPSF0pYzRbQ0gyXVtDQEBIXShOKFtDSDJdW0NIMl0zKVtDSDJdW0NIXTZbQ0gyXVtDSDJdNilbQ0BASF0xW0NIMl1bQ0gyXS9DKFtDQEBIXTJPNSk9TlxPW0NIMl1bQ0hdN1tDSDJdW0NIMl03

>  <s_epik_cmdline>  (13) 
J2VwaWtfcHl0aG9uJywgJy1waHQnLCAnMi4wJywgJy1waCcsICc3LjAnLCAnLXRuJywgJzgnLCAnLW1hJywgJzIwMCcsICctaW1hZScsICc8aW5maWxlLm1hZT4nLCAnLW9tYWUnLCAnPG91dGZpbGUubWFlPic=

>  <r_lp_tautomer_probability>  (13) 
1

>  <r_epik_Ionization_Penalty>  (13) 
2.28972

>  <r_epik_Ionization_Penalty_Charging>  (13) 
0

>  <r_epik_Ionization_Penalty_Neutral>  (13) 
2.28972

>  <r_epik_State_Penalty>  (13) 
2.43953

>  <r_epik_Charging_Adjusted_Penalty>  (13) 
2.43953

>  <i_epik_Tot_Q>  (13) 
0

>  <i_epik_Tot_abs_Q>  (13) 
0

>  <s_epik_Chemistry_Notes>  (13) 
This compound has an imine and may undergo hydrolysis.

>  <s_lp_Force_Field>  (13) 
OPLS3e

>  <r_lp_Energy>  (13) 
72.4792

>  <b_lp_Chiralities_Consistent>  (13) 
1

>  <s_lp_Variant>  (13) 
2:0-4

>  <s_i_glide_gridfile>  (13) 
pfpi4k_grid

>  <i_i_glide_lignum>  (13) 
6

>  <i_i_glide_rotatable_bonds>  (13) 
6

>  <r_i_docking_score>  (13) 
-2.81303

>  <r_i_glide_ligand_efficiency>  (13) 
-0.097001

>  <r_i_glide_ligand_efficiency_sa>  (13) 
-0.298018

>  <r_i_glide_ligand_efficiency_ln>  (13) 
-0.644112

>  <r_i_glide_gscore>  (13) 
-2.81303

>  <r_i_glide_lipo>  (13) 
-0.267168

>  <r_i_glide_hbond>  (13) 
-0.16

>  <r_i_glide_metal>  (13) 
-0

>  <r_i_glide_rewards>  (13) 
-0.719273

>  <r_i_glide_evdw>  (13) 
-23.3076

>  <r_i_glide_ecoul>  (13) 
-5.56136

>  <r_i_glide_erotb>  (13) 
0.502342

>  <r_i_glide_esite>  (13) 
-0.169343

>  <r_i_glide_emodel>  (13) 
-31.489

>  <r_i_glide_energy>  (13) 
-28.869

>  <r_i_glide_einternal>  (13) 
3.9043

>  <r_i_glide_intrahb_reward>  (13) 
-0

>  <i_i_glide_confnum>  (13) 
3

>  <i_i_glide_posenum>  (13) 
22

>  <r_i_glide_eff_state_penalty>  (13) 
0

>  <ligand_id>  (13) 
2

>  <original_smiles>  (13) 
Oc1ccc2c3c1CC1C4CCC(=NOCC5CC5)C(O2)C34CCN1CC1CC1

>  <smiles>  (13) 
[H]Oc1c([H])c([H])c2c3c1C([H])([H])C1([H])N(C([H])([H])C4([H])C([H])([H])C4([H])[H])C([H])([H])C([H])([H])C34C([H])(O2)C(=NOC([H])([H])C2([H])C([H])([H])C2([H])[H])C([H])([H])C([H])([H])C14[H]

$$$$
2:3:1
     RDKit          3D

 59 65  0  0  1  0  0  0  0  0999 V2000
    5.2516    0.1024    6.9216 O   0  0  0  0  0  0  0  0  0  0  0  0
    3.9081    0.1084    6.7597 C   0  0  0  0  0  0  0  0  0  0  0  0
    3.0527    0.2111    7.8924 C   0  0  0  0  0  0  0  0  0  0  0  0
    1.6328    0.2932    7.7237 C   0  0  0  0  0  0  0  0  0  0  0  0
    1.0685    0.2407    6.4369 C   0  0  0  0  0  0  0  0  0  0  0  0
    1.9568    0.0529    5.3932 C   0  0  0  0  0  0  0  0  0  0  0  0
    3.3659    0.0206    5.4653 C   0  0  0  0  0  0  0  0  0  0  0  0
    4.0759   -0.0085    4.1118 C   0  0  0  0  0  0  0  0  0  0  0  0
    3.2225   -0.2370    2.8483 C   0  0  2  0  0  0  0  0  0  0  0  0
    1.8453    0.4634    2.9123 C   0  0  2  0  0  0  0  0  0  0  0  0
    1.8879    1.9947    2.9543 C   0  0  0  0  0  0  0  0  0  0  0  0
    0.4517    2.5332    2.9947 C   0  0  0  0  0  0  0  0  0  0  0  0
   -0.3183    2.1167    4.2440 C   0  0  0  0  0  0  0  0  0  0  0  0
   -0.9891    2.9953    4.8771 N   0  0  0  0  0  0  0  0  0  0  0  0
   -1.7200    2.4770    5.9513 O   0  0  0  0  0  0  0  0  0  0  0  0
   -2.3062    3.5546    6.6474 C   0  0  0  0  0  0  0  0  0  0  0  0
   -3.1109    2.9927    7.7895 C   0  0  0  0  0  0  0  0  0  0  0  0
   -3.6580    3.8881    8.8812 C   0  0  0  0  0  0  0  0  0  0  0  0
   -2.5395    2.9285    9.1901 C   0  0  0  0  0  0  0  0  0  0  0  0
   -0.2195    0.6134    4.6132 C   0  0  2  0  0  0  0  0  0  0  0  0
   -0.2421    0.3786    6.0411 O   0  0  0  0  0  0  0  0  0  0  0  0
    1.1206   -0.0767    4.1491 C   0  0  2  0  0  0  0  0  0  0  0  0
    0.8649   -1.5672    3.8420 C   0  0  0  0  0  0  0  0  0  0  0  0
    2.1825   -2.3256    3.6498 C   0  0  0  0  0  0  0  0  0  0  0  0
    3.0782   -1.6966    2.6570 N   0  0  0  0  0  0  0  0  0  0  0  0
    2.8061   -2.0750    1.2712 C   0  0  0  0  0  0  0  0  0  0  0  0
    3.0837   -3.5473    0.9940 C   0  0  0  0  0  0  0  0  0  0  0  0
    4.1924   -4.0051    0.0756 C   0  0  0  0  0  0  0  0  0  0  0  0
    2.7610   -4.1380   -0.3544 C   0  0  0  0  0  0  0  0  0  0  0  0
    5.7146    0.0384    6.1087 H   0  0  0  0  0  0  0  0  0  0  0  0
    3.4762    0.2538    8.8798 H   0  0  0  0  0  0  0  0  0  0  0  0
    1.0014    0.4144    8.5909 H   0  0  0  0  0  0  0  0  0  0  0  0
    4.5564    0.9709    4.0300 H   0  0  0  0  0  0  0  0  0  0  0  0
    4.8951   -0.7252    4.1675 H   0  0  0  0  0  0  0  0  0  0  0  0
    3.7999    0.1564    2.0095 H   0  0  0  0  0  0  0  0  0  0  0  0
    1.2877    0.2076    2.0114 H   0  0  0  0  0  0  0  0  0  0  0  0
    2.4334    2.3564    3.8268 H   0  0  0  0  0  0  0  0  0  0  0  0
    2.3996    2.3812    2.0758 H   0  0  0  0  0  0  0  0  0  0  0  0
    0.4657    3.6228    2.9156 H   0  0  0  0  0  0  0  0  0  0  0  0
   -0.1029    2.1781    2.1215 H   0  0  0  0  0  0  0  0  0  0  0  0
   -1.5565    4.2467    7.0393 H   0  0  0  0  0  0  0  0  0  0  0  0
   -2.9764    4.1073    5.9908 H   0  0  0  0  0  0  0  0  0  0  0  0
   -3.7829    2.1922    7.4862 H   0  0  0  0  0  0  0  0  0  0  0  0
   -3.4214    4.9488    8.8217 H   0  0  0  0  0  0  0  0  0  0  0  0
   -4.6452    3.6506    9.2702 H   0  0  0  0  0  0  0  0  0  0  0  0
   -2.7841    2.0727    9.8102 H   0  0  0  0  0  0  0  0  0  0  0  0
   -1.5388    3.3325    9.3337 H   0  0  0  0  0  0  0  0  0  0  0  0
   -1.0952    0.1293    4.1684 H   0  0  0  0  0  0  0  0  0  0  0  0
    0.2963   -2.0475    4.6414 H   0  0  0  0  0  0  0  0  0  0  0  0
    0.2498   -1.6638    2.9437 H   0  0  0  0  0  0  0  0  0  0  0  0
    2.7119   -2.3967    4.5977 H   0  0  0  0  0  0  0  0  0  0  0  0
    1.8969   -3.3436    3.4242 H   0  0  0  0  0  0  0  0  0  0  0  0
    1.7799   -1.8355    1.0179 H   0  0  0  0  0  0  0  0  0  0  0  0
    3.4434   -1.4898    0.6050 H   0  0  0  0  0  0  0  0  0  0  0  0
    2.9055   -4.2585    1.7944 H   0  0  0  0  0  0  0  0  0  0  0  0
    4.8108   -3.2450   -0.4003 H   0  0  0  0  0  0  0  0  0  0  0  0
    4.7146   -4.9120    0.3812 H   0  0  0  0  0  0  0  0  0  0  0  0
    2.3153   -5.1312   -0.3390 H   0  0  0  0  0  0  0  0  0  0  0  0
    2.3935   -3.4667   -1.1302 H   0  0  0  0  0  0  0  0  0  0  0  0
  1  2  1  0
  1 30  1  0
  2  7  2  0
  2  3  1  0
  3  4  2  0
  3 31  1  0
  4  5  1  0
  4 32  1  0
  5 21  1  0
  5  6  2  0
  6 22  1  0
  6  7  1  0
  7  8  1  0
  8  9  1  0
  8 33  1  0
  8 34  1  0
  9 25  1  0
  9 10  1  0
  9 35  1  6
 10 22  1  0
 10 11  1  0
 10 36  1  6
 11 12  1  0
 11 37  1  0
 11 38  1  0
 12 13  1  0
 12 39  1  0
 12 40  1  0
 13 14  2  3
 13 20  1  0
 14 15  1  0
 15 16  1  0
 16 17  1  0
 16 41  1  0
 16 42  1  0
 17 19  1  0
 17 18  1  0
 17 43  1  0
 18 19  1  0
 18 44  1  0
 18 45  1  0
 19 46  1  0
 19 47  1  0
 20 21  1  0
 20 22  1  0
 20 48  1  6
 22 23  1  6
 23 24  1  0
 23 49  1  0
 23 50  1  0
 24 25  1  0
 24 51  1  0
 24 52  1  0
 25 26  1  0
 26 27  1  0
 26 53  1  0
 26 54  1  0
 27 29  1  0
 27 28  1  0
 27 55  1  0
 28 29  1  0
 28 56  1  0
 28 57  1  0
 29 58  1  0
 29 59  1  0
M  END
>  <i_m_ct_stereo_status>  (14) 
1

>  <s_m_source_file>  (14) 
/var/tmp/pbs.5076255.sched01/tmpr7id634h/0ay6m0hv_.sdf

>  <i_m_source_file_index>  (14) 
6

>  <i_lp_mmshare_version>  (14) 
48012

>  <i_f3d_flags>  (14) 
0

>  <s_epik_input>  (14) 
W0NAQF0xMjNjNGM1W2NIXVtjSF1jKFtPSF0pYzRbQ0gyXVtDQEBIXShOKFtDSDJdW0NIMl0zKVtDSDJdW0NIXTZbQ0gyXVtDSDJdNilbQ0BASF0xW0NIMl1bQ0gyXS9DKFtDQEBIXTJPNSk9TlxPW0NIMl1bQ0hdN1tDSDJdW0NIMl03

>  <s_epik_cmdline>  (14) 
J2VwaWtfcHl0aG9uJywgJy1waHQnLCAnMi4wJywgJy1waCcsICc3LjAnLCAnLXRuJywgJzgnLCAnLW1hJywgJzIwMCcsICctaW1hZScsICc8aW5maWxlLm1hZT4nLCAnLW9tYWUnLCAnPG91dGZpbGUubWFlPic=

>  <r_lp_tautomer_probability>  (14) 
1

>  <r_epik_Ionization_Penalty>  (14) 
2.28972

>  <r_epik_Ionization_Penalty_Charging>  (14) 
0

>  <r_epik_Ionization_Penalty_Neutral>  (14) 
2.28972

>  <r_epik_State_Penalty>  (14) 
2.43953

>  <r_epik_Charging_Adjusted_Penalty>  (14) 
2.43953

>  <i_epik_Tot_Q>  (14) 
0

>  <i_epik_Tot_abs_Q>  (14) 
0

>  <s_epik_Chemistry_Notes>  (14) 
This compound has an imine and may undergo hydrolysis.

>  <s_lp_Force_Field>  (14) 
OPLS3e

>  <r_lp_Energy>  (14) 
72.4792

>  <b_lp_Chiralities_Consistent>  (14) 
1

>  <s_lp_Variant>  (14) 
2:0-4

>  <s_i_glide_gridfile>  (14) 
pfpi4k_grid

>  <i_i_glide_lignum>  (14) 
6

>  <i_i_glide_rotatable_bonds>  (14) 
6

>  <r_i_docking_score>  (14) 
-2.05754

>  <r_i_glide_ligand_efficiency>  (14) 
-0.0709496

>  <r_i_glide_ligand_efficiency_sa>  (14) 
-0.21798

>  <r_i_glide_ligand_efficiency_ln>  (14) 
-0.471124

>  <r_i_glide_gscore>  (14) 
-2.05754

>  <r_i_glide_lipo>  (14) 
-0.29839

>  <r_i_glide_hbond>  (14) 
0

>  <r_i_glide_metal>  (14) 
-0

>  <r_i_glide_rewards>  (14) 
-0.719273

>  <r_i_glide_evdw>  (14) 
-21.2954

>  <r_i_glide_ecoul>  (14) 
-2.91858

>  <r_i_glide_erotb>  (14) 
0.502342

>  <r_i_glide_esite>  (14) 
-0.0396604

>  <r_i_glide_emodel>  (14) 
-27.6226

>  <r_i_glide_energy>  (14) 
-24.2139

>  <r_i_glide_einternal>  (14) 
0.358025

>  <r_i_glide_intrahb_reward>  (14) 
-0

>  <i_i_glide_confnum>  (14) 
3

>  <i_i_glide_posenum>  (14) 
3

>  <r_i_glide_eff_state_penalty>  (14) 
0

>  <ligand_id>  (14) 
2

>  <original_smiles>  (14) 
Oc1ccc2c3c1CC1C4CCC(=NOCC5CC5)C(O2)C34CCN1CC1CC1

>  <smiles>  (14) 
[H]Oc1c([H])c([H])c2c3c1C([H])([H])C1([H])N(C([H])([H])C4([H])C([H])([H])C4([H])[H])C([H])([H])C([H])([H])C34C([H])(O2)C(=NOC([H])([H])C2([H])C([H])([H])C2([H])[H])C([H])([H])C([H])([H])C14[H]

$$$$
2:3:2
     RDKit          3D

 59 65  0  0  1  0  0  0  0  0999 V2000
    6.7036   -2.5245   -0.0860 O   0  0  0  0  0  0  0  0  0  0  0  0
    5.5059   -3.0130    0.3329 C   0  0  0  0  0  0  0  0  0  0  0  0
    4.9573   -4.1640   -0.3003 C   0  0  0  0  0  0  0  0  0  0  0  0
    3.7443   -4.7388    0.1646 C   0  0  0  0  0  0  0  0  0  0  0  0
    3.0435   -4.1602    1.2517 C   0  0  0  0  0  0  0  0  0  0  0  0
    3.5917   -2.9897    1.7557 C   0  0  0  0  0  0  0  0  0  0  0  0
    4.8155   -2.3885    1.3937 C   0  0  0  0  0  0  0  0  0  0  0  0
    5.2392   -1.2230    2.2776 C   0  0  0  0  0  0  0  0  0  0  0  0
    4.2197   -0.6695    3.2888 C   0  0  2  0  0  0  0  0  0  0  0  0
    3.3458   -1.7719    3.9377 C   0  0  2  0  0  0  0  0  0  0  0  0
    4.0990   -2.7736    4.8240 C   0  0  0  0  0  0  0  0  0  0  0  0
    3.0962   -3.7802    5.4060 C   0  0  0  0  0  0  0  0  0  0  0  0
    2.3998   -4.6207    4.3444 C   0  0  0  0  0  0  0  0  0  0  0  0
    2.2931   -5.8783    4.5282 N   0  0  0  0  0  0  0  0  0  0  0  0
    1.5839   -6.5346    3.5177 O   0  0  0  0  0  0  0  0  0  0  0  0
    1.5365   -7.9131    3.8222 C   0  0  0  0  0  0  0  0  0  0  0  0
    0.7623   -8.6102    2.7333 C   0  0  0  0  0  0  0  0  0  0  0  0
   -0.7349   -8.8042    2.8534 C   0  0  0  0  0  0  0  0  0  0  0  0
    0.1863   -9.9936    2.9471 C   0  0  0  0  0  0  0  0  0  0  0  0
    1.8457   -3.8383    3.1299 C   0  0  2  0  0  0  0  0  0  0  0  0
    1.9415   -4.5950    1.9015 O   0  0  0  0  0  0  0  0  0  0  0  0
    2.6261   -2.5059    2.8055 C   0  0  2  0  0  0  0  0  0  0  0  0
    1.6678   -1.4549    2.2000 C   0  0  0  0  0  0  0  0  0  0  0  0
    2.4393   -0.2615    1.6247 C   0  0  0  0  0  0  0  0  0  0  0  0
    3.3816    0.3321    2.5932 N   0  0  0  0  0  0  0  0  0  0  0  0
    2.7787    1.3203    3.4880 C   0  0  0  0  0  0  0  0  0  0  0  0
    2.3232    2.5752    2.7603 C   0  0  0  0  0  0  0  0  0  0  0  0
    2.9866    3.9202    2.9720 C   0  0  0  0  0  0  0  0  0  0  0  0
    1.6117    3.6723    3.5180 C   0  0  0  0  0  0  0  0  0  0  0  0
    7.1056   -3.0549   -0.7394 H   0  0  0  0  0  0  0  0  0  0  0  0
    5.4659   -4.6273   -1.1241 H   0  0  0  0  0  0  0  0  0  0  0  0
    3.3557   -5.6328   -0.2952 H   0  0  0  0  0  0  0  0  0  0  0  0
    6.1092   -1.5962    2.8341 H   0  0  0  0  0  0  0  0  0  0  0  0
    5.6360   -0.4331    1.6368 H   0  0  0  0  0  0  0  0  0  0  0  0
    4.7917   -0.1501    4.0595 H   0  0  0  0  0  0  0  0  0  0  0  0
    2.6163   -1.2940    4.5884 H   0  0  0  0  0  0  0  0  0  0  0  0
    4.8617   -3.3088    4.2560 H   0  0  0  0  0  0  0  0  0  0  0  0
    4.6075   -2.2498    5.6299 H   0  0  0  0  0  0  0  0  0  0  0  0
    3.6041   -4.4363    6.1175 H   0  0  0  0  0  0  0  0  0  0  0  0
    2.3257   -3.2516    5.9749 H   0  0  0  0  0  0  0  0  0  0  0  0
    2.5326   -8.3546    3.8861 H   0  0  0  0  0  0  0  0  0  0  0  0
    1.0366   -8.0735    4.7832 H   0  0  0  0  0  0  0  0  0  0  0  0
    1.1419   -8.4173    1.7236 H   0  0  0  0  0  0  0  0  0  0  0  0
   -1.2054   -8.4525    3.7720 H   0  0  0  0  0  0  0  0  0  0  0  0
   -1.3327   -8.7059    1.9523 H   0  0  0  0  0  0  0  0  0  0  0  0
    0.1955  -10.6820    2.1072 H   0  0  0  0  0  0  0  0  0  0  0  0
    0.3363  -10.4469    3.9273 H   0  0  0  0  0  0  0  0  0  0  0  0
    0.7927   -3.6319    3.3466 H   0  0  0  0  0  0  0  0  0  0  0  0
    1.0609   -1.8679    1.3997 H   0  0  0  0  0  0  0  0  0  0  0  0
    0.9586   -1.1083    2.9558 H   0  0  0  0  0  0  0  0  0  0  0  0
    2.9944   -0.5729    0.7420 H   0  0  0  0  0  0  0  0  0  0  0  0
    1.6926    0.4260    1.2481 H   0  0  0  0  0  0  0  0  0  0  0  0
    1.9462    0.8734    4.0276 H   0  0  0  0  0  0  0  0  0  0  0  0
    3.5186    1.6237    4.2325 H   0  0  0  0  0  0  0  0  0  0  0  0
    1.9316    2.4595    1.7530 H   0  0  0  0  0  0  0  0  0  0  0  0
    3.8128    3.9744    3.6750 H   0  0  0  0  0  0  0  0  0  0  0  0
    3.0753    4.5496    2.0882 H   0  0  0  0  0  0  0  0  0  0  0  0
    0.7697    4.1270    2.9992 H   0  0  0  0  0  0  0  0  0  0  0  0
    1.4983    3.5534    4.5944 H   0  0  0  0  0  0  0  0  0  0  0  0
  1  2  1  0
  1 30  1  0
  2  7  2  0
  2  3  1  0
  3  4  2  0
  3 31  1  0
  4  5  1  0
  4 32  1  0
  5 21  1  0
  5  6  2  0
  6 22  1  0
  6  7  1  0
  7  8  1  0
  8  9  1  0
  8 33  1  0
  8 34  1  0
  9 25  1  0
  9 10  1  0
  9 35  1  1
 10 22  1  0
 10 11  1  0
 10 36  1  1
 11 12  1  0
 11 37  1  0
 11 38  1  0
 12 13  1  0
 12 39  1  0
 12 40  1  0
 13 14  2  3
 13 20  1  0
 14 15  1  0
 15 16  1  0
 16 17  1  0
 16 41  1  0
 16 42  1  0
 17 19  1  0
 17 18  1  0
 17 43  1  0
 18 19  1  0
 18 44  1  0
 18 45  1  0
 19 46  1  0
 19 47  1  0
 20 21  1  0
 20 22  1  0
 20 48  1  1
 22 23  1  6
 23 24  1  0
 23 49  1  0
 23 50  1  0
 24 25  1  0
 24 51  1  0
 24 52  1  0
 25 26  1  0
 26 27  1  0
 26 53  1  0
 26 54  1  0
 27 29  1  0
 27 28  1  0
 27 55  1  0
 28 29  1  0
 28 56  1  0
 28 57  1  0
 29 58  1  0
 29 59  1  0
M  END
>  <i_m_ct_stereo_status>  (15) 
1

>  <s_m_source_file>  (15) 
/var/tmp/pbs.5076255.sched01/tmpr7id634h/0ay6m0hv_.sdf

>  <i_m_source_file_index>  (15) 
6

>  <i_lp_mmshare_version>  (15) 
48012

>  <i_f3d_flags>  (15) 
0

>  <s_epik_input>  (15) 
W0NAQF0xMjNjNGM1W2NIXVtjSF1jKFtPSF0pYzRbQ0gyXVtDQEBIXShOKFtDSDJdW0NIMl0zKVtDSDJdW0NIXTZbQ0gyXVtDSDJdNilbQ0BASF0xW0NIMl1bQ0gyXS9DKFtDQEBIXTJPNSk9TlxPW0NIMl1bQ0hdN1tDSDJdW0NIMl03

>  <s_epik_cmdline>  (15) 
J2VwaWtfcHl0aG9uJywgJy1waHQnLCAnMi4wJywgJy1waCcsICc3LjAnLCAnLXRuJywgJzgnLCAnLW1hJywgJzIwMCcsICctaW1hZScsICc8aW5maWxlLm1hZT4nLCAnLW9tYWUnLCAnPG91dGZpbGUubWFlPic=

>  <r_lp_tautomer_probability>  (15) 
1

>  <r_epik_Ionization_Penalty>  (15) 
2.28972

>  <r_epik_Ionization_Penalty_Charging>  (15) 
0

>  <r_epik_Ionization_Penalty_Neutral>  (15) 
2.28972

>  <r_epik_State_Penalty>  (15) 
2.43953

>  <r_epik_Charging_Adjusted_Penalty>  (15) 
2.43953

>  <i_epik_Tot_Q>  (15) 
0

>  <i_epik_Tot_abs_Q>  (15) 
0

>  <s_epik_Chemistry_Notes>  (15) 
This compound has an imine and may undergo hydrolysis.

>  <s_lp_Force_Field>  (15) 
OPLS3e

>  <r_lp_Energy>  (15) 
72.4792

>  <b_lp_Chiralities_Consistent>  (15) 
1

>  <s_lp_Variant>  (15) 
2:0-4

>  <s_i_glide_gridfile>  (15) 
pfpi4k_grid

>  <i_i_glide_lignum>  (15) 
6

>  <i_i_glide_rotatable_bonds>  (15) 
6

>  <r_i_docking_score>  (15) 
-1.95862

>  <r_i_glide_ligand_efficiency>  (15) 
-0.0675386

>  <r_i_glide_ligand_efficiency_sa>  (15) 
-0.2075

>  <r_i_glide_ligand_efficiency_ln>  (15) 
-0.448474

>  <r_i_glide_gscore>  (15) 
-1.95862

>  <r_i_glide_lipo>  (15) 
-0.263979

>  <r_i_glide_hbond>  (15) 
-0.00583401

>  <r_i_glide_metal>  (15) 
-0

>  <r_i_glide_rewards>  (15) 
-0.719273

>  <r_i_glide_evdw>  (15) 
-24.0646

>  <r_i_glide_ecoul>  (15) 
-1.71768

>  <r_i_glide_erotb>  (15) 
0.502342

>  <r_i_glide_esite>  (15) 
-0.010993

>  <r_i_glide_emodel>  (15) 
-29.0227

>  <r_i_glide_energy>  (15) 
-25.7823

>  <r_i_glide_einternal>  (15) 
0.348228

>  <r_i_glide_intrahb_reward>  (15) 
-0

>  <i_i_glide_confnum>  (15) 
3

>  <i_i_glide_posenum>  (15) 
15

>  <r_i_glide_eff_state_penalty>  (15) 
0

>  <ligand_id>  (15) 
2

>  <original_smiles>  (15) 
Oc1ccc2c3c1CC1C4CCC(=NOCC5CC5)C(O2)C34CCN1CC1CC1

>  <smiles>  (15) 
[H]Oc1c([H])c([H])c2c3c1C([H])([H])C1([H])N(C([H])([H])C4([H])C([H])([H])C4([H])[H])C([H])([H])C([H])([H])C34C([H])(O2)C(=NOC([H])([H])C2([H])C([H])([H])C2([H])[H])C([H])([H])C([H])([H])C14[H]

$$$$
3:0:0
     RDKit          3D

 69 75  0  0  1  0  0  0  0  0999 V2000
   -0.6668    1.5682    7.8896 C   0  0  0  0  0  0  0  0  0  0  0  0
   -1.0927    1.2378    6.4698 C   0  0  0  0  0  0  0  0  0  0  0  0
   -1.8446    2.1191    5.8167 C   0  0  0  0  0  0  0  0  0  0  0  0
   -1.2805    3.4653    5.4331 C   0  0  1  0  0  0  0  0  0  0  0  0
   -0.0754    3.8230    6.1523 O   0  0  0  0  0  0  0  0  0  0  0  0
    1.0643    3.5946    5.3696 C   0  0  1  0  0  0  0  0  0  0  0  0
    1.3901    2.2132    5.4997 O   0  0  0  0  0  0  0  0  0  0  0  0
    2.5828    1.4964    5.0518 C   0  0  2  0  0  0  0  0  0  0  0  0
    3.8106    2.4254    5.1173 C   0  0  0  0  0  0  0  0  0  0  0  0
    2.2879    0.9705    3.6378 C   0  0  1  0  0  0  0  0  0  0  0  0
    3.3071    0.0598    2.9124 C   0  0  0  0  0  0  0  0  0  0  0  0
    0.8172    0.5203    3.6868 C   0  0  0  0  0  0  0  0  0  0  0  0
    0.0897    1.3010    2.8605 C   0  0  0  0  0  0  0  0  0  0  0  0
   -1.1373    2.1421    3.0695 C   0  0  0  0  0  0  0  0  0  0  0  0
   -0.9062    3.4856    3.9089 C   0  0  1  0  0  0  0  0  0  0  0  0
   -1.7804    4.4353    3.3005 O   0  0  0  0  0  0  0  0  0  0  0  0
    0.5381    4.0955    3.9853 C   0  0  1  0  0  0  0  0  0  0  0  0
    0.5242    5.6491    4.0733 C   0  0  0  0  0  0  0  0  0  0  0  0
    1.4139    3.9293    2.8931 O   0  0  0  0  0  0  0  0  0  0  0  0
    0.4533   -0.3890    4.9392 C   0  0  2  0  0  0  0  0  0  0  0  0
   -0.8320   -0.1298    5.8515 C   0  0  0  0  0  0  0  0  0  0  0  0
    1.8053   -1.0276    5.5615 C   0  0  2  0  0  0  0  0  0  0  0  0
    2.1411   -2.2388    4.6169 C   0  0  0  0  0  0  0  0  0  0  0  0
    1.4423   -3.4676    5.2534 C   0  0  2  0  0  0  0  0  0  0  0  0
    0.0101   -3.5080    4.9827 O   0  0  0  0  0  0  0  0  0  0  0  0
   -0.2789   -3.3088    6.2998 C   0  0  0  0  0  0  0  0  0  0  0  0
   -1.3680   -3.3107    6.8742 O   0  0  0  0  0  0  0  0  0  0  0  0
    1.1893   -3.1866    6.7215 C   0  0  2  0  0  0  0  0  0  0  0  0
    1.9418   -1.8605    6.8972 C   0  0  1  0  0  0  0  0  0  0  0  0
    3.3875   -2.4116    7.2229 C   0  0  0  0  0  0  0  0  0  0  0  0
    1.7327   -0.8189    7.9842 C   0  0  0  0  0  0  0  0  0  0  0  0
    2.6151    0.3561    7.4478 C   0  0  0  0  0  0  0  0  0  0  0  0
    2.7591    0.1826    5.9043 C   0  0  2  0  0  0  0  0  0  0  0  0
    0.3664    1.8601    7.9648 H   0  0  0  0  0  0  0  0  0  0  0  0
   -0.8863    0.7473    8.5711 H   0  0  0  0  0  0  0  0  0  0  0  0
   -1.2435    2.4162    8.2633 H   0  0  0  0  0  0  0  0  0  0  0  0
   -2.5281    1.7633    5.0764 H   0  0  0  0  0  0  0  0  0  0  0  0
   -2.0542    4.1948    5.6677 H   0  0  0  0  0  0  0  0  0  0  0  0
    1.8756    4.2001    5.7737 H   0  0  0  0  0  0  0  0  0  0  0  0
    4.7102    1.9054    4.7978 H   0  0  0  0  0  0  0  0  0  0  0  0
    3.9804    2.8045    6.1252 H   0  0  0  0  0  0  0  0  0  0  0  0
    3.6897    3.2843    4.4560 H   0  0  0  0  0  0  0  0  0  0  0  0
    2.3982    1.8354    3.0029 H   0  0  0  0  0  0  0  0  0  0  0  0
    2.8210   -0.5008    2.1132 H   0  0  0  0  0  0  0  0  0  0  0  0
    3.8411   -0.6326    3.5543 H   0  0  0  0  0  0  0  0  0  0  0  0
    4.0824    0.6615    2.4364 H   0  0  0  0  0  0  0  0  0  0  0  0
    0.6314    1.7721    2.0551 H   0  0  0  0  0  0  0  0  0  0  0  0
   -1.3709    2.4610    2.0634 H   0  0  0  0  0  0  0  0  0  0  0  0
   -2.0000    1.5187    3.2624 H   0  0  0  0  0  0  0  0  0  0  0  0
   -1.4943    4.5258    2.3977 H   0  0  0  0  0  0  0  0  0  0  0  0
   -0.1201    6.0240    4.8719 H   0  0  0  0  0  0  0  0  0  0  0  0
    0.1849    6.1047    3.1383 H   0  0  0  0  0  0  0  0  0  0  0  0
    1.5291    6.0381    4.2583 H   0  0  0  0  0  0  0  0  0  0  0  0
    0.9351    4.1451    2.0897 H   0  0  0  0  0  0  0  0  0  0  0  0
    0.0184   -1.1951    4.3579 H   0  0  0  0  0  0  0  0  0  0  0  0
   -0.9076   -0.8370    6.6633 H   0  0  0  0  0  0  0  0  0  0  0  0
   -1.6985   -0.3483    5.2246 H   0  0  0  0  0  0  0  0  0  0  0  0
    1.8362   -2.1062    3.5787 H   0  0  0  0  0  0  0  0  0  0  0  0
    3.2166   -2.4193    4.5904 H   0  0  0  0  0  0  0  0  0  0  0  0
    1.9241   -4.4315    5.0739 H   0  0  0  0  0  0  0  0  0  0  0  0
    1.4984   -4.0044    7.3715 H   0  0  0  0  0  0  0  0  0  0  0  0
    3.3999   -2.8425    8.2268 H   0  0  0  0  0  0  0  0  0  0  0  0
    4.1962   -1.6852    7.1997 H   0  0  0  0  0  0  0  0  0  0  0  0
    3.7053   -3.2279    6.5730 H   0  0  0  0  0  0  0  0  0  0  0  0
    0.6904   -0.5682    8.0594 H   0  0  0  0  0  0  0  0  0  0  0  0
    2.0431   -1.1484    8.9765 H   0  0  0  0  0  0  0  0  0  0  0  0
    2.2708    1.3407    7.7295 H   0  0  0  0  0  0  0  0  0  0  0  0
    3.6043    0.3024    7.9031 H   0  0  0  0  0  0  0  0  0  0  0  0
    3.7786   -0.1532    5.7220 H   0  0  0  0  0  0  0  0  0  0  0  0
  1  2  1  0
  1 34  1  0
  1 35  1  0
  1 36  1  0
  2 21  1  0
  2  3  2  3
  3  4  1  0
  3 37  1  0
  4 15  1  0
  4  5  1  0
  4 38  1  6
  5  6  1  0
  6 17  1  0
  6  7  1  0
  6 39  1  1
  7  8  1  0
  8 33  1  0
  8  9  1  6
  8 10  1  0
  9 40  1  0
  9 41  1  0
  9 42  1  0
 10 11  1  0
 10 12  1  0
 10 43  1  6
 11 44  1  0
 11 45  1  0
 11 46  1  0
 12 13  2  3
 12 20  1  0
 13 14  1  0
 13 47  1  0
 14 15  1  0
 14 48  1  0
 14 49  1  0
 15 16  1  6
 15 17  1  0
 16 50  1  0
 17 18  1  0
 17 19  1  6
 18 51  1  0
 18 52  1  0
 18 53  1  0
 19 54  1  0
 20 21  1  0
 20 22  1  0
 20 55  1  6
 21 56  1  0
 21 57  1  0
 22 29  1  0
 22 33  1  0
 22 23  1  6
 23 24  1  0
 23 58  1  0
 23 59  1  0
 24 28  1  0
 24 25  1  0
 24 60  1  1
 25 26  1  0
 26 27  2  0
 26 28  1  0
 28 29  1  0
 28 61  1  1
 29 30  1  1
 29 31  1  0
 30 62  1  0
 30 63  1  0
 30 64  1  0
 31 32  1  0
 31 65  1  0
 31 66  1  0
 32 33  1  0
 32 67  1  0
 32 68  1  0
 33 69  1  1
M  END
>  <i_m_ct_stereo_status>  (16) 
1

>  <s_m_source_file>  (16) 
/var/tmp/pbs.5076255.sched01/tmpr7id634h/0ay6m0hv_.sdf

>  <i_m_source_file_index>  (16) 
7

>  <i_lp_mmshare_version>  (16) 
48012

>  <i_f3d_flags>  (16) 
0

>  <s_epik_input>  (16) 
W0NAQF0xMjNbQ0hdNENcNT1bQ0hdXFtDSDJdW0NAQF02KFtPSF0pW0NAQEhdKFxbQ0hdPUMoXFtDSDNdKVtDSDJdNClPW0NASF0oW0NAQF02KFtDSDNdKVtPSF0pT1tDQF0oW0NIM10pKFtDQEhdNVtDSDNdKVtDQEhdM1tDSDJdW0NIMl1bQ0BAXTIoW0NIM10pW0NAQEhdN1tDQEhdKFtDSDJdMSlPQzc9Tw==

>  <s_epik_cmdline>  (16) 
J2VwaWtfcHl0aG9uJywgJy1waHQnLCAnMi4wJywgJy1waCcsICc3LjAnLCAnLXRuJywgJzgnLCAnLW1hJywgJzIwMCcsICctaW1hZScsICc8aW5maWxlLm1hZT4nLCAnLW9tYWUnLCAnPG91dGZpbGUubWFlPic=

>  <r_lp_tautomer_probability>  (16) 
1

>  <r_epik_Ionization_Penalty>  (16) 
3.25078e-07

>  <r_epik_Ionization_Penalty_Charging>  (16) 
0

>  <r_epik_Ionization_Penalty_Neutral>  (16) 
3.25078e-07

>  <r_epik_State_Penalty>  (16) 
-0

>  <r_epik_Charging_Adjusted_Penalty>  (16) 
0

>  <i_epik_Tot_Q>  (16) 
0

>  <i_epik_Tot_abs_Q>  (16) 
0

>  <s_epik_Chemistry_Notes>  (16) 
This compound has an ester and may undergo hydrolysis at high or low pH. This compound contains an acetal/aminal-like group ( X-CH(R)-Y where X, Y are N, S, or O) that may be acid/base labile, releasing an aldehyde.

>  <s_lp_Force_Field>  (16) 
OPLS3e

>  <r_lp_Energy>  (16) 
201.345

>  <b_lp_Chiralities_Consistent>  (16) 
1

>  <s_lp_Variant>  (16) 
3:0-1

>  <s_i_glide_gridfile>  (16) 
pfpi4k_grid

>  <i_i_glide_lignum>  (16) 
7

>  <i_i_glide_rotatable_bonds>  (16) 
2

>  <r_i_docking_score>  (16) 
-3.01441

>  <r_i_glide_ligand_efficiency>  (16) 
-0.0913457

>  <r_i_glide_ligand_efficiency_sa>  (16) 
-0.292994

>  <r_i_glide_ligand_efficiency_ln>  (16) 
-0.670389

>  <r_i_glide_gscore>  (16) 
-3.01441

>  <r_i_glide_lipo>  (16) 
-0.0126117

>  <r_i_glide_hbond>  (16) 
0

>  <r_i_glide_metal>  (16) 
-0

>  <r_i_glide_rewards>  (16) 
-0.296106

>  <r_i_glide_evdw>  (16) 
-24.4505

>  <r_i_glide_ecoul>  (16) 
-9.74999

>  <r_i_glide_erotb>  (16) 
0

>  <r_i_glide_esite>  (16) 
-0.0206663

>  <r_i_glide_emodel>  (16) 
-42.1218

>  <r_i_glide_energy>  (16) 
-34.2005

>  <r_i_glide_einternal>  (16) 
0.150494

>  <r_i_glide_intrahb_reward>  (16) 
-0

>  <i_i_glide_confnum>  (16) 
1

>  <i_i_glide_posenum>  (16) 
22

>  <r_i_glide_eff_state_penalty>  (16) 
0

>  <ligand_id>  (16) 
3

>  <original_smiles>  (16) 
CC1=CC2OC3OC4(C)C(C)C(=CCC2(O)C3(C)O)C(C1)C12CC3OC(=O)C3C1(C)CCC42

>  <smiles>  (16) 
[H]OC1(C([H])([H])[H])C2([H])OC3([H])C([H])=C(C([H])([H])[H])C([H])([H])C4([H])C(=C([H])C([H])([H])C31O[H])C([H])(C([H])([H])[H])C(C([H])([H])[H])(O2)C1([H])C([H])([H])C([H])([H])C2(C([H])([H])[H])C3([H])C(=O)OC3([H])C([H])([H])C412

$$$$
3:0:1
     RDKit          3D

 69 75  0  0  1  0  0  0  0  0999 V2000
    2.2834    1.6867    7.4321 C   0  0  0  0  0  0  0  0  0  0  0  0
    2.7795    1.9603    6.0222 C   0  0  0  0  0  0  0  0  0  0  0  0
    2.1986    1.3178    5.0136 C   0  0  0  0  0  0  0  0  0  0  0  0
    0.7580    1.6100    4.6651 C   0  0  1  0  0  0  0  0  0  0  0  0
    0.0288    2.2907    5.7194 O   0  0  0  0  0  0  0  0  0  0  0  0
   -0.0784    3.6605    5.4548 C   0  0  1  0  0  0  0  0  0  0  0  0
    1.1311    4.2721    5.9003 O   0  0  0  0  0  0  0  0  0  0  0  0
    1.4676    5.6901    6.0399 C   0  0  2  0  0  0  0  0  0  0  0  0
    0.2094    6.5026    6.4092 C   0  0  0  0  0  0  0  0  0  0  0  0
    2.1102    6.1304    4.7149 C   0  0  1  0  0  0  0  0  0  0  0  0
    2.6920    7.5578    4.5642 C   0  0  0  0  0  0  0  0  0  0  0  0
    2.9860    4.9421    4.2921 C   0  0  0  0  0  0  0  0  0  0  0  0
    2.4971    4.4218    3.1437 C   0  0  0  0  0  0  0  0  0  0  0  0
    2.0725    3.0371    2.7505 C   0  0  0  0  0  0  0  0  0  0  0  0
    0.6970    2.5406    3.4032 C   0  0  1  0  0  0  0  0  0  0  0  0
    0.1025    1.7464    2.3881 O   0  0  0  0  0  0  0  0  0  0  0  0
   -0.3378    3.6077    3.9134 C   0  0  1  0  0  0  0  0  0  0  0  0
   -1.8173    3.1548    3.7436 C   0  0  0  0  0  0  0  0  0  0  0  0
   -0.4063    4.8581    3.2849 O   0  0  0  0  0  0  0  0  0  0  0  0
    3.9110    4.3638    5.4441 C   0  0  2  0  0  0  0  0  0  0  0  0
    4.0236    2.8028    5.7684 C   0  0  0  0  0  0  0  0  0  0  0  0
    4.0897    5.4730    6.6100 C   0  0  2  0  0  0  0  0  0  0  0  0
    5.1786    6.4612    6.0504 C   0  0  0  0  0  0  0  0  0  0  0  0
    6.5376    5.9201    6.5643 C   0  0  2  0  0  0  0  0  0  0  0  0
    7.0305    4.7914    5.7896 O   0  0  0  0  0  0  0  0  0  0  0  0
    6.8660    3.9473    6.8527 C   0  0  0  0  0  0  0  0  0  0  0  0
    7.1722    2.7667    6.9751 O   0  0  0  0  0  0  0  0  0  0  0  0
    6.2916    5.0381    7.7688 C   0  0  2  0  0  0  0  0  0  0  0  0
    4.7948    5.2792    8.0100 C   0  0  1  0  0  0  0  0  0  0  0  0
    4.8667    6.5660    8.9259 C   0  0  0  0  0  0  0  0  0  0  0  0
    3.8263    4.3887    8.7702 C   0  0  0  0  0  0  0  0  0  0  0  0
    2.4579    5.0670    8.4233 C   0  0  0  0  0  0  0  0  0  0  0  0
    2.6344    5.8561    7.0891 C   0  0  2  0  0  0  0  0  0  0  0  0
    1.6911    2.4864    7.8406 H   0  0  0  0  0  0  0  0  0  0  0  0
    3.1135    1.4417    8.0935 H   0  0  0  0  0  0  0  0  0  0  0  0
    1.6422    0.8046    7.4332 H   0  0  0  0  0  0  0  0  0  0  0  0
    2.7778    1.1075    4.1381 H   0  0  0  0  0  0  0  0  0  0  0  0
    0.2699    0.6503    4.4830 H   0  0  0  0  0  0  0  0  0  0  0  0
   -0.9187    4.0517    6.0285 H   0  0  0  0  0  0  0  0  0  0  0  0
    0.4279    7.5629    6.5220 H   0  0  0  0  0  0  0  0  0  0  0  0
   -0.2389    6.1506    7.3383 H   0  0  0  0  0  0  0  0  0  0  0  0
   -0.5468    6.4173    5.6297 H   0  0  0  0  0  0  0  0  0  0  0  0
    1.2804    6.2503    4.0357 H   0  0  0  0  0  0  0  0  0  0  0  0
    3.4050    7.5976    3.7393 H   0  0  0  0  0  0  0  0  0  0  0  0
    3.1667    7.9566    5.4547 H   0  0  0  0  0  0  0  0  0  0  0  0
    1.8992    8.2673    4.3172 H   0  0  0  0  0  0  0  0  0  0  0  0
    1.9186    5.0927    2.5307 H   0  0  0  0  0  0  0  0  0  0  0  0
    1.8765    3.1575    1.6875 H   0  0  0  0  0  0  0  0  0  0  0  0
    2.9204    2.3669    2.7062 H   0  0  0  0  0  0  0  0  0  0  0  0
    0.0070    2.2991    1.6215 H   0  0  0  0  0  0  0  0  0  0  0  0
   -2.0146    2.1726    4.1768 H   0  0  0  0  0  0  0  0  0  0  0  0
   -2.1053    3.1090    2.6904 H   0  0  0  0  0  0  0  0  0  0  0  0
   -2.5008    3.8607    4.2231 H   0  0  0  0  0  0  0  0  0  0  0  0
   -0.2003    4.7193    2.3414 H   0  0  0  0  0  0  0  0  0  0  0  0
    4.8337    4.4264    4.8796 H   0  0  0  0  0  0  0  0  0  0  0  0
    4.6903    2.5908    6.5911 H   0  0  0  0  0  0  0  0  0  0  0  0
    4.5189    2.3477    4.9083 H   0  0  0  0  0  0  0  0  0  0  0  0
    5.1797    6.5750    4.9668 H   0  0  0  0  0  0  0  0  0  0  0  0
    5.0243    7.4635    6.4517 H   0  0  0  0  0  0  0  0  0  0  0  0
    7.3132    6.6715    6.7247 H   0  0  0  0  0  0  0  0  0  0  0  0
    6.9524    5.2589    8.6076 H   0  0  0  0  0  0  0  0  0  0  0  0
    5.2354    6.2935    9.9176 H   0  0  0  0  0  0  0  0  0  0  0  0
    3.9305    7.0928    9.0929 H   0  0  0  0  0  0  0  0  0  0  0  0
    5.5694    7.3200    8.5717 H   0  0  0  0  0  0  0  0  0  0  0  0
    3.9015    3.3772    8.4146 H   0  0  0  0  0  0  0  0  0  0  0  0
    4.0064    4.3549    9.8451 H   0  0  0  0  0  0  0  0  0  0  0  0
    1.6146    4.3912    8.4038 H   0  0  0  0  0  0  0  0  0  0  0  0
    2.1892    5.7678    9.2142 H   0  0  0  0  0  0  0  0  0  0  0  0
    2.6520    6.9136    7.3505 H   0  0  0  0  0  0  0  0  0  0  0  0
  1  2  1  0
  1 34  1  0
  1 35  1  0
  1 36  1  0
  2 21  1  0
  2  3  2  3
  3  4  1  0
  3 37  1  0
  4 15  1  0
  4  5  1  0
  4 38  1  6
  5  6  1  0
  6 17  1  0
  6  7  1  0
  6 39  1  1
  7  8  1  0
  8 33  1  0
  8  9  1  1
  8 10  1  0
  9 40  1  0
  9 41  1  0
  9 42  1  0
 10 11  1  0
 10 12  1  0
 10 43  1  6
 11 44  1  0
 11 45  1  0
 11 46  1  0
 12 13  2  3
 12 20  1  0
 13 14  1  0
 13 47  1  0
 14 15  1  0
 14 48  1  0
 14 49  1  0
 15 16  1  6
 15 17  1  0
 16 50  1  0
 17 18  1  0
 17 19  1  6
 18 51  1  0
 18 52  1  0
 18 53  1  0
 19 54  1  0
 20 21  1  0
 20 22  1  0
 20 55  1  6
 21 56  1  0
 21 57  1  0
 22 29  1  0
 22 33  1  0
 22 23  1  6
 23 24  1  0
 23 58  1  0
 23 59  1  0
 24 28  1  0
 24 25  1  0
 24 60  1  1
 25 26  1  0
 26 27  2  0
 26 28  1  0
 28 29  1  0
 28 61  1  1
 29 30  1  1
 29 31  1  0
 30 62  1  0
 30 63  1  0
 30 64  1  0
 31 32  1  0
 31 65  1  0
 31 66  1  0
 32 33  1  0
 32 67  1  0
 32 68  1  0
 33 69  1  1
M  END
>  <i_m_ct_stereo_status>  (17) 
1

>  <s_m_source_file>  (17) 
/var/tmp/pbs.5076255.sched01/tmpr7id634h/0ay6m0hv_.sdf

>  <i_m_source_file_index>  (17) 
7

>  <i_lp_mmshare_version>  (17) 
48012

>  <i_f3d_flags>  (17) 
0

>  <s_epik_input>  (17) 
W0NAQF0xMjNbQ0hdNENcNT1bQ0hdXFtDSDJdW0NAQF02KFtPSF0pW0NAQEhdKFxbQ0hdPUMoXFtDSDNdKVtDSDJdNClPW0NASF0oW0NAQF02KFtDSDNdKVtPSF0pT1tDQF0oW0NIM10pKFtDQEhdNVtDSDNdKVtDQEhdM1tDSDJdW0NIMl1bQ0BAXTIoW0NIM10pW0NAQEhdN1tDQEhdKFtDSDJdMSlPQzc9Tw==

>  <s_epik_cmdline>  (17) 
J2VwaWtfcHl0aG9uJywgJy1waHQnLCAnMi4wJywgJy1waCcsICc3LjAnLCAnLXRuJywgJzgnLCAnLW1hJywgJzIwMCcsICctaW1hZScsICc8aW5maWxlLm1hZT4nLCAnLW9tYWUnLCAnPG91dGZpbGUubWFlPic=

>  <r_lp_tautomer_probability>  (17) 
1

>  <r_epik_Ionization_Penalty>  (17) 
3.25078e-07

>  <r_epik_Ionization_Penalty_Charging>  (17) 
0

>  <r_epik_Ionization_Penalty_Neutral>  (17) 
3.25078e-07

>  <r_epik_State_Penalty>  (17) 
-0

>  <r_epik_Charging_Adjusted_Penalty>  (17) 
0

>  <i_epik_Tot_Q>  (17) 
0

>  <i_epik_Tot_abs_Q>  (17) 
0

>  <s_epik_Chemistry_Notes>  (17) 
This compound has an ester and may undergo hydrolysis at high or low pH. This compound contains an acetal/aminal-like group ( X-CH(R)-Y where X, Y are N, S, or O) that may be acid/base labile, releasing an aldehyde.

>  <s_lp_Force_Field>  (17) 
OPLS3e

>  <r_lp_Energy>  (17) 
201.345

>  <b_lp_Chiralities_Consistent>  (17) 
1

>  <s_lp_Variant>  (17) 
3:0-1

>  <s_i_glide_gridfile>  (17) 
pfpi4k_grid

>  <i_i_glide_lignum>  (17) 
7

>  <i_i_glide_rotatable_bonds>  (17) 
2

>  <r_i_docking_score>  (17) 
-2.6879

>  <r_i_glide_ligand_efficiency>  (17) 
-0.0814515

>  <r_i_glide_ligand_efficiency_sa>  (17) 
-0.261259

>  <r_i_glide_ligand_efficiency_ln>  (17) 
-0.597775

>  <r_i_glide_gscore>  (17) 
-2.6879

>  <r_i_glide_lipo>  (17) 
-0.00588969

>  <r_i_glide_hbond>  (17) 
0

>  <r_i_glide_metal>  (17) 
-0

>  <r_i_glide_rewards>  (17) 
-0.340985

>  <r_i_glide_evdw>  (17) 
-24.1036

>  <r_i_glide_ecoul>  (17) 
-7.52652

>  <r_i_glide_erotb>  (17) 
0

>  <r_i_glide_esite>  (17) 
-0.00686951

>  <r_i_glide_emodel>  (17) 
-38.3056

>  <r_i_glide_energy>  (17) 
-31.6301

>  <r_i_glide_einternal>  (17) 
0.58253

>  <r_i_glide_intrahb_reward>  (17) 
-0

>  <i_i_glide_confnum>  (17) 
1

>  <i_i_glide_posenum>  (17) 
31

>  <r_i_glide_eff_state_penalty>  (17) 
0

>  <ligand_id>  (17) 
3

>  <original_smiles>  (17) 
CC1=CC2OC3OC4(C)C(C)C(=CCC2(O)C3(C)O)C(C1)C12CC3OC(=O)C3C1(C)CCC42

>  <smiles>  (17) 
[H]OC1(C([H])([H])[H])C2([H])OC3([H])C([H])=C(C([H])([H])[H])C([H])([H])C4([H])C(=C([H])C([H])([H])C31O[H])C([H])(C([H])([H])[H])C(C([H])([H])[H])(O2)C1([H])C([H])([H])C([H])([H])C2(C([H])([H])[H])C3([H])C(=O)OC3([H])C([H])([H])C412

$$$$
3:0:2
     RDKit          3D

 69 75  0  0  1  0  0  0  0  0999 V2000
    0.4985   -0.1625    7.1355 C   0  0  0  0  0  0  0  0  0  0  0  0
    1.0939    0.0481    5.7543 C   0  0  0  0  0  0  0  0  0  0  0  0
    0.3612   -0.2826    4.6963 C   0  0  0  0  0  0  0  0  0  0  0  0
   -0.8905    0.4993    4.3787 C   0  0  1  0  0  0  0  0  0  0  0  0
   -1.3929    1.2912    5.4820 O   0  0  0  0  0  0  0  0  0  0  0  0
   -1.0330    2.6382    5.3384 C   0  0  1  0  0  0  0  0  0  0  0  0
    0.2963    2.7728    5.8382 O   0  0  0  0  0  0  0  0  0  0  0  0
    1.0766    3.9836    6.0979 C   0  0  2  0  0  0  0  0  0  0  0  0
    0.1444    5.1315    6.5384 C   0  0  0  0  0  0  0  0  0  0  0  0
    1.8620    4.2947    4.8147 C   0  0  1  0  0  0  0  0  0  0  0  0
    2.8796    5.4613    4.7850 C   0  0  0  0  0  0  0  0  0  0  0  0
    2.3115    2.9252    4.2856 C   0  0  0  0  0  0  0  0  0  0  0  0
    1.7123    2.6947    3.0923 C   0  0  0  0  0  0  0  0  0  0  0  0
    0.8626    1.5691    2.5777 C   0  0  0  0  0  0  0  0  0  0  0  0
   -0.6089    1.4987    3.2010 C   0  0  1  0  0  0  0  0  0  0  0  0
   -1.3827    1.0000    2.1278 O   0  0  0  0  0  0  0  0  0  0  0  0
   -1.2404    2.8099    3.7926 C   0  0  1  0  0  0  0  0  0  0  0  0
   -2.7703    2.9092    3.5823 C   0  0  0  0  0  0  0  0  0  0  0  0
   -0.8819    4.0686    3.2811 O   0  0  0  0  0  0  0  0  0  0  0  0
    2.9668    1.9824    5.3794 C   0  0  2  0  0  0  0  0  0  0  0  0
    2.5521    0.4516    5.5704 C   0  0  0  0  0  0  0  0  0  0  0  0
    3.4639    2.8711    6.6395 C   0  0  2  0  0  0  0  0  0  0  0  0
    4.8283    3.4946    6.1686 C   0  0  0  0  0  0  0  0  0  0  0  0
    5.9231    2.4945    6.6254 C   0  0  2  0  0  0  0  0  0  0  0  0
    6.0335    1.3369    5.7513 O   0  0  0  0  0  0  0  0  0  0  0  0
    5.5835    0.5106    6.7396 C   0  0  0  0  0  0  0  0  0  0  0  0
    5.4906   -0.7150    6.7561 O   0  0  0  0  0  0  0  0  0  0  0  0
    5.3732    1.6481    7.7469 C   0  0  2  0  0  0  0  0  0  0  0  0
    4.0309    2.3448    8.0152 C   0  0  1  0  0  0  0  0  0  0  0  0
    4.4981    3.4568    9.0357 C   0  0  0  0  0  0  0  0  0  0  0  0
    2.8065    1.7621    8.6983 C   0  0  0  0  0  0  0  0  0  0  0  0
    1.7469    2.8785    8.4151 C   0  0  0  0  0  0  0  0  0  0  0  0
    2.2047    3.6700    7.1531 C   0  0  2  0  0  0  0  0  0  0  0  0
    0.1938    0.7524    7.6116 H   0  0  0  0  0  0  0  0  0  0  0  0
    1.1861   -0.7196    7.7703 H   0  0  0  0  0  0  0  0  0  0  0  0
   -0.3939   -0.7828    7.0577 H   0  0  0  0  0  0  0  0  0  0  0  0
    0.8594   -0.5910    3.8003 H   0  0  0  0  0  0  0  0  0  0  0  0
   -1.6603   -0.2286    4.1142 H   0  0  0  0  0  0  0  0  0  0  0  0
   -1.7109    3.2335    5.9454 H   0  0  0  0  0  0  0  0  0  0  0  0
    0.6967    6.0461    6.7422 H   0  0  0  0  0  0  0  0  0  0  0  0
   -0.4194    4.8740    7.4352 H   0  0  0  0  0  0  0  0  0  0  0  0
   -0.5749    5.3706    5.7548 H   0  0  0  0  0  0  0  0  0  0  0  0
    1.1353    4.7345    4.1522 H   0  0  0  0  0  0  0  0  0  0  0  0
    3.5857    5.3321    3.9634 H   0  0  0  0  0  0  0  0  0  0  0  0
    3.4369    5.6057    5.7046 H   0  0  0  0  0  0  0  0  0  0  0  0
    2.3676    6.4086    4.6047 H   0  0  0  0  0  0  0  0  0  0  0  0
    1.4013    3.5711    2.5467 H   0  0  0  0  0  0  0  0  0  0  0  0
    0.7358    1.8363    1.5287 H   0  0  0  0  0  0  0  0  0  0  0  0
    1.4431    0.6617    2.4750 H   0  0  0  0  0  0  0  0  0  0  0  0
   -2.3013    0.9656    2.3875 H   0  0  0  0  0  0  0  0  0  0  0  0
   -3.2914    2.0402    3.9610 H   0  0  0  0  0  0  0  0  0  0  0  0
   -3.0423    3.0283    2.5295 H   0  0  0  0  0  0  0  0  0  0  0  0
   -3.1708    3.7449    4.1301 H   0  0  0  0  0  0  0  0  0  0  0  0
   -0.6319    3.9813    2.3591 H   0  0  0  0  0  0  0  0  0  0  0  0
    3.8730    1.7876    4.8158 H   0  0  0  0  0  0  0  0  0  0  0  0
    3.0922   -0.0327    6.3698 H   0  0  0  0  0  0  0  0  0  0  0  0
    2.8944   -0.0657    4.6715 H   0  0  0  0  0  0  0  0  0  0  0  0
    4.8863    3.6941    5.1014 H   0  0  0  0  0  0  0  0  0  0  0  0
    5.0034    4.4520    6.6581 H   0  0  0  0  0  0  0  0  0  0  0  0
    6.8991    2.9288    6.8603 H   0  0  0  0  0  0  0  0  0  0  0  0
    6.0566    1.5757    8.5950 H   0  0  0  0  0  0  0  0  0  0  0  0
    4.7320    2.9963    9.9981 H   0  0  0  0  0  0  0  0  0  0  0  0
    3.7819    4.2457    9.2492 H   0  0  0  0  0  0  0  0  0  0  0  0
    5.4202    3.9629    8.7471 H   0  0  0  0  0  0  0  0  0  0  0  0
    2.5562    0.8158    8.2551 H   0  0  0  0  0  0  0  0  0  0  0  0
    2.9414    1.5837    9.7655 H   0  0  0  0  0  0  0  0  0  0  0  0
    0.7310    2.5220    8.3396 H   0  0  0  0  0  0  0  0  0  0  0  0
    1.7039    3.5609    9.2641 H   0  0  0  0  0  0  0  0  0  0  0  0
    2.5603    4.6376    7.5026 H   0  0  0  0  0  0  0  0  0  0  0  0
  1  2  1  0
  1 34  1  0
  1 35  1  0
  1 36  1  0
  2 21  1  0
  2  3  2  3
  3  4  1  0
  3 37  1  0
  4 15  1  0
  4  5  1  0
  4 38  1  6
  5  6  1  0
  6 17  1  0
  6  7  1  0
  6 39  1  1
  7  8  1  0
  8 33  1  0
  8  9  1  1
  8 10  1  0
  9 40  1  0
  9 41  1  0
  9 42  1  0
 10 11  1  0
 10 12  1  0
 10 43  1  6
 11 44  1  0
 11 45  1  0
 11 46  1  0
 12 13  2  3
 12 20  1  0
 13 14  1  0
 13 47  1  0
 14 15  1  0
 14 48  1  0
 14 49  1  0
 15 16  1  6
 15 17  1  0
 16 50  1  0
 17 18  1  0
 17 19  1  6
 18 51  1  0
 18 52  1  0
 18 53  1  0
 19 54  1  0
 20 21  1  0
 20 22  1  0
 20 55  1  6
 21 56  1  0
 21 57  1  0
 22 29  1  0
 22 33  1  0
 22 23  1  6
 23 24  1  0
 23 58  1  0
 23 59  1  0
 24 28  1  0
 24 25  1  0
 24 60  1  1
 25 26  1  0
 26 27  2  0
 26 28  1  0
 28 29  1  0
 28 61  1  1
 29 30  1  1
 29 31  1  0
 30 62  1  0
 30 63  1  0
 30 64  1  0
 31 32  1  0
 31 65  1  0
 31 66  1  0
 32 33  1  0
 32 67  1  0
 32 68  1  0
 33 69  1  1
M  END
>  <i_m_ct_stereo_status>  (18) 
1

>  <s_m_source_file>  (18) 
/var/tmp/pbs.5076255.sched01/tmpr7id634h/0ay6m0hv_.sdf

>  <i_m_source_file_index>  (18) 
7

>  <i_lp_mmshare_version>  (18) 
48012

>  <i_f3d_flags>  (18) 
0

>  <s_epik_input>  (18) 
W0NAQF0xMjNbQ0hdNENcNT1bQ0hdXFtDSDJdW0NAQF02KFtPSF0pW0NAQEhdKFxbQ0hdPUMoXFtDSDNdKVtDSDJdNClPW0NASF0oW0NAQF02KFtDSDNdKVtPSF0pT1tDQF0oW0NIM10pKFtDQEhdNVtDSDNdKVtDQEhdM1tDSDJdW0NIMl1bQ0BAXTIoW0NIM10pW0NAQEhdN1tDQEhdKFtDSDJdMSlPQzc9Tw==

>  <s_epik_cmdline>  (18) 
J2VwaWtfcHl0aG9uJywgJy1waHQnLCAnMi4wJywgJy1waCcsICc3LjAnLCAnLXRuJywgJzgnLCAnLW1hJywgJzIwMCcsICctaW1hZScsICc8aW5maWxlLm1hZT4nLCAnLW9tYWUnLCAnPG91dGZpbGUubWFlPic=

>  <r_lp_tautomer_probability>  (18) 
1

>  <r_epik_Ionization_Penalty>  (18) 
3.25078e-07

>  <r_epik_Ionization_Penalty_Charging>  (18) 
0

>  <r_epik_Ionization_Penalty_Neutral>  (18) 
3.25078e-07

>  <r_epik_State_Penalty>  (18) 
-0

>  <r_epik_Charging_Adjusted_Penalty>  (18) 
0

>  <i_epik_Tot_Q>  (18) 
0

>  <i_epik_Tot_abs_Q>  (18) 
0

>  <s_epik_Chemistry_Notes>  (18) 
This compound has an ester and may undergo hydrolysis at high or low pH. This compound contains an acetal/aminal-like group ( X-CH(R)-Y where X, Y are N, S, or O) that may be acid/base labile, releasing an aldehyde.

>  <s_lp_Force_Field>  (18) 
OPLS3e

>  <r_lp_Energy>  (18) 
201.345

>  <b_lp_Chiralities_Consistent>  (18) 
1

>  <s_lp_Variant>  (18) 
3:0-1

>  <s_i_glide_gridfile>  (18) 
pfpi4k_grid

>  <i_i_glide_lignum>  (18) 
7

>  <i_i_glide_rotatable_bonds>  (18) 
2

>  <r_i_docking_score>  (18) 
-2.61491

>  <r_i_glide_ligand_efficiency>  (18) 
-0.0792397

>  <r_i_glide_ligand_efficiency_sa>  (18) 
-0.254164

>  <r_i_glide_ligand_efficiency_ln>  (18) 
-0.581542

>  <r_i_glide_gscore>  (18) 
-2.61491

>  <r_i_glide_lipo>  (18) 
-0.0318051

>  <r_i_glide_hbond>  (18) 
0

>  <r_i_glide_metal>  (18) 
-0

>  <r_i_glide_rewards>  (18) 
-0.321072

>  <r_i_glide_evdw>  (18) 
-22.4608

>  <r_i_glide_ecoul>  (18) 
-7.57845

>  <r_i_glide_erotb>  (18) 
0

>  <r_i_glide_esite>  (18) 
-0.00222179

>  <r_i_glide_emodel>  (18) 
-36.1967

>  <r_i_glide_energy>  (18) 
-30.0393

>  <r_i_glide_einternal>  (18) 
0.77461

>  <r_i_glide_intrahb_reward>  (18) 
-0

>  <i_i_glide_confnum>  (18) 
1

>  <i_i_glide_posenum>  (18) 
10

>  <r_i_glide_eff_state_penalty>  (18) 
0

>  <ligand_id>  (18) 
3

>  <original_smiles>  (18) 
CC1=CC2OC3OC4(C)C(C)C(=CCC2(O)C3(C)O)C(C1)C12CC3OC(=O)C3C1(C)CCC42

>  <smiles>  (18) 
[H]OC1(C([H])([H])[H])C2([H])OC3([H])C([H])=C(C([H])([H])[H])C([H])([H])C4([H])C(=C([H])C([H])([H])C31O[H])C([H])(C([H])([H])[H])C(C([H])([H])[H])(O2)C1([H])C([H])([H])C([H])([H])C2(C([H])([H])[H])C3([H])C(=O)OC3([H])C([H])([H])C412

$$$$
4:0:0
     RDKit          3D

 38 39  0  0  1  0  0  0  0  0999 V2000
    3.4506    0.1866   -3.6613 C   0  0  0  0  0  0  0  0  0  0  0  0
    3.7261   -1.0371   -4.3285 O   0  0  0  0  0  0  0  0  0  0  0  0
    3.7981   -2.2294   -3.6822 C   0  0  0  0  0  0  0  0  0  0  0  0
    3.9238   -3.2924   -4.2988 O   0  0  0  0  0  0  0  0  0  0  0  0
    3.7552   -2.1152   -2.1360 C   0  0  2  0  0  0  0  0  0  0  0  0
    5.0990   -1.6099   -1.5439 C   0  0  0  0  0  0  0  0  0  0  0  0
    5.6292   -2.8051   -0.7674 C   0  0  1  0  0  0  0  0  0  0  0  0
    6.5409   -2.5761    0.4469 C   0  0  0  0  0  0  0  0  0  0  0  0
    6.8617   -3.9185    0.9630 N   0  0  0  0  0  0  0  0  0  0  0  0
    8.0467   -4.5208    0.7197 C   0  0  0  0  0  0  0  0  0  0  0  0
    8.2745   -5.9509    1.2084 C   0  0  0  0  0  0  0  0  0  0  0  0
    8.9610   -3.9731    0.1024 O   0  0  0  0  0  0  0  0  0  0  0  0
    5.6593   -4.6014    1.4796 C   0  0  0  0  0  0  0  0  0  0  0  0
    4.6709   -4.8518    0.3094 C   0  0  0  0  0  0  0  0  0  0  0  0
    4.3442   -3.4927   -0.3353 C   0  0  2  0  0  0  0  0  0  0  0  0
    3.5163   -3.4582   -1.5522 N   0  0  1  0  0  0  0  0  0  0  0  0
    2.0840   -3.7677   -1.3434 C   0  0  0  0  0  0  0  0  0  0  0  0
    3.4030    1.0105   -4.3720 H   0  0  0  0  0  0  0  0  0  0  0  0
    4.2212    0.4437   -2.9351 H   0  0  0  0  0  0  0  0  0  0  0  0
    2.4898    0.1418   -3.1496 H   0  0  0  0  0  0  0  0  0  0  0  0
    2.9502   -1.4571   -1.8035 H   0  0  0  0  0  0  0  0  0  0  0  0
    5.8114   -1.3033   -2.3125 H   0  0  0  0  0  0  0  0  0  0  0  0
    4.9231   -0.7500   -0.8952 H   0  0  0  0  0  0  0  0  0  0  0  0
    6.1597   -3.4518   -1.4742 H   0  0  0  0  0  0  0  0  0  0  0  0
    7.4329   -2.0159    0.1654 H   0  0  0  0  0  0  0  0  0  0  0  0
    6.0309   -1.9920    1.2187 H   0  0  0  0  0  0  0  0  0  0  0  0
    8.0972   -6.0352    2.2795 H   0  0  0  0  0  0  0  0  0  0  0  0
    9.3023   -6.2531    1.0196 H   0  0  0  0  0  0  0  0  0  0  0  0
    7.6212   -6.6423    0.6794 H   0  0  0  0  0  0  0  0  0  0  0  0
    5.8766   -5.5437    1.9822 H   0  0  0  0  0  0  0  0  0  0  0  0
    5.1884   -3.9728    2.2428 H   0  0  0  0  0  0  0  0  0  0  0  0
    5.1279   -5.5329   -0.4143 H   0  0  0  0  0  0  0  0  0  0  0  0
    3.7716   -5.3422    0.6864 H   0  0  0  0  0  0  0  0  0  0  0  0
    3.8501   -2.8738    0.4172 H   0  0  0  0  0  0  0  0  0  0  0  0
    1.6324   -3.0509   -0.6668 H   0  0  0  0  0  0  0  0  0  0  0  0
    1.9612   -4.7674   -0.9259 H   0  0  0  0  0  0  0  0  0  0  0  0
    1.5499   -3.7393   -2.2956 H   0  0  0  0  0  0  0  0  0  0  0  0
    3.8823   -4.1380   -2.2123 H   0  0  0  0  0  0  0  0  0  0  0  0
  1  2  1  0
  1 18  1  0
  1 19  1  0
  1 20  1  0
  2  3  1  0
  3  4  2  0
  3  5  1  0
  5 16  1  0
  5  6  1  0
  5 21  1  6
  6  7  1  0
  6 22  1  0
  6 23  1  0
  7 15  1  0
  7  8  1  0
  7 24  1  6
  8  9  1  0
  8 25  1  0
  8 26  1  0
  9 10  1  0
  9 13  1  0
 10 11  1  0
 10 12  2  0
 11 27  1  0
 11 28  1  0
 11 29  1  0
 13 14  1  0
 13 30  1  0
 13 31  1  0
 14 15  1  0
 14 32  1  0
 14 33  1  0
 15 16  1  0
 15 34  1  1
 16 17  1  0
 16 38  1  6
 17 35  1  0
 17 36  1  0
 17 37  1  0
M  CHG  1  16   1
M  END
>  <i_m_ct_stereo_status>  (19) 
1

>  <s_m_source_file>  (19) 
/var/tmp/pbs.5076255.sched01/tmpr7id634h/0ay6m0hv_.sdf

>  <i_m_source_file_index>  (19) 
8

>  <i_lp_mmshare_version>  (19) 
48012

>  <i_f3d_flags>  (19) 
0

>  <s_epik_input>  (19) 
W0NIM11PQyg9TylbQ0BIXShbQ0gyXTEpTihbQ0gzXSlbQ0BIXShbQ0BASF0xMilbQ0gyXVtDSDJdTihbQ0gyXTIpQyg9TylbQ0gzXQ==

>  <s_epik_cmdline>  (19) 
J2VwaWtfcHl0aG9uJywgJy1waHQnLCAnMi4wJywgJy1waCcsICc3LjAnLCAnLXRuJywgJzgnLCAnLW1hJywgJzIwMCcsICctaW1hZScsICc8aW5maWxlLm1hZT4nLCAnLW9tYWUnLCAnPG91dGZpbGUubWFlPic=

>  <r_epik_Ionization_Penalty>  (19) 
0.136669

>  <r_epik_Ionization_Penalty_Charging>  (19) 
0.136669

>  <r_epik_Ionization_Penalty_Neutral>  (19) 
1.17548e-07

>  <r_epik_State_Penalty>  (19) 
0.126012

>  <r_epik_Charging_Adjusted_Penalty>  (19) 
0.262681

>  <i_epik_Tot_Q>  (19) 
1

>  <i_epik_Tot_abs_Q>  (19) 
1

>  <s_epik_Chemistry_Notes>  (19) 
This compound has an ester and may undergo hydrolysis at high or low pH.

>  <s_lp_Force_Field>  (19) 
OPLS3e

>  <r_lp_Energy>  (19) 
23.8115

>  <b_lp_Chiralities_Consistent>  (19) 
1

>  <s_lp_Variant>  (19) 
4:0-1

>  <s_i_glide_gridfile>  (19) 
pfpi4k_grid

>  <i_i_glide_lignum>  (19) 
8

>  <i_i_glide_rotatable_bonds>  (19) 
3

>  <r_i_docking_score>  (19) 
-5.09983

>  <r_i_glide_ligand_efficiency>  (19) 
-0.29999

>  <r_i_glide_ligand_efficiency_sa>  (19) 
-0.771358

>  <r_i_glide_ligand_efficiency_ln>  (19) 
-1.33043

>  <r_i_glide_gscore>  (19) 
-5.09983

>  <r_i_glide_lipo>  (19) 
-0.227594

>  <r_i_glide_hbond>  (19) 
-0.364982

>  <r_i_glide_metal>  (19) 
-0

>  <r_i_glide_rewards>  (19) 
-2.38051

>  <r_i_glide_evdw>  (19) 
-24.1911

>  <r_i_glide_ecoul>  (19) 
-8.09775

>  <r_i_glide_erotb>  (19) 
0.297476

>  <r_i_glide_esite>  (19) 
0

>  <r_i_glide_emodel>  (19) 
-40.5549

>  <r_i_glide_energy>  (19) 
-32.2888

>  <r_i_glide_einternal>  (19) 
5.30247

>  <r_i_glide_intrahb_reward>  (19) 
-0

>  <i_i_glide_confnum>  (19) 
5

>  <i_i_glide_posenum>  (19) 
15

>  <r_i_glide_eff_state_penalty>  (19) 
0

>  <ligand_id>  (19) 
4

>  <original_smiles>  (19) 
COC(=O)C1CC2CN(C(C)=O)CCC2N1C

>  <smiles>  (19) 
[H]C([H])([H])OC(=O)C1([H])C([H])([H])C2([H])C([H])([H])N(C(=O)C([H])([H])[H])C([H])([H])C([H])([H])C2([H])[N+]1([H])C([H])([H])[H]

$$$$
4:0:1
     RDKit          3D

 38 39  0  0  1  0  0  0  0  0999 V2000
    3.2081    0.3855   -5.1116 C   0  0  0  0  0  0  0  0  0  0  0  0
    3.2008   -0.1153   -3.7804 O   0  0  0  0  0  0  0  0  0  0  0  0
    3.6825   -1.3426   -3.4982 C   0  0  0  0  0  0  0  0  0  0  0  0
    4.2126   -2.1024   -4.3106 O   0  0  0  0  0  0  0  0  0  0  0  0
    3.5131   -1.6123   -1.9870 C   0  0  2  0  0  0  0  0  0  0  0  0
    4.7383   -1.2045   -1.1387 C   0  0  0  0  0  0  0  0  0  0  0  0
    5.3058   -2.5431   -0.6566 C   0  0  1  0  0  0  0  0  0  0  0  0
    6.1007   -2.6224    0.6559 C   0  0  0  0  0  0  0  0  0  0  0  0
    6.5077   -4.0305    0.8096 N   0  0  0  0  0  0  0  0  0  0  0  0
    7.7504   -4.4655    0.5404 C   0  0  0  0  0  0  0  0  0  0  0  0
    8.1146   -5.9345    0.7764 C   0  0  0  0  0  0  0  0  0  0  0  0
    8.6356   -3.7282    0.0815 O   0  0  0  0  0  0  0  0  0  0  0  0
    5.3258   -4.8936    1.0072 C   0  0  0  0  0  0  0  0  0  0  0  0
    4.4453   -4.8603   -0.2724 C   0  0  0  0  0  0  0  0  0  0  0  0
    4.0615   -3.3965   -0.5551 C   0  0  2  0  0  0  0  0  0  0  0  0
    3.3306   -3.0756   -1.7896 N   0  0  1  0  0  0  0  0  0  0  0  0
    1.9219   -3.5060   -1.7968 C   0  0  0  0  0  0  0  0  0  0  0  0
    2.7500    1.3746   -5.1783 H   0  0  0  0  0  0  0  0  0  0  0  0
    2.6581   -0.2596   -5.7911 H   0  0  0  0  0  0  0  0  0  0  0  0
    4.2217    0.4831   -5.4846 H   0  0  0  0  0  0  0  0  0  0  0  0
    2.6487   -1.0762   -1.6018 H   0  0  0  0  0  0  0  0  0  0  0  0
    5.4767   -0.6430   -1.7133 H   0  0  0  0  0  0  0  0  0  0  0  0
    4.4296   -0.5838   -0.2908 H   0  0  0  0  0  0  0  0  0  0  0  0
    5.9369   -2.9400   -1.4564 H   0  0  0  0  0  0  0  0  0  0  0  0
    6.9609   -1.9589    0.6143 H   0  0  0  0  0  0  0  0  0  0  0  0
    5.4924   -2.3138    1.5126 H   0  0  0  0  0  0  0  0  0  0  0  0
    7.9038   -6.2256    1.8008 H   0  0  0  0  0  0  0  0  0  0  0  0
    9.1711   -6.1102    0.5853 H   0  0  0  0  0  0  0  0  0  0  0  0
    7.5621   -6.5800    0.1009 H   0  0  0  0  0  0  0  0  0  0  0  0
    5.5851   -5.9249    1.2290 H   0  0  0  0  0  0  0  0  0  0  0  0
    4.7472   -4.5457    1.8758 H   0  0  0  0  0  0  0  0  0  0  0  0
    5.0063   -5.2971   -1.1078 H   0  0  0  0  0  0  0  0  0  0  0  0
    3.5663   -5.4954   -0.1124 H   0  0  0  0  0  0  0  0  0  0  0  0
    3.4629   -3.0501    0.2889 H   0  0  0  0  0  0  0  0  0  0  0  0
    1.3750   -3.0514   -0.9929 H   0  0  0  0  0  0  0  0  0  0  0  0
    1.8177   -4.5699   -1.6410 H   0  0  0  0  0  0  0  0  0  0  0  0
    1.4489   -3.2529   -2.7357 H   0  0  0  0  0  0  0  0  0  0  0  0
    3.8072   -3.5286   -2.5578 H   0  0  0  0  0  0  0  0  0  0  0  0
  1  2  1  0
  1 18  1  0
  1 19  1  0
  1 20  1  0
  2  3  1  0
  3  4  2  0
  3  5  1  0
  5 16  1  0
  5  6  1  0
  5 21  1  1
  6  7  1  0
  6 22  1  0
  6 23  1  0
  7 15  1  0
  7  8  1  0
  7 24  1  6
  8  9  1  0
  8 25  1  0
  8 26  1  0
  9 10  1  0
  9 13  1  0
 10 11  1  0
 10 12  2  0
 11 27  1  0
 11 28  1  0
 11 29  1  0
 13 14  1  0
 13 30  1  0
 13 31  1  0
 14 15  1  0
 14 32  1  0
 14 33  1  0
 15 16  1  0
 15 34  1  1
 16 17  1  0
 16 38  1  6
 17 35  1  0
 17 36  1  0
 17 37  1  0
M  CHG  1  16   1
M  END
>  <i_m_ct_stereo_status>  (20) 
1

>  <s_m_source_file>  (20) 
/var/tmp/pbs.5076255.sched01/tmpr7id634h/0ay6m0hv_.sdf

>  <i_m_source_file_index>  (20) 
8

>  <i_lp_mmshare_version>  (20) 
48012

>  <i_f3d_flags>  (20) 
0

>  <s_epik_input>  (20) 
W0NIM11PQyg9TylbQ0BIXShbQ0gyXTEpTihbQ0gzXSlbQ0BIXShbQ0BASF0xMilbQ0gyXVtDSDJdTihbQ0gyXTIpQyg9TylbQ0gzXQ==

>  <s_epik_cmdline>  (20) 
J2VwaWtfcHl0aG9uJywgJy1waHQnLCAnMi4wJywgJy1waCcsICc3LjAnLCAnLXRuJywgJzgnLCAnLW1hJywgJzIwMCcsICctaW1hZScsICc8aW5maWxlLm1hZT4nLCAnLW9tYWUnLCAnPG91dGZpbGUubWFlPic=

>  <r_epik_Ionization_Penalty>  (20) 
0.136669

>  <r_epik_Ionization_Penalty_Charging>  (20) 
0.136669

>  <r_epik_Ionization_Penalty_Neutral>  (20) 
1.17548e-07

>  <r_epik_State_Penalty>  (20) 
0.126012

>  <r_epik_Charging_Adjusted_Penalty>  (20) 
0.262681

>  <i_epik_Tot_Q>  (20) 
1

>  <i_epik_Tot_abs_Q>  (20) 
1

>  <s_epik_Chemistry_Notes>  (20) 
This compound has an ester and may undergo hydrolysis at high or low pH.

>  <s_lp_Force_Field>  (20) 
OPLS3e

>  <r_lp_Energy>  (20) 
23.8115

>  <b_lp_Chiralities_Consistent>  (20) 
1

>  <s_lp_Variant>  (20) 
4:0-1

>  <s_i_glide_gridfile>  (20) 
pfpi4k_grid

>  <i_i_glide_lignum>  (20) 
8

>  <i_i_glide_rotatable_bonds>  (20) 
3

>  <r_i_docking_score>  (20) 
-4.98506

>  <r_i_glide_ligand_efficiency>  (20) 
-0.293239

>  <r_i_glide_ligand_efficiency_sa>  (20) 
-0.753999

>  <r_i_glide_ligand_efficiency_ln>  (20) 
-1.30049

>  <r_i_glide_gscore>  (20) 
-4.98506

>  <r_i_glide_lipo>  (20) 
-0.372304

>  <r_i_glide_hbond>  (20) 
-0.32

>  <r_i_glide_metal>  (20) 
-0

>  <r_i_glide_rewards>  (20) 
-2.37477

>  <r_i_glide_evdw>  (20) 
-23.7554

>  <r_i_glide_ecoul>  (20) 
-6.82417

>  <r_i_glide_erotb>  (20) 
0.297476

>  <r_i_glide_esite>  (20) 
-0.00405876

>  <r_i_glide_emodel>  (20) 
-40.5648

>  <r_i_glide_energy>  (20) 
-30.5796

>  <r_i_glide_einternal>  (20) 
1.27355

>  <r_i_glide_intrahb_reward>  (20) 
-0

>  <i_i_glide_confnum>  (20) 
5

>  <i_i_glide_posenum>  (20) 
1

>  <r_i_glide_eff_state_penalty>  (20) 
0

>  <ligand_id>  (20) 
4

>  <original_smiles>  (20) 
COC(=O)C1CC2CN(C(C)=O)CCC2N1C

>  <smiles>  (20) 
[H]C([H])([H])OC(=O)C1([H])C([H])([H])C2([H])C([H])([H])N(C(=O)C([H])([H])[H])C([H])([H])C([H])([H])C2([H])[N+]1([H])C([H])([H])[H]

$$$$
4:0:2
     RDKit          3D

 38 39  0  0  1  0  0  0  0  0999 V2000
    1.5946   -0.0668    2.6561 C   0  0  0  0  0  0  0  0  0  0  0  0
    2.2830   -0.8276    1.6758 O   0  0  0  0  0  0  0  0  0  0  0  0
    2.8899   -1.9666    2.0396 C   0  0  0  0  0  0  0  0  0  0  0  0
    2.8610   -2.4448    3.1694 O   0  0  0  0  0  0  0  0  0  0  0  0
    3.6433   -2.6310    0.8633 C   0  0  2  0  0  0  0  0  0  0  0  0
    4.6722   -1.7112    0.1651 C   0  0  0  0  0  0  0  0  0  0  0  0
    4.1076   -1.5890   -1.2448 C   0  0  1  0  0  0  0  0  0  0  0  0
    5.0355   -1.3211   -2.4217 C   0  0  0  0  0  0  0  0  0  0  0  0
    4.1790   -1.2629   -3.6138 N   0  0  0  0  0  0  0  0  0  0  0  0
    3.7992   -0.0948   -4.1732 C   0  0  0  0  0  0  0  0  0  0  0  0
    2.9156   -0.0405   -5.3962 C   0  0  0  0  0  0  0  0  0  0  0  0
    4.2087    0.9777   -3.7683 O   0  0  0  0  0  0  0  0  0  0  0  0
    3.5757   -2.5664   -3.9096 C   0  0  0  0  0  0  0  0  0  0  0  0
    2.6090   -2.9144   -2.7636 C   0  0  0  0  0  0  0  0  0  0  0  0
    3.4172   -2.9243   -1.4526 C   0  0  2  0  0  0  0  0  0  0  0  0
    2.6905   -3.1075   -0.1850 N   0  0  1  0  0  0  0  0  0  0  0  0
    2.2429   -4.5145    0.0184 C   0  0  0  0  0  0  0  0  0  0  0  0
    1.1786    0.8348    2.2133 H   0  0  0  0  0  0  0  0  0  0  0  0
    2.2457    0.2392    3.4758 H   0  0  0  0  0  0  0  0  0  0  0  0
    0.7728   -0.6404    3.0782 H   0  0  0  0  0  0  0  0  0  0  0  0
    4.1904   -3.4913    1.2458 H   0  0  0  0  0  0  0  0  0  0  0  0
    4.7691   -0.7341    0.6404 H   0  0  0  0  0  0  0  0  0  0  0  0
    5.6541   -2.1898    0.1626 H   0  0  0  0  0  0  0  0  0  0  0  0
    3.3513   -0.8037   -1.2234 H   0  0  0  0  0  0  0  0  0  0  0  0
    5.5741   -0.3920   -2.2498 H   0  0  0  0  0  0  0  0  0  0  0  0
    5.7765   -2.1098   -2.5343 H   0  0  0  0  0  0  0  0  0  0  0  0
    3.3703   -0.6441   -6.1869 H   0  0  0  0  0  0  0  0  0  0  0  0
    2.8126    0.9823   -5.7668 H   0  0  0  0  0  0  0  0  0  0  0  0
    1.9192   -0.4013   -5.1268 H   0  0  0  0  0  0  0  0  0  0  0  0
    3.0313   -2.5594   -4.8398 H   0  0  0  0  0  0  0  0  0  0  0  0
    4.3722   -3.3049   -4.0213 H   0  0  0  0  0  0  0  0  0  0  0  0
    1.8122   -2.1751   -2.7184 H   0  0  0  0  0  0  0  0  0  0  0  0
    2.1507   -3.8760   -2.9803 H   0  0  0  0  0  0  0  0  0  0  0  0
    4.1722   -3.7087   -1.5336 H   0  0  0  0  0  0  0  0  0  0  0  0
    3.0685   -5.2330   -0.0052 H   0  0  0  0  0  0  0  0  0  0  0  0
    1.5295   -4.8107   -0.7515 H   0  0  0  0  0  0  0  0  0  0  0  0
    1.7841   -4.6357    0.9967 H   0  0  0  0  0  0  0  0  0  0  0  0
    1.9192   -2.4438   -0.2163 H   0  0  0  0  0  0  0  0  0  0  0  0
  1  2  1  0
  1 18  1  0
  1 19  1  0
  1 20  1  0
  2  3  1  0
  3  4  2  0
  3  5  1  0
  5 16  1  0
  5  6  1  0
  5 21  1  1
  6  7  1  0
  6 22  1  0
  6 23  1  0
  7 15  1  0
  7  8  1  0
  7 24  1  1
  8  9  1  0
  8 25  1  0
  8 26  1  0
  9 10  1  0
  9 13  1  0
 10 11  1  0
 10 12  2  0
 11 27  1  0
 11 28  1  0
 11 29  1  0
 13 14  1  0
 13 30  1  0
 13 31  1  0
 14 15  1  0
 14 32  1  0
 14 33  1  0
 15 16  1  0
 15 34  1  6
 16 17  1  0
 16 38  1  6
 17 35  1  0
 17 36  1  0
 17 37  1  0
M  CHG  1  16   1
M  END
>  <i_m_ct_stereo_status>  (21) 
1

>  <s_m_source_file>  (21) 
/var/tmp/pbs.5076255.sched01/tmpr7id634h/0ay6m0hv_.sdf

>  <i_m_source_file_index>  (21) 
8

>  <i_lp_mmshare_version>  (21) 
48012

>  <i_f3d_flags>  (21) 
0

>  <s_epik_input>  (21) 
W0NIM11PQyg9TylbQ0BIXShbQ0gyXTEpTihbQ0gzXSlbQ0BIXShbQ0BASF0xMilbQ0gyXVtDSDJdTihbQ0gyXTIpQyg9TylbQ0gzXQ==

>  <s_epik_cmdline>  (21) 
J2VwaWtfcHl0aG9uJywgJy1waHQnLCAnMi4wJywgJy1waCcsICc3LjAnLCAnLXRuJywgJzgnLCAnLW1hJywgJzIwMCcsICctaW1hZScsICc8aW5maWxlLm1hZT4nLCAnLW9tYWUnLCAnPG91dGZpbGUubWFlPic=

>  <r_epik_Ionization_Penalty>  (21) 
0.136669

>  <r_epik_Ionization_Penalty_Charging>  (21) 
0.136669

>  <r_epik_Ionization_Penalty_Neutral>  (21) 
1.17548e-07

>  <r_epik_State_Penalty>  (21) 
0.126012

>  <r_epik_Charging_Adjusted_Penalty>  (21) 
0.262681

>  <i_epik_Tot_Q>  (21) 
1

>  <i_epik_Tot_abs_Q>  (21) 
1

>  <s_epik_Chemistry_Notes>  (21) 
This compound has an ester and may undergo hydrolysis at high or low pH.

>  <s_lp_Force_Field>  (21) 
OPLS3e

>  <r_lp_Energy>  (21) 
23.8115

>  <b_lp_Chiralities_Consistent>  (21) 
1

>  <s_lp_Variant>  (21) 
4:0-1

>  <s_i_glide_gridfile>  (21) 
pfpi4k_grid

>  <i_i_glide_lignum>  (21) 
8

>  <i_i_glide_rotatable_bonds>  (21) 
3

>  <r_i_docking_score>  (21) 
-3.89704

>  <r_i_glide_ligand_efficiency>  (21) 
-0.229237

>  <r_i_glide_ligand_efficiency_sa>  (21) 
-0.589434

>  <r_i_glide_ligand_efficiency_ln>  (21) 
-1.01665

>  <r_i_glide_gscore>  (21) 
-3.89704

>  <r_i_glide_lipo>  (21) 
-0.136607

>  <r_i_glide_hbond>  (21) 
-0.2

>  <r_i_glide_metal>  (21) 
-0

>  <r_i_glide_rewards>  (21) 
-2.3586

>  <r_i_glide_evdw>  (21) 
-19.7504

>  <r_i_glide_ecoul>  (21) 
-3.07375

>  <r_i_glide_erotb>  (21) 
0.297476

>  <r_i_glide_esite>  (21) 
-0.0507276

>  <r_i_glide_emodel>  (21) 
-30.9386

>  <r_i_glide_energy>  (21) 
-22.8241

>  <r_i_glide_einternal>  (21) 
0.103391

>  <r_i_glide_intrahb_reward>  (21) 
-0

>  <i_i_glide_confnum>  (21) 
1

>  <i_i_glide_posenum>  (21) 
2

>  <r_i_glide_eff_state_penalty>  (21) 
0

>  <ligand_id>  (21) 
4

>  <original_smiles>  (21) 
COC(=O)C1CC2CN(C(C)=O)CCC2N1C

>  <smiles>  (21) 
[H]C([H])([H])OC(=O)C1([H])C([H])([H])C2([H])C([H])([H])N(C(=O)C([H])([H])[H])C([H])([H])C([H])([H])C2([H])[N+]1([H])C([H])([H])[H]

$$$$
4:1:0
     RDKit          3D

 37 38  0  0  1  0  0  0  0  0999 V2000
    1.7516   -3.6260    4.0596 C   0  0  0  0  0  0  0  0  0  0  0  0
    2.4181   -3.9897    2.8673 O   0  0  0  0  0  0  0  0  0  0  0  0
    3.3028   -3.1452    2.3174 C   0  0  0  0  0  0  0  0  0  0  0  0
    3.6726   -2.0934    2.8422 O   0  0  0  0  0  0  0  0  0  0  0  0
    3.7887   -3.6839    0.9510 C   0  0  2  0  0  0  0  0  0  0  0  0
    4.8852   -2.8041    0.2832 C   0  0  0  0  0  0  0  0  0  0  0  0
    4.2248   -2.4272   -1.0312 C   0  0  1  0  0  0  0  0  0  0  0  0
    5.0866   -2.1087   -2.2637 C   0  0  0  0  0  0  0  0  0  0  0  0
    4.1534   -1.8545   -3.3772 N   0  0  0  0  0  0  0  0  0  0  0  0
    3.7505   -0.5955   -3.7007 C   0  0  0  0  0  0  0  0  0  0  0  0
    2.7646   -0.3659   -4.8340 C   0  0  0  0  0  0  0  0  0  0  0  0
    4.2155    0.3850   -3.1323 O   0  0  0  0  0  0  0  0  0  0  0  0
    3.4106   -3.0598   -3.7449 C   0  0  0  0  0  0  0  0  0  0  0  0
    2.4762   -3.4070   -2.5599 C   0  0  0  0  0  0  0  0  0  0  0  0
    3.3664   -3.6543   -1.3169 C   0  0  2  0  0  0  0  0  0  0  0  0
    2.6970   -3.8566   -0.0444 N   0  0  0  0  0  0  0  0  0  0  0  0
    2.0282   -5.1622    0.0196 C   0  0  0  0  0  0  0  0  0  0  0  0
    1.0332   -4.4003    4.3304 H   0  0  0  0  0  0  0  0  0  0  0  0
    1.2070   -2.6911    3.9233 H   0  0  0  0  0  0  0  0  0  0  0  0
    2.4624   -3.5060    4.8768 H   0  0  0  0  0  0  0  0  0  0  0  0
    4.2453   -4.6550    1.1129 H   0  0  0  0  0  0  0  0  0  0  0  0
    5.1871   -1.9178    0.8449 H   0  0  0  0  0  0  0  0  0  0  0  0
    5.7866   -3.3947    0.1042 H   0  0  0  0  0  0  0  0  0  0  0  0
    3.5790   -1.5666   -0.8444 H   0  0  0  0  0  0  0  0  0  0  0  0
    5.7363   -1.2602   -2.0611 H   0  0  0  0  0  0  0  0  0  0  0  0
    5.7327   -2.9563   -2.5069 H   0  0  0  0  0  0  0  0  0  0  0  0
    3.2486   -0.6107   -5.7783 H   0  0  0  0  0  0  0  0  0  0  0  0
    2.4553    0.6819   -4.8783 H   0  0  0  0  0  0  0  0  0  0  0  0
    1.8592   -0.9571   -4.7202 H   0  0  0  0  0  0  0  0  0  0  0  0
    2.8318   -2.9675   -4.6643 H   0  0  0  0  0  0  0  0  0  0  0  0
    4.1094   -3.8853   -3.9243 H   0  0  0  0  0  0  0  0  0  0  0  0
    1.8030   -2.5687   -2.3685 H   0  0  0  0  0  0  0  0  0  0  0  0
    1.8362   -4.2583   -2.7988 H   0  0  0  0  0  0  0  0  0  0  0  0
    4.0430   -4.4937   -1.5113 H   0  0  0  0  0  0  0  0  0  0  0  0
    1.2249   -5.2078   -0.7191 H   0  0  0  0  0  0  0  0  0  0  0  0
    1.5747   -5.3401    0.9918 H   0  0  0  0  0  0  0  0  0  0  0  0
    2.7185   -5.9824   -0.1726 H   0  0  0  0  0  0  0  0  0  0  0  0
  1  2  1  0
  1 18  1  0
  1 19  1  0
  1 20  1  0
  2  3  1  0
  3  4  2  0
  3  5  1  0
  5 16  1  0
  5  6  1  0
  5 21  1  1
  6  7  1  0
  6 22  1  0
  6 23  1  0
  7 15  1  0
  7  8  1  0
  7 24  1  1
  8  9  1  0
  8 25  1  0
  8 26  1  0
  9 10  1  0
  9 13  1  0
 10 11  1  0
 10 12  2  0
 11 27  1  0
 11 28  1  0
 11 29  1  0
 13 14  1  0
 13 30  1  0
 13 31  1  0
 14 15  1  0
 14 32  1  0
 14 33  1  0
 15 16  1  0
 15 34  1  6
 16 17  1  0
 17 35  1  0
 17 36  1  0
 17 37  1  0
M  END
>  <i_m_ct_stereo_status>  (22) 
1

>  <s_m_source_file>  (22) 
/var/tmp/pbs.5076255.sched01/tmpr7id634h/0ay6m0hv_.sdf

>  <i_m_source_file_index>  (22) 
9

>  <i_lp_mmshare_version>  (22) 
48012

>  <i_f3d_flags>  (22) 
0

>  <s_epik_input>  (22) 
W0NIM11PQyg9TylbQ0BIXShbQ0gyXTEpTihbQ0gzXSlbQ0BIXShbQ0BASF0xMilbQ0gyXVtDSDJdTihbQ0gyXTIpQyg9TylbQ0gzXQ==

>  <s_epik_cmdline>  (22) 
J2VwaWtfcHl0aG9uJywgJy1waHQnLCAnMi4wJywgJy1waCcsICc3LjAnLCAnLXRuJywgJzgnLCAnLW1hJywgJzIwMCcsICctaW1hZScsICc8aW5maWxlLm1hZT4nLCAnLW9tYWUnLCAnPG91dGZpbGUubWFlPic=

>  <r_epik_Ionization_Penalty>  (22) 
0.936063

>  <r_epik_Ionization_Penalty_Charging>  (22) 
0

>  <r_epik_Ionization_Penalty_Neutral>  (22) 
0.936063

>  <r_epik_State_Penalty>  (22) 
0.979027

>  <r_epik_Charging_Adjusted_Penalty>  (22) 
0.979027

>  <i_epik_Tot_Q>  (22) 
0

>  <i_epik_Tot_abs_Q>  (22) 
0

>  <s_epik_Chemistry_Notes>  (22) 
This compound has an ester and may undergo hydrolysis at high or low pH.

>  <s_lp_Force_Field>  (22) 
OPLS3e

>  <r_lp_Energy>  (22) 
20.5301

>  <b_lp_Chiralities_Consistent>  (22) 
1

>  <s_lp_Variant>  (22) 
4:0-2

>  <s_i_glide_gridfile>  (22) 
pfpi4k_grid

>  <i_i_glide_lignum>  (22) 
9

>  <i_i_glide_rotatable_bonds>  (22) 
3

>  <r_i_docking_score>  (22) 
-3.50169

>  <r_i_glide_ligand_efficiency>  (22) 
-0.205982

>  <r_i_glide_ligand_efficiency_sa>  (22) 
-0.529638

>  <r_i_glide_ligand_efficiency_ln>  (22) 
-0.913514

>  <r_i_glide_gscore>  (22) 
-3.50169

>  <r_i_glide_lipo>  (22) 
-0.567088

>  <r_i_glide_hbond>  (22) 
0

>  <r_i_glide_metal>  (22) 
-0

>  <r_i_glide_rewards>  (22) 
-2.32885

>  <r_i_glide_evdw>  (22) 
-20.5451

>  <r_i_glide_ecoul>  (22) 
0.812632

>  <r_i_glide_erotb>  (22) 
0.299608

>  <r_i_glide_esite>  (22) 
-1.02017e-07

>  <r_i_glide_emodel>  (22) 
-22.4534

>  <r_i_glide_energy>  (22) 
-19.7325

>  <r_i_glide_einternal>  (22) 
2.35997

>  <r_i_glide_intrahb_reward>  (22) 
-0

>  <i_i_glide_confnum>  (22) 
3

>  <i_i_glide_posenum>  (22) 
23

>  <r_i_glide_eff_state_penalty>  (22) 
0

>  <ligand_id>  (22) 
4

>  <original_smiles>  (22) 
COC(=O)C1CC2CN(C(C)=O)CCC2N1C

>  <smiles>  (22) 
[H]C([H])([H])OC(=O)C1([H])N(C([H])([H])[H])C2([H])C([H])([H])C([H])([H])N(C(=O)C([H])([H])[H])C([H])([H])C2([H])C1([H])[H]

$$$$
4:1:1
     RDKit          3D

 37 38  0  0  1  0  0  0  0  0999 V2000
    4.7055   -2.6670    4.3989 C   0  0  0  0  0  0  0  0  0  0  0  0
    4.8431   -3.1923    3.0883 O   0  0  0  0  0  0  0  0  0  0  0  0
    3.7584   -3.2211    2.2960 C   0  0  0  0  0  0  0  0  0  0  0  0
    2.6293   -2.8822    2.6470 O   0  0  0  0  0  0  0  0  0  0  0  0
    4.1122   -3.7715    0.8994 C   0  0  2  0  0  0  0  0  0  0  0  0
    5.1553   -2.9037    0.1510 C   0  0  0  0  0  0  0  0  0  0  0  0
    4.3929   -2.5050   -1.1027 C   0  0  1  0  0  0  0  0  0  0  0  0
    5.1491   -2.2139   -2.4072 C   0  0  0  0  0  0  0  0  0  0  0  0
    4.1324   -1.9197   -3.4346 N   0  0  0  0  0  0  0  0  0  0  0  0
    3.7589   -0.6555   -3.7186 C   0  0  0  0  0  0  0  0  0  0  0  0
    2.7529   -0.3658   -4.8325 C   0  0  0  0  0  0  0  0  0  0  0  0
    4.2189    0.3073   -3.1246 O   0  0  0  0  0  0  0  0  0  0  0  0
    3.3134   -3.1083   -3.7421 C   0  0  0  0  0  0  0  0  0  0  0  0
    2.4918   -3.4232   -2.4736 C   0  0  0  0  0  0  0  0  0  0  0  0
    3.4830   -3.7069   -1.3213 C   0  0  2  0  0  0  0  0  0  0  0  0
    2.9355   -3.8946    0.0095 N   0  0  0  0  0  0  0  0  0  0  0  0
    2.2213   -5.1624    0.1618 C   0  0  0  0  0  0  0  0  0  0  0  0
    5.6619   -2.6983    4.9205 H   0  0  0  0  0  0  0  0  0  0  0  0
    3.9782   -3.2404    4.9727 H   0  0  0  0  0  0  0  0  0  0  0  0
    4.3691   -1.6312    4.3575 H   0  0  0  0  0  0  0  0  0  0  0  0
    4.5504   -4.7594    1.0094 H   0  0  0  0  0  0  0  0  0  0  0  0
    5.5053   -2.0407    0.7196 H   0  0  0  0  0  0  0  0  0  0  0  0
    6.0290   -3.5083   -0.1041 H   0  0  0  0  0  0  0  0  0  0  0  0
    3.7929   -1.6240   -0.8598 H   0  0  0  0  0  0  0  0  0  0  0  0
    5.8429   -1.3829   -2.2647 H   0  0  0  0  0  0  0  0  0  0  0  0
    5.7456   -3.0772   -2.7067 H   0  0  0  0  0  0  0  0  0  0  0  0
    3.2248   -0.5992   -5.7898 H   0  0  0  0  0  0  0  0  0  0  0  0
    2.4707    0.6876   -4.8563 H   0  0  0  0  0  0  0  0  0  0  0  0
    1.8298   -0.9471   -4.7198 H   0  0  0  0  0  0  0  0  0  0  0  0
    2.6540   -2.9800   -4.6017 H   0  0  0  0  0  0  0  0  0  0  0  0
    3.9743   -3.9497   -3.9763 H   0  0  0  0  0  0  0  0  0  0  0  0
    1.8572   -2.5702   -2.2309 H   0  0  0  0  0  0  0  0  0  0  0  0
    1.8186   -4.2561   -2.6577 H   0  0  0  0  0  0  0  0  0  0  0  0
    4.1214   -4.5575   -1.5749 H   0  0  0  0  0  0  0  0  0  0  0  0
    1.3458   -5.1831   -0.4874 H   0  0  0  0  0  0  0  0  0  0  0  0
    1.8875   -5.2718    1.1919 H   0  0  0  0  0  0  0  0  0  0  0  0
    2.8527   -6.0131   -0.0867 H   0  0  0  0  0  0  0  0  0  0  0  0
  1  2  1  0
  1 18  1  0
  1 19  1  0
  1 20  1  0
  2  3  1  0
  3  4  2  0
  3  5  1  0
  5 16  1  0
  5  6  1  0
  5 21  1  1
  6  7  1  0
  6 22  1  0
  6 23  1  0
  7 15  1  0
  7  8  1  0
  7 24  1  1
  8  9  1  0
  8 25  1  0
  8 26  1  0
  9 10  1  0
  9 13  1  0
 10 11  1  0
 10 12  2  0
 11 27  1  0
 11 28  1  0
 11 29  1  0
 13 14  1  0
 13 30  1  0
 13 31  1  0
 14 15  1  0
 14 32  1  0
 14 33  1  0
 15 16  1  0
 15 34  1  6
 16 17  1  0
 17 35  1  0
 17 36  1  0
 17 37  1  0
M  END
>  <i_m_ct_stereo_status>  (23) 
1

>  <s_m_source_file>  (23) 
/var/tmp/pbs.5076255.sched01/tmpr7id634h/0ay6m0hv_.sdf

>  <i_m_source_file_index>  (23) 
9

>  <i_lp_mmshare_version>  (23) 
48012

>  <i_f3d_flags>  (23) 
0

>  <s_epik_input>  (23) 
W0NIM11PQyg9TylbQ0BIXShbQ0gyXTEpTihbQ0gzXSlbQ0BIXShbQ0BASF0xMilbQ0gyXVtDSDJdTihbQ0gyXTIpQyg9TylbQ0gzXQ==

>  <s_epik_cmdline>  (23) 
J2VwaWtfcHl0aG9uJywgJy1waHQnLCAnMi4wJywgJy1waCcsICc3LjAnLCAnLXRuJywgJzgnLCAnLW1hJywgJzIwMCcsICctaW1hZScsICc8aW5maWxlLm1hZT4nLCAnLW9tYWUnLCAnPG91dGZpbGUubWFlPic=

>  <r_epik_Ionization_Penalty>  (23) 
0.936063

>  <r_epik_Ionization_Penalty_Charging>  (23) 
0

>  <r_epik_Ionization_Penalty_Neutral>  (23) 
0.936063

>  <r_epik_State_Penalty>  (23) 
0.979027

>  <r_epik_Charging_Adjusted_Penalty>  (23) 
0.979027

>  <i_epik_Tot_Q>  (23) 
0

>  <i_epik_Tot_abs_Q>  (23) 
0

>  <s_epik_Chemistry_Notes>  (23) 
This compound has an ester and may undergo hydrolysis at high or low pH.

>  <s_lp_Force_Field>  (23) 
OPLS3e

>  <r_lp_Energy>  (23) 
20.5301

>  <b_lp_Chiralities_Consistent>  (23) 
1

>  <s_lp_Variant>  (23) 
4:0-2

>  <s_i_glide_gridfile>  (23) 
pfpi4k_grid

>  <i_i_glide_lignum>  (23) 
9

>  <i_i_glide_rotatable_bonds>  (23) 
3

>  <r_i_docking_score>  (23) 
-3.49531

>  <r_i_glide_ligand_efficiency>  (23) 
-0.205606

>  <r_i_glide_ligand_efficiency_sa>  (23) 
-0.528672

>  <r_i_glide_ligand_efficiency_ln>  (23) 
-0.911849

>  <r_i_glide_gscore>  (23) 
-3.49531

>  <r_i_glide_lipo>  (23) 
-0.630268

>  <r_i_glide_hbond>  (23) 
0

>  <r_i_glide_metal>  (23) 
-0

>  <r_i_glide_rewards>  (23) 
-2.34996

>  <r_i_glide_evdw>  (23) 
-21.1003

>  <r_i_glide_ecoul>  (23) 
1.6022

>  <r_i_glide_erotb>  (23) 
0.299608

>  <r_i_glide_esite>  (23) 
0

>  <r_i_glide_emodel>  (23) 
-22.2509

>  <r_i_glide_energy>  (23) 
-19.4982

>  <r_i_glide_einternal>  (23) 
2.12292

>  <r_i_glide_intrahb_reward>  (23) 
-0

>  <i_i_glide_confnum>  (23) 
3

>  <i_i_glide_posenum>  (23) 
25

>  <r_i_glide_eff_state_penalty>  (23) 
0

>  <ligand_id>  (23) 
4

>  <original_smiles>  (23) 
COC(=O)C1CC2CN(C(C)=O)CCC2N1C

>  <smiles>  (23) 
[H]C([H])([H])OC(=O)C1([H])N(C([H])([H])[H])C2([H])C([H])([H])C([H])([H])N(C(=O)C([H])([H])[H])C([H])([H])C2([H])C1([H])[H]

$$$$
4:1:2
     RDKit          3D

 37 38  0  0  1  0  0  0  0  0999 V2000
    1.8699   -1.3224    3.1525 C   0  0  0  0  0  0  0  0  0  0  0  0
    2.4806   -1.9927    2.0710 O   0  0  0  0  0  0  0  0  0  0  0  0
    3.1343   -3.1433    2.2782 C   0  0  0  0  0  0  0  0  0  0  0  0
    3.2894   -3.7010    3.3632 O   0  0  0  0  0  0  0  0  0  0  0  0
    3.6726   -3.6933    0.9539 C   0  0  2  0  0  0  0  0  0  0  0  0
    4.7734   -2.7949    0.3387 C   0  0  0  0  0  0  0  0  0  0  0  0
    4.1543   -2.4229   -0.9993 C   0  0  1  0  0  0  0  0  0  0  0  0
    5.0524   -2.1097   -2.2080 C   0  0  0  0  0  0  0  0  0  0  0  0
    4.1524   -1.8502   -3.3503 N   0  0  0  0  0  0  0  0  0  0  0  0
    3.7661   -0.6000   -3.6910 C   0  0  0  0  0  0  0  0  0  0  0  0
    2.8042   -0.3581   -4.8399 C   0  0  0  0  0  0  0  0  0  0  0  0
    4.2201    0.3860   -3.1199 O   0  0  0  0  0  0  0  0  0  0  0  0
    3.4161   -3.0629   -3.7368 C   0  0  0  0  0  0  0  0  0  0  0  0
    2.4529   -3.4065   -2.5770 C   0  0  0  0  0  0  0  0  0  0  0  0
    3.3124   -3.6541   -1.3199 C   0  0  2  0  0  0  0  0  0  0  0  0
    2.6092   -3.8580   -0.0688 N   0  0  0  0  0  0  0  0  0  0  0  0
    1.9262   -5.1456    0.0123 C   0  0  0  0  0  0  0  0  0  0  0  0
    1.3897   -0.4202    2.7727 H   0  0  0  0  0  0  0  0  0  0  0  0
    2.6147   -1.0357    3.8976 H   0  0  0  0  0  0  0  0  0  0  0  0
    1.1088   -1.9502    3.6210 H   0  0  0  0  0  0  0  0  0  0  0  0
    4.1253   -4.6695    1.1326 H   0  0  0  0  0  0  0  0  0  0  0  0
    5.0222   -1.9217    0.9381 H   0  0  0  0  0  0  0  0  0  0  0  0
    5.6852   -3.3731    0.1916 H   0  0  0  0  0  0  0  0  0  0  0  0
    3.5019   -1.5602   -0.8402 H   0  0  0  0  0  0  0  0  0  0  0  0
    5.7019   -1.2618   -1.9918 H   0  0  0  0  0  0  0  0  0  0  0  0
    5.7034   -2.9622   -2.4319 H   0  0  0  0  0  0  0  0  0  0  0  0
    3.3043   -0.5910   -5.7806 H   0  0  0  0  0  0  0  0  0  0  0  0
    2.4939    0.6847   -4.8865 H   0  0  0  0  0  0  0  0  0  0  0  0
    1.8993   -0.9499   -4.7202 H   0  0  0  0  0  0  0  0  0  0  0  0
    2.8552   -2.9653   -4.6615 H   0  0  0  0  0  0  0  0  0  0  0  0
    4.1197   -3.8900   -3.8964 H   0  0  0  0  0  0  0  0  0  0  0  0
    1.7704   -2.5674   -2.4090 H   0  0  0  0  0  0  0  0  0  0  0  0
    1.8176   -4.2602   -2.8337 H   0  0  0  0  0  0  0  0  0  0  0  0
    3.9887   -4.4928   -1.5065 H   0  0  0  0  0  0  0  0  0  0  0  0
    1.1295   -5.1943   -0.7296 H   0  0  0  0  0  0  0  0  0  0  0  0
    1.4852   -5.2765    0.9988 H   0  0  0  0  0  0  0  0  0  0  0  0
    2.6054   -5.9779   -0.1609 H   0  0  0  0  0  0  0  0  0  0  0  0
  1  2  1  0
  1 18  1  0
  1 19  1  0
  1 20  1  0
  2  3  1  0
  3  4  2  0
  3  5  1  0
  5 16  1  0
  5  6  1  0
  5 21  1  1
  6  7  1  0
  6 22  1  0
  6 23  1  0
  7 15  1  0
  7  8  1  0
  7 24  1  1
  8  9  1  0
  8 25  1  0
  8 26  1  0
  9 10  1  0
  9 13  1  0
 10 11  1  0
 10 12  2  0
 11 27  1  0
 11 28  1  0
 11 29  1  0
 13 14  1  0
 13 30  1  0
 13 31  1  0
 14 15  1  0
 14 32  1  0
 14 33  1  0
 15 16  1  0
 15 34  1  6
 16 17  1  0
 17 35  1  0
 17 36  1  0
 17 37  1  0
M  END
>  <i_m_ct_stereo_status>  (24) 
1

>  <s_m_source_file>  (24) 
/var/tmp/pbs.5076255.sched01/tmpr7id634h/0ay6m0hv_.sdf

>  <i_m_source_file_index>  (24) 
9

>  <i_lp_mmshare_version>  (24) 
48012

>  <i_f3d_flags>  (24) 
0

>  <s_epik_input>  (24) 
W0NIM11PQyg9TylbQ0BIXShbQ0gyXTEpTihbQ0gzXSlbQ0BIXShbQ0BASF0xMilbQ0gyXVtDSDJdTihbQ0gyXTIpQyg9TylbQ0gzXQ==

>  <s_epik_cmdline>  (24) 
J2VwaWtfcHl0aG9uJywgJy1waHQnLCAnMi4wJywgJy1waCcsICc3LjAnLCAnLXRuJywgJzgnLCAnLW1hJywgJzIwMCcsICctaW1hZScsICc8aW5maWxlLm1hZT4nLCAnLW9tYWUnLCAnPG91dGZpbGUubWFlPic=

>  <r_epik_Ionization_Penalty>  (24) 
0.936063

>  <r_epik_Ionization_Penalty_Charging>  (24) 
0

>  <r_epik_Ionization_Penalty_Neutral>  (24) 
0.936063

>  <r_epik_State_Penalty>  (24) 
0.979027

>  <r_epik_Charging_Adjusted_Penalty>  (24) 
0.979027

>  <i_epik_Tot_Q>  (24) 
0

>  <i_epik_Tot_abs_Q>  (24) 
0

>  <s_epik_Chemistry_Notes>  (24) 
This compound has an ester and may undergo hydrolysis at high or low pH.

>  <s_lp_Force_Field>  (24) 
OPLS3e

>  <r_lp_Energy>  (24) 
20.5301

>  <b_lp_Chiralities_Consistent>  (24) 
1

>  <s_lp_Variant>  (24) 
4:0-2

>  <s_i_glide_gridfile>  (24) 
pfpi4k_grid

>  <i_i_glide_lignum>  (24) 
9

>  <i_i_glide_rotatable_bonds>  (24) 
3

>  <r_i_docking_score>  (24) 
-3.47437

>  <r_i_glide_ligand_efficiency>  (24) 
-0.204375

>  <r_i_glide_ligand_efficiency_sa>  (24) 
-0.525505

>  <r_i_glide_ligand_efficiency_ln>  (24) 
-0.906387

>  <r_i_glide_gscore>  (24) 
-3.47437

>  <r_i_glide_lipo>  (24) 
-0.571107

>  <r_i_glide_hbond>  (24) 
0

>  <r_i_glide_metal>  (24) 
-0

>  <r_i_glide_rewards>  (24) 
-2.32095

>  <r_i_glide_evdw>  (24) 
-20.6573

>  <r_i_glide_ecoul>  (24) 
1.00808

>  <r_i_glide_erotb>  (24) 
0.299608

>  <r_i_glide_esite>  (24) 
-0.000267333

>  <r_i_glide_emodel>  (24) 
-22.9133

>  <r_i_glide_energy>  (24) 
-19.6493

>  <r_i_glide_einternal>  (24) 
1.36227

>  <r_i_glide_intrahb_reward>  (24) 
-0

>  <i_i_glide_confnum>  (24) 
2

>  <i_i_glide_posenum>  (24) 
21

>  <r_i_glide_eff_state_penalty>  (24) 
0

>  <ligand_id>  (24) 
4

>  <original_smiles>  (24) 
COC(=O)C1CC2CN(C(C)=O)CCC2N1C

>  <smiles>  (24) 
[H]C([H])([H])OC(=O)C1([H])N(C([H])([H])[H])C2([H])C([H])([H])C([H])([H])N(C(=O)C([H])([H])[H])C([H])([H])C2([H])C1([H])[H]

$$$$
5:0:0
     RDKit          3D

 44 49  0  0  1  0  0  0  0  0999 V2000
    4.4375   -0.5862    2.9190 C   0  0  0  0  0  0  0  0  0  0  0  0
    4.8317   -1.7502    1.9744 C   0  0  2  0  0  0  0  0  0  0  0  0
    6.2202   -1.3231    1.4025 C   0  0  0  0  0  0  0  0  0  0  0  0
    6.8622   -1.8667    0.1006 C   0  0  0  0  0  0  0  0  0  0  0  0
    6.8682   -3.3602   -0.2813 C   0  0  1  0  0  0  0  0  0  0  0  0
    7.9847   -4.0830    0.2172 O   0  0  0  0  0  0  0  0  0  0  0  0
    5.4799   -4.1021   -0.4129 C   0  0  2  0  0  0  0  0  0  0  0  0
    4.7439   -3.4552   -1.6873 C   0  0  2  0  0  0  0  0  0  0  0  0
    5.5834   -2.8489   -2.7033 O   0  0  0  0  0  0  0  0  0  0  0  0
    4.6216   -1.7758   -2.8652 C   0  0  0  0  0  0  0  0  0  0  0  0
    3.8506   -2.2083   -1.6449 C   0  0  2  0  0  0  0  0  0  0  0  0
    3.7778   -1.2734   -0.4427 C   0  0  0  0  0  0  0  0  0  0  0  0
    3.6396   -1.9292    0.9444 C   0  0  1  0  0  0  0  0  0  0  0  0
    2.9745   -3.3218    0.9577 C   0  0  1  0  0  0  0  0  0  0  0  0
    3.5028   -4.2827    0.0784 O   0  0  0  0  0  0  0  0  0  0  0  0
    4.6507   -4.6235    0.9473 C   0  0  1  0  0  0  0  0  0  0  0  0
    5.5758   -4.1688    2.1158 C   0  0  0  0  0  0  0  0  0  0  0  0
    5.0133   -2.9951    2.8972 C   0  0  2  0  0  0  0  0  0  0  0  0
    3.7213   -3.6424    3.2891 C   0  0  0  0  0  0  0  0  0  0  0  0
    3.4252   -4.2860    1.9560 C   0  0  1  0  0  0  0  0  0  0  0  0
    2.1530   -5.8296    2.1520 Br  0  0  0  0  0  0  0  0  0  0  0  0
    5.2134   -0.3915    3.6604 H   0  0  0  0  0  0  0  0  0  0  0  0
    3.5140   -0.7859    3.4607 H   0  0  0  0  0  0  0  0  0  0  0  0
    4.2739    0.3363    2.3582 H   0  0  0  0  0  0  0  0  0  0  0  0
    6.1904   -0.2454    1.2526 H   0  0  0  0  0  0  0  0  0  0  0  0
    6.9578   -1.4459    2.1869 H   0  0  0  0  0  0  0  0  0  0  0  0
    6.4558   -1.3191   -0.7414 H   0  0  0  0  0  0  0  0  0  0  0  0
    7.9038   -1.5370    0.1148 H   0  0  0  0  0  0  0  0  0  0  0  0
    7.2666   -3.3304   -1.2895 H   0  0  0  0  0  0  0  0  0  0  0  0
    7.8422   -4.2514    1.1387 H   0  0  0  0  0  0  0  0  0  0  0  0
    5.8175   -5.0625   -0.8131 H   0  0  0  0  0  0  0  0  0  0  0  0
    4.1500   -4.2198   -2.1869 H   0  0  0  0  0  0  0  0  0  0  0  0
    5.0563   -0.7862   -2.7377 H   0  0  0  0  0  0  0  0  0  0  0  0
    4.0566   -1.8491   -3.7951 H   0  0  0  0  0  0  0  0  0  0  0  0
    2.8574   -2.5202   -1.9664 H   0  0  0  0  0  0  0  0  0  0  0  0
    4.5476   -0.5171   -0.4610 H   0  0  0  0  0  0  0  0  0  0  0  0
    2.8919   -0.6797   -0.5788 H   0  0  0  0  0  0  0  0  0  0  0  0
    2.8475   -1.3214    1.3765 H   0  0  0  0  0  0  0  0  0  0  0  0
    1.8842   -3.2937    0.9235 H   0  0  0  0  0  0  0  0  0  0  0  0
    5.6054   -5.0271    2.7868 H   0  0  0  0  0  0  0  0  0  0  0  0
    6.6271   -4.0760    1.9931 H   0  0  0  0  0  0  0  0  0  0  0  0
    5.6347   -2.7750    3.7646 H   0  0  0  0  0  0  0  0  0  0  0  0
    3.8641   -4.3844    4.0733 H   0  0  0  0  0  0  0  0  0  0  0  0
    2.9520   -2.9437    3.6122 H   0  0  0  0  0  0  0  0  0  0  0  0
  2  1  1  1
  1 22  1  0
  1 23  1  0
  1 24  1  0
  2 13  1  0
  2 18  1  0
  2  3  1  0
  3  4  1  0
  3 25  1  0
  3 26  1  0
  4  5  1  0
  4 27  1  0
  4 28  1  0
  5  6  1  0
  5  7  1  0
  5 29  1  6
  6 30  1  0
  7 16  1  0
  7  8  1  0
  7 31  1  6
  8 11  1  0
  8  9  1  0
  8 32  1  6
  9 10  1  0
 10 11  1  0
 10 33  1  0
 10 34  1  0
 11 12  1  0
 11 35  1  6
 12 13  1  0
 12 36  1  0
 12 37  1  0
 13 14  1  0
 13 38  1  1
 14 20  1  0
 14 15  1  0
 14 39  1  6
 16 15  1  6
 16 20  1  0
 16 17  1  0
 17 18  1  0
 17 40  1  0
 17 41  1  0
 18 19  1  0
 18 42  1  1
 19 20  1  0
 19 43  1  0
 19 44  1  0
 20 21  1  1
M  END
>  <i_m_ct_stereo_status>  (25) 
1

>  <s_m_source_file>  (25) 
/var/tmp/pbs.5076255.sched01/tmpr7id634h/0ay6m0hv_.sdf

>  <i_m_source_file_index>  (25) 
10

>  <i_lp_mmshare_version>  (25) 
48012

>  <i_f3d_flags>  (25) 
0

>  <s_epik_input>  (25) 
TzFbQ0BIXTJbQ0BdMyhCcilbQ0gyXVtDQEBIXShbQ0gyXTQpW0NAQF0oW0NIM10pKFtDSDJdW0NIMl1bQ0BIXTVbT0hdKVtDQEhdMltDSDJdW0NAQEhdKFtDSDJdTzYpW0NAQEhdNltDQEBIXTVbQ0BdMTM0

>  <s_epik_cmdline>  (25) 
J2VwaWtfcHl0aG9uJywgJy1waHQnLCAnMi4wJywgJy1waCcsICc3LjAnLCAnLXRuJywgJzgnLCAnLW1hJywgJzIwMCcsICctaW1hZScsICc8aW5maWxlLm1hZT4nLCAnLW9tYWUnLCAnPG91dGZpbGUubWFlPic=

>  <r_lp_tautomer_probability>  (25) 
1

>  <r_epik_Ionization_Penalty>  (25) 
8.99419e-08

>  <r_epik_Ionization_Penalty_Charging>  (25) 
0

>  <r_epik_Ionization_Penalty_Neutral>  (25) 
8.99419e-08

>  <r_epik_State_Penalty>  (25) 
-0

>  <r_epik_Charging_Adjusted_Penalty>  (25) 
0

>  <i_epik_Tot_Q>  (25) 
0

>  <i_epik_Tot_abs_Q>  (25) 
0

>  <s_lp_Force_Field>  (25) 
OPLS3e

>  <r_lp_Energy>  (25) 
212.21

>  <b_lp_Chiralities_Consistent>  (25) 
1

>  <s_lp_Variant>  (25) 
5:0-1

>  <s_i_glide_gridfile>  (25) 
pfpi4k_grid

>  <i_i_glide_lignum>  (25) 
10

>  <i_i_glide_rotatable_bonds>  (25) 
1

>  <r_i_docking_score>  (25) 
-3.02096

>  <r_i_glide_ligand_efficiency>  (25) 
-0.143855

>  <r_i_glide_ligand_efficiency_sa>  (25) 
-0.396885

>  <r_i_glide_ligand_efficiency_ln>  (25) 
-0.746925

>  <r_i_glide_gscore>  (25) 
-3.02096

>  <r_i_glide_lipo>  (25) 
-0.653204

>  <r_i_glide_hbond>  (25) 
0

>  <r_i_glide_metal>  (25) 
-0

>  <r_i_glide_rewards>  (25) 
-0.986818

>  <r_i_glide_evdw>  (25) 
-24.0127

>  <r_i_glide_ecoul>  (25) 
-1.20201

>  <r_i_glide_erotb>  (25) 
0

>  <r_i_glide_esite>  (25) 
0

>  <r_i_glide_emodel>  (25) 
-29.5798

>  <r_i_glide_energy>  (25) 
-25.2147

>  <r_i_glide_einternal>  (25) 
0.0168894

>  <r_i_glide_intrahb_reward>  (25) 
-0

>  <i_i_glide_confnum>  (25) 
1

>  <i_i_glide_posenum>  (25) 
26

>  <r_i_glide_eff_state_penalty>  (25) 
0

>  <ligand_id>  (25) 
5

>  <original_smiles>  (25) 
CC12CCC(O)C3C4OCC4CC1C1OC34CC2CC14Br

>  <smiles>  (25) 
[H]OC1([H])C([H])([H])C([H])([H])C2(C([H])([H])[H])C3([H])C([H])([H])C4(Br)C5([H])OC4(C3([H])[H])C1([H])C1([H])OC([H])([H])C1([H])C([H])([H])C52[H]

$$$$
5:0:1
     RDKit          3D

 44 49  0  0  1  0  0  0  0  0999 V2000
    4.3791   -0.9595    3.2009 C   0  0  0  0  0  0  0  0  0  0  0  0
    4.7895   -1.9404    2.0743 C   0  0  2  0  0  0  0  0  0  0  0  0
    6.1083   -1.3178    1.4947 C   0  0  0  0  0  0  0  0  0  0  0  0
    6.6867   -1.6100    0.0901 C   0  0  0  0  0  0  0  0  0  0  0  0
    6.7806   -3.0343   -0.5001 C   0  0  1  0  0  0  0  0  0  0  0  0
    7.9834   -3.7220   -0.1841 O   0  0  0  0  0  0  0  0  0  0  0  0
    5.4451   -3.8617   -0.6618 C   0  0  2  0  0  0  0  0  0  0  0  0
    4.5816   -3.1084   -1.7877 C   0  0  2  0  0  0  0  0  0  0  0  0
    5.3104   -2.3089   -2.7402 O   0  0  0  0  0  0  0  0  0  0  0  0
    4.2762   -1.2973   -2.6977 C   0  0  0  0  0  0  0  0  0  0  0  0
    3.6066   -1.9527   -1.5123 C   0  0  2  0  0  0  0  0  0  0  0  0
    3.5392   -1.2145   -0.1750 C   0  0  0  0  0  0  0  0  0  0  0  0
    3.5481   -2.0765    1.1052 C   0  0  1  0  0  0  0  0  0  0  0  0
    2.9966   -3.5073    0.9467 C   0  0  1  0  0  0  0  0  0  0  0  0
    3.5351   -4.2712   -0.0863 O   0  0  0  0  0  0  0  0  0  0  0  0
    4.7498   -4.6399    0.6512 C   0  0  1  0  0  0  0  0  0  0  0  0
    5.7268   -4.2799    1.8137 C   0  0  0  0  0  0  0  0  0  0  0  0
    5.1325   -3.2847    2.7917 C   0  0  2  0  0  0  0  0  0  0  0  0
    3.9196   -4.0879    3.1518 C   0  0  0  0  0  0  0  0  0  0  0  0
    3.5819   -4.5604    1.7677 C   0  0  1  0  0  0  0  0  0  0  0  0
    2.4490   -6.2175    1.8069 Br  0  0  0  0  0  0  0  0  0  0  0  0
    5.1836   -0.8097    3.9206 H   0  0  0  0  0  0  0  0  0  0  0  0
    3.5090   -1.3104    3.7571 H   0  0  0  0  0  0  0  0  0  0  0  0
    4.1118    0.0184    2.7929 H   0  0  0  0  0  0  0  0  0  0  0  0
    5.9983   -0.2342    1.5209 H   0  0  0  0  0  0  0  0  0  0  0  0
    6.9064   -1.4941    2.2038 H   0  0  0  0  0  0  0  0  0  0  0  0
    6.1860   -0.9777   -0.6343 H   0  0  0  0  0  0  0  0  0  0  0  0
    7.6974   -1.1984    0.1007 H   0  0  0  0  0  0  0  0  0  0  0  0
    7.1030   -2.8338   -1.5179 H   0  0  0  0  0  0  0  0  0  0  0  0
    8.7143   -3.1948   -0.4769 H   0  0  0  0  0  0  0  0  0  0  0  0
    5.8113   -4.7097   -1.2299 H   0  0  0  0  0  0  0  0  0  0  0  0
    4.0071   -3.8477   -2.3577 H   0  0  0  0  0  0  0  0  0  0  0  0
    4.6544   -0.3028   -2.4625 H   0  0  0  0  0  0  0  0  0  0  0  0
    3.6532   -1.2743   -3.5893 H   0  0  0  0  0  0  0  0  0  0  0  0
    2.6265   -2.2998   -1.8343 H   0  0  0  0  0  0  0  0  0  0  0  0
    4.2633   -0.4068   -0.1250 H   0  0  0  0  0  0  0  0  0  0  0  0
    2.6269   -0.6470   -0.1462 H   0  0  0  0  0  0  0  0  0  0  0  0
    2.7462   -1.6045    1.6640 H   0  0  0  0  0  0  0  0  0  0  0  0
    1.9194   -3.5746    0.9871 H   0  0  0  0  0  0  0  0  0  0  0  0
    5.8608   -5.2207    2.3439 H   0  0  0  0  0  0  0  0  0  0  0  0
    6.7610   -4.0965    1.6363 H   0  0  0  0  0  0  0  0  0  0  0  0
    5.7733   -3.1384    3.6541 H   0  0  0  0  0  0  0  0  0  0  0  0
    4.1746   -4.9177    3.8145 H   0  0  0  0  0  0  0  0  0  0  0  0
    3.1271   -3.5091    3.6252 H   0  0  0  0  0  0  0  0  0  0  0  0
  2  1  1  1
  1 22  1  0
  1 23  1  0
  1 24  1  0
  2 13  1  0
  2 18  1  0
  2  3  1  0
  3  4  1  0
  3 25  1  0
  3 26  1  0
  4  5  1  0
  4 27  1  0
  4 28  1  0
  5  6  1  0
  5  7  1  0
  5 29  1  6
  6 30  1  0
  7 16  1  0
  7  8  1  0
  7 31  1  6
  8 11  1  0
  8  9  1  0
  8 32  1  6
  9 10  1  0
 10 11  1  0
 10 33  1  0
 10 34  1  0
 11 12  1  0
 11 35  1  6
 12 13  1  0
 12 36  1  0
 12 37  1  0
 13 14  1  0
 13 38  1  1
 14 20  1  0
 14 15  1  0
 14 39  1  6
 16 15  1  6
 16 20  1  0
 16 17  1  0
 17 18  1  0
 17 40  1  0
 17 41  1  0
 18 19  1  0
 18 42  1  1
 19 20  1  0
 19 43  1  0
 19 44  1  0
 20 21  1  1
M  END
>  <i_m_ct_stereo_status>  (26) 
1

>  <s_m_source_file>  (26) 
/var/tmp/pbs.5076255.sched01/tmpr7id634h/0ay6m0hv_.sdf

>  <i_m_source_file_index>  (26) 
10

>  <i_lp_mmshare_version>  (26) 
48012

>  <i_f3d_flags>  (26) 
0

>  <s_epik_input>  (26) 
TzFbQ0BIXTJbQ0BdMyhCcilbQ0gyXVtDQEBIXShbQ0gyXTQpW0NAQF0oW0NIM10pKFtDSDJdW0NIMl1bQ0BIXTVbT0hdKVtDQEhdMltDSDJdW0NAQEhdKFtDSDJdTzYpW0NAQEhdNltDQEBIXTVbQ0BdMTM0

>  <s_epik_cmdline>  (26) 
J2VwaWtfcHl0aG9uJywgJy1waHQnLCAnMi4wJywgJy1waCcsICc3LjAnLCAnLXRuJywgJzgnLCAnLW1hJywgJzIwMCcsICctaW1hZScsICc8aW5maWxlLm1hZT4nLCAnLW9tYWUnLCAnPG91dGZpbGUubWFlPic=

>  <r_lp_tautomer_probability>  (26) 
1

>  <r_epik_Ionization_Penalty>  (26) 
8.99419e-08

>  <r_epik_Ionization_Penalty_Charging>  (26) 
0

>  <r_epik_Ionization_Penalty_Neutral>  (26) 
8.99419e-08

>  <r_epik_State_Penalty>  (26) 
-0

>  <r_epik_Charging_Adjusted_Penalty>  (26) 
0

>  <i_epik_Tot_Q>  (26) 
0

>  <i_epik_Tot_abs_Q>  (26) 
0

>  <s_lp_Force_Field>  (26) 
OPLS3e

>  <r_lp_Energy>  (26) 
212.21

>  <b_lp_Chiralities_Consistent>  (26) 
1

>  <s_lp_Variant>  (26) 
5:0-1

>  <s_i_glide_gridfile>  (26) 
pfpi4k_grid

>  <i_i_glide_lignum>  (26) 
10

>  <i_i_glide_rotatable_bonds>  (26) 
1

>  <r_i_docking_score>  (26) 
-2.89539

>  <r_i_glide_ligand_efficiency>  (26) 
-0.137876

>  <r_i_glide_ligand_efficiency_sa>  (26) 
-0.380389

>  <r_i_glide_ligand_efficiency_ln>  (26) 
-0.71588

>  <r_i_glide_gscore>  (26) 
-2.89539

>  <r_i_glide_lipo>  (26) 
-0.559852

>  <r_i_glide_hbond>  (26) 
0

>  <r_i_glide_metal>  (26) 
-0

>  <r_i_glide_rewards>  (26) 
-0.986818

>  <r_i_glide_evdw>  (26) 
-23.263

>  <r_i_glide_ecoul>  (26) 
-1.23717

>  <r_i_glide_erotb>  (26) 
0

>  <r_i_glide_esite>  (26) 
0

>  <r_i_glide_emodel>  (26) 
-28.4469

>  <r_i_glide_energy>  (26) 
-24.5001

>  <r_i_glide_einternal>  (26) 
0.388439

>  <r_i_glide_intrahb_reward>  (26) 
-0

>  <i_i_glide_confnum>  (26) 
1

>  <i_i_glide_posenum>  (26) 
11

>  <r_i_glide_eff_state_penalty>  (26) 
0

>  <ligand_id>  (26) 
5

>  <original_smiles>  (26) 
CC12CCC(O)C3C4OCC4CC1C1OC34CC2CC14Br

>  <smiles>  (26) 
[H]OC1([H])C([H])([H])C([H])([H])C2(C([H])([H])[H])C3([H])C([H])([H])C4(Br)C5([H])OC4(C3([H])[H])C1([H])C1([H])OC([H])([H])C1([H])C([H])([H])C52[H]

$$$$
5:0:2
     RDKit          3D

 44 49  0  0  1  0  0  0  0  0999 V2000
    7.6924   -2.9070   -0.2522 C   0  0  0  0  0  0  0  0  0  0  0  0
    6.1878   -2.8297    0.1377 C   0  0  2  0  0  0  0  0  0  0  0  0
    6.1966   -2.7560    1.6955 C   0  0  0  0  0  0  0  0  0  0  0  0
    5.0142   -3.1507    2.6186 C   0  0  0  0  0  0  0  0  0  0  0  0
    3.5621   -2.7020    2.3567 C   0  0  1  0  0  0  0  0  0  0  0  0
    3.2322   -1.4431    2.9186 O   0  0  0  0  0  0  0  0  0  0  0  0
    2.8982   -3.1082    0.9857 C   0  0  2  0  0  0  0  0  0  0  0  0
    2.7219   -4.7054    1.0221 C   0  0  2  0  0  0  0  0  0  0  0  0
    2.5946   -5.3319    2.3249 O   0  0  0  0  0  0  0  0  0  0  0  0
    3.4377   -6.4309    1.8930 C   0  0  0  0  0  0  0  0  0  0  0  0
    3.7848   -5.7235    0.5939 C   0  0  2  0  0  0  0  0  0  0  0  0
    5.2404   -5.3552    0.2873 C   0  0  0  0  0  0  0  0  0  0  0  0
    5.4582   -4.0670   -0.5436 C   0  0  1  0  0  0  0  0  0  0  0  0
    4.3339   -3.7028   -1.5351 C   0  0  1  0  0  0  0  0  0  0  0  0
    3.0402   -3.6158   -0.9986 O   0  0  0  0  0  0  0  0  0  0  0  0
    3.2424   -2.2701   -0.4253 C   0  0  1  0  0  0  0  0  0  0  0  0
    4.2591   -1.1907    0.0568 C   0  0  0  0  0  0  0  0  0  0  0  0
    5.6725   -1.4676   -0.4094 C   0  0  2  0  0  0  0  0  0  0  0  0
    5.3755   -1.5072   -1.8765 C   0  0  0  0  0  0  0  0  0  0  0  0
    4.1019   -2.2915   -1.7993 C   0  0  1  0  0  0  0  0  0  0  0  0
    3.0102   -2.0177   -3.4520 Br  0  0  0  0  0  0  0  0  0  0  0  0
    8.2670   -2.0853    0.1818 H   0  0  0  0  0  0  0  0  0  0  0  0
    7.8497   -2.8749   -1.3318 H   0  0  0  0  0  0  0  0  0  0  0  0
    8.1396   -3.8425    0.0953 H   0  0  0  0  0  0  0  0  0  0  0  0
    7.0015   -3.4084    2.0347 H   0  0  0  0  0  0  0  0  0  0  0  0
    6.5122   -1.7497    1.9840 H   0  0  0  0  0  0  0  0  0  0  0  0
    5.0070   -4.2271    2.7615 H   0  0  0  0  0  0  0  0  0  0  0  0
    5.2744   -2.7936    3.6151 H   0  0  0  0  0  0  0  0  0  0  0  0
    3.0114   -3.2567    3.1090 H   0  0  0  0  0  0  0  0  0  0  0  0
    2.3230   -1.2528    2.7150 H   0  0  0  0  0  0  0  0  0  0  0  0
    1.8763   -2.7646    1.1736 H   0  0  0  0  0  0  0  0  0  0  0  0
    1.8267   -4.9782    0.4558 H   0  0  0  0  0  0  0  0  0  0  0  0
    4.3027   -6.5875    2.5364 H   0  0  0  0  0  0  0  0  0  0  0  0
    2.8688   -7.3498    1.7407 H   0  0  0  0  0  0  0  0  0  0  0  0
    3.3549   -6.2703   -0.2435 H   0  0  0  0  0  0  0  0  0  0  0  0
    5.8444   -5.3560    1.1859 H   0  0  0  0  0  0  0  0  0  0  0  0
    5.6633   -6.1880   -0.2736 H   0  0  0  0  0  0  0  0  0  0  0  0
    6.2140   -4.4020   -1.2270 H   0  0  0  0  0  0  0  0  0  0  0  0
    4.3623   -4.2603   -2.4634 H   0  0  0  0  0  0  0  0  0  0  0  0
    3.9296   -0.2692   -0.4229 H   0  0  0  0  0  0  0  0  0  0  0  0
    4.2529   -0.8077    1.0535 H   0  0  0  0  0  0  0  0  0  0  0  0
    6.3284   -0.6411   -0.1405 H   0  0  0  0  0  0  0  0  0  0  0  0
    5.2118   -0.5102   -2.2852 H   0  0  0  0  0  0  0  0  0  0  0  0
    6.1390   -2.0127   -2.4616 H   0  0  0  0  0  0  0  0  0  0  0  0
  2  1  1  6
  1 22  1  0
  1 23  1  0
  1 24  1  0
  2 13  1  0
  2 18  1  0
  2  3  1  0
  3  4  1  0
  3 25  1  0
  3 26  1  0
  4  5  1  0
  4 27  1  0
  4 28  1  0
  5  6  1  0
  5  7  1  0
  5 29  1  1
  6 30  1  0
  7 16  1  0
  7  8  1  0
  7 31  1  1
  8 11  1  0
  8  9  1  0
  8 32  1  6
  9 10  1  0
 10 11  1  0
 10 33  1  0
 10 34  1  0
 11 12  1  0
 11 35  1  6
 12 13  1  0
 12 36  1  0
 12 37  1  0
 13 14  1  0
 13 38  1  6
 14 20  1  0
 14 15  1  0
 14 39  1  6
 16 15  1  6
 16 20  1  0
 16 17  1  0
 17 18  1  0
 17 40  1  0
 17 41  1  0
 18 19  1  0
 18 42  1  6
 19 20  1  0
 19 43  1  0
 19 44  1  0
 20 21  1  6
M  END
>  <i_m_ct_stereo_status>  (27) 
1

>  <s_m_source_file>  (27) 
/var/tmp/pbs.5076255.sched01/tmpr7id634h/0ay6m0hv_.sdf

>  <i_m_source_file_index>  (27) 
10

>  <i_lp_mmshare_version>  (27) 
48012

>  <i_f3d_flags>  (27) 
0

>  <s_epik_input>  (27) 
TzFbQ0BIXTJbQ0BdMyhCcilbQ0gyXVtDQEBIXShbQ0gyXTQpW0NAQF0oW0NIM10pKFtDSDJdW0NIMl1bQ0BIXTVbT0hdKVtDQEhdMltDSDJdW0NAQEhdKFtDSDJdTzYpW0NAQEhdNltDQEBIXTVbQ0BdMTM0

>  <s_epik_cmdline>  (27) 
J2VwaWtfcHl0aG9uJywgJy1waHQnLCAnMi4wJywgJy1waCcsICc3LjAnLCAnLXRuJywgJzgnLCAnLW1hJywgJzIwMCcsICctaW1hZScsICc8aW5maWxlLm1hZT4nLCAnLW9tYWUnLCAnPG91dGZpbGUubWFlPic=

>  <r_lp_tautomer_probability>  (27) 
1

>  <r_epik_Ionization_Penalty>  (27) 
8.99419e-08

>  <r_epik_Ionization_Penalty_Charging>  (27) 
0

>  <r_epik_Ionization_Penalty_Neutral>  (27) 
8.99419e-08

>  <r_epik_State_Penalty>  (27) 
-0

>  <r_epik_Charging_Adjusted_Penalty>  (27) 
0

>  <i_epik_Tot_Q>  (27) 
0

>  <i_epik_Tot_abs_Q>  (27) 
0

>  <s_lp_Force_Field>  (27) 
OPLS3e

>  <r_lp_Energy>  (27) 
212.21

>  <b_lp_Chiralities_Consistent>  (27) 
1

>  <s_lp_Variant>  (27) 
5:0-1

>  <s_i_glide_gridfile>  (27) 
pfpi4k_grid

>  <i_i_glide_lignum>  (27) 
10

>  <i_i_glide_rotatable_bonds>  (27) 
1

>  <r_i_docking_score>  (27) 
-2.77292

>  <r_i_glide_ligand_efficiency>  (27) 
-0.132044

>  <r_i_glide_ligand_efficiency_sa>  (27) 
-0.364299

>  <r_i_glide_ligand_efficiency_ln>  (27) 
-0.685599

>  <r_i_glide_gscore>  (27) 
-2.77292

>  <r_i_glide_lipo>  (27) 
-0.638096

>  <r_i_glide_hbond>  (27) 
0

>  <r_i_glide_metal>  (27) 
-0

>  <r_i_glide_rewards>  (27) 
-0.986818

>  <r_i_glide_evdw>  (27) 
-24.7263

>  <r_i_glide_ecoul>  (27) 
0.588715

>  <r_i_glide_erotb>  (27) 
0

>  <r_i_glide_esite>  (27) 
0

>  <r_i_glide_emodel>  (27) 
-27.891

>  <r_i_glide_energy>  (27) 
-24.1376

>  <r_i_glide_einternal>  (27) 
0.454902

>  <r_i_glide_intrahb_reward>  (27) 
-0

>  <i_i_glide_confnum>  (27) 
1

>  <i_i_glide_posenum>  (27) 
34

>  <r_i_glide_eff_state_penalty>  (27) 
0

>  <ligand_id>  (27) 
5

>  <original_smiles>  (27) 
CC12CCC(O)C3C4OCC4CC1C1OC34CC2CC14Br

>  <smiles>  (27) 
[H]OC1([H])C([H])([H])C([H])([H])C2(C([H])([H])[H])C3([H])C([H])([H])C4(Br)C5([H])OC4(C3([H])[H])C1([H])C1([H])OC([H])([H])C1([H])C([H])([H])C52[H]

$$$$
6:0:0
     RDKit          3D

 44 47  0  0  1  0  0  0  0  0999 V2000
    3.4734   -5.2609    6.1322 C   0  0  0  0  0  0  0  0  0  0  0  0
    3.8432   -5.2456    4.7258 N   0  0  0  0  0  0  0  0  0  0  0  0
    5.1506   -5.1721    4.3356 C   0  0  0  0  0  0  0  0  0  0  0  0
    6.1059   -4.9242    5.1034 O   0  0  0  0  0  0  0  0  0  0  0  0
    5.1865   -5.3492    3.0072 N   0  0  0  0  0  0  0  0  0  0  0  0
    6.3336   -5.8285    2.3397 C   0  0  0  0  0  0  0  0  0  0  0  0
    6.6540   -7.1197    2.2705 N   0  0  0  0  0  0  0  0  0  0  0  0
    7.7682   -7.3175    1.4559 C   0  0  0  0  0  0  0  0  0  0  0  0
    8.2616   -6.1605    0.8946 C   0  0  0  0  0  0  0  0  0  0  0  0
    7.4506   -4.7783    1.5223 S   0  0  0  0  0  0  0  0  0  0  0  0
    3.8274   -5.2302    2.4320 C   0  0  0  0  0  0  0  0  0  0  0  0
    3.6038   -3.7936    1.9021 C   0  0  0  0  0  0  0  0  0  0  0  0
    4.4247   -3.5075    0.6541 C   0  0  0  0  0  0  0  0  0  0  0  0
    4.1155   -4.5033   -0.3775 N   0  0  0  0  0  0  0  0  0  0  0  0
    4.9297   -4.2154   -1.5532 C   0  0  0  0  0  0  0  0  0  0  0  0
    4.4632   -2.9790   -2.3020 C   0  0  0  0  0  0  0  0  0  0  0  0
    3.4222   -3.0674   -3.2382 C   0  0  0  0  0  0  0  0  0  0  0  0
    2.9805   -1.9028   -3.8766 C   0  0  0  0  0  0  0  0  0  0  0  0
    3.5971   -0.6842   -3.5480 C   0  0  0  0  0  0  0  0  0  0  0  0
    4.6156   -0.6934   -2.5924 C   0  0  0  0  0  0  0  0  0  0  0  0
    5.0671   -1.8136   -1.9825 N   0  0  0  0  0  0  0  0  0  0  0  0
    4.3750   -5.8925    0.0297 C   0  0  0  0  0  0  0  0  0  0  0  0
    3.5433   -6.2455    1.2873 C   0  0  0  0  0  0  0  0  0  0  0  0
    2.9646   -5.3338    3.6755 C   0  0  0  0  0  0  0  0  0  0  0  0
    1.7284   -5.4042    3.6922 O   0  0  0  0  0  0  0  0  0  0  0  0
    4.3065   -5.7123    6.7045 H   0  0  0  0  0  0  0  0  0  0  0  0
    2.5850   -5.8881    6.3248 H   0  0  0  0  0  0  0  0  0  0  0  0
    3.3169   -4.2489    6.5543 H   0  0  0  0  0  0  0  0  0  0  0  0
    8.1522   -8.3229    1.3157 H   0  0  0  0  0  0  0  0  0  0  0  0
    9.0679   -6.0722    0.2176 H   0  0  0  0  0  0  0  0  0  0  0  0
    2.5402   -3.6203    1.6949 H   0  0  0  0  0  0  0  0  0  0  0  0
    3.8838   -3.0715    2.6784 H   0  0  0  0  0  0  0  0  0  0  0  0
    4.2041   -2.4891    0.3287 H   0  0  0  0  0  0  0  0  0  0  0  0
    5.4743   -3.5118    0.9199 H   0  0  0  0  0  0  0  0  0  0  0  0
    5.9817   -4.1074   -1.2768 H   0  0  0  0  0  0  0  0  0  0  0  0
    4.8938   -5.0523   -2.2530 H   0  0  0  0  0  0  0  0  0  0  0  0
    2.9489   -4.0127   -3.4529 H   0  0  0  0  0  0  0  0  0  0  0  0
    2.1776   -1.9412   -4.5863 H   0  0  0  0  0  0  0  0  0  0  0  0
    3.2802    0.2369   -4.0166 H   0  0  0  0  0  0  0  0  0  0  0  0
    5.1169    0.2151   -2.2984 H   0  0  0  0  0  0  0  0  0  0  0  0
    4.1324   -6.6141   -0.7505 H   0  0  0  0  0  0  0  0  0  0  0  0
    5.4373   -6.0348    0.1979 H   0  0  0  0  0  0  0  0  0  0  0  0
    3.7596   -7.2623    1.6264 H   0  0  0  0  0  0  0  0  0  0  0  0
    2.4798   -6.2402    1.0373 H   0  0  0  0  0  0  0  0  0  0  0  0
  1  2  1  0
  1 26  1  0
  1 27  1  0
  1 28  1  0
  2 24  1  0
  2  3  1  0
  3  4  2  0
  3  5  1  0
  5  6  1  0
  5 11  1  0
  6 10  1  0
  6  7  2  0
  7  8  1  0
  8  9  2  0
  8 29  1  0
  9 10  1  0
  9 30  1  0
 11 23  1  0
 11 12  1  0
 11 24  1  0
 12 13  1  0
 12 31  1  0
 12 32  1  0
 13 14  1  0
 13 33  1  0
 13 34  1  0
 14 15  1  0
 14 22  1  0
 15 16  1  0
 15 35  1  0
 15 36  1  0
 16 21  1  0
 16 17  2  0
 17 18  1  0
 17 37  1  0
 18 19  2  0
 18 38  1  0
 19 20  1  0
 19 39  1  0
 20 21  2  0
 20 40  1  0
 22 23  1  0
 22 41  1  0
 22 42  1  0
 23 43  1  0
 23 44  1  0
 24 25  2  0
M  END
>  <i_m_ct_stereo_status>  (28) 
1

>  <s_m_source_file>  (28) 
/var/tmp/pbs.5076255.sched01/tmpr7id634h/0ay6m0hv_.sdf

>  <i_m_source_file_index>  (28) 
11

>  <i_lp_mmshare_version>  (28) 
48012

>  <i_f3d_flags>  (28) 
0

>  <s_epik_input>  (28) 
czFbY0hdW2NIXW5jMU4oQyg9TylOKFtDSDNdKUMyPU8pQzIzW0NIMl1bQ0gyXU4oW0NIMl1bQ0gyXTMpW0NIMl1jNFtjSF1bY0hdW2NIXVtjSF1uNA==

>  <s_epik_cmdline>  (28) 
J2VwaWtfcHl0aG9uJywgJy1waHQnLCAnMi4wJywgJy1waCcsICc3LjAnLCAnLXRuJywgJzgnLCAnLW1hJywgJzIwMCcsICctaW1hZScsICc8aW5maWxlLm1hZT4nLCAnLW9tYWUnLCAnPG91dGZpbGUubWFlPic=

>  <r_lp_tautomer_probability>  (28) 
1

>  <r_epik_Ionization_Penalty>  (28) 
0.113148

>  <r_epik_Ionization_Penalty_Charging>  (28) 
0

>  <r_epik_Ionization_Penalty_Neutral>  (28) 
0.113148

>  <r_epik_State_Penalty>  (28) 
0.102768

>  <r_epik_Charging_Adjusted_Penalty>  (28) 
0.102768

>  <i_epik_Tot_Q>  (28) 
0

>  <i_epik_Tot_abs_Q>  (28) 
0

>  <s_lp_Force_Field>  (28) 
OPLS3e

>  <r_lp_Energy>  (28) 
22.5608

>  <b_lp_Chiralities_Consistent>  (28) 
1

>  <s_lp_Variant>  (28) 
6:0-1

>  <s_i_glide_gridfile>  (28) 
pfpi4k_grid

>  <i_i_glide_lignum>  (28) 
11

>  <i_i_glide_rotatable_bonds>  (28) 
3

>  <r_i_docking_score>  (28) 
-2.63123

>  <r_i_glide_ligand_efficiency>  (28) 
-0.105249

>  <r_i_glide_ligand_efficiency_sa>  (28) 
-0.307751

>  <r_i_glide_ligand_efficiency_ln>  (28) 
-0.62368

>  <r_i_glide_gscore>  (28) 
-2.63123

>  <r_i_glide_lipo>  (28) 
-0.698682

>  <r_i_glide_hbond>  (28) 
0

>  <r_i_glide_metal>  (28) 
-0

>  <r_i_glide_rewards>  (28) 
-0.97427

>  <r_i_glide_evdw>  (28) 
-23.5623

>  <r_i_glide_ecoul>  (28) 
-1.53136

>  <r_i_glide_erotb>  (28) 
0.449541

>  <r_i_glide_esite>  (28) 
0

>  <r_i_glide_emodel>  (28) 
-27.6548

>  <r_i_glide_energy>  (28) 
-25.0937

>  <r_i_glide_einternal>  (28) 
1.35803

>  <r_i_glide_intrahb_reward>  (28) 
-0

>  <i_i_glide_confnum>  (28) 
6

>  <i_i_glide_posenum>  (28) 
35

>  <r_i_glide_eff_state_penalty>  (28) 
0

>  <ligand_id>  (28) 
6

>  <original_smiles>  (28) 
CN1C(=O)N(c2nccs2)C2(CCN(Cc3ccccn3)CC2)C1=O

>  <smiles>  (28) 
[H]c1nc(N2C(=O)N(C([H])([H])[H])C(=O)C23C([H])([H])C([H])([H])N(C([H])([H])c2nc([H])c([H])c([H])c2[H])C([H])([H])C3([H])[H])sc1[H]

$$$$
6:0:1
     RDKit          3D

 44 47  0  0  1  0  0  0  0  0999 V2000
   -3.1368    3.0155    5.7284 C   0  0  0  0  0  0  0  0  0  0  0  0
   -1.7360    2.6248    5.4656 N   0  0  0  0  0  0  0  0  0  0  0  0
   -0.8497    3.5691    5.0123 C   0  0  0  0  0  0  0  0  0  0  0  0
   -1.1387    4.6908    4.5881 O   0  0  0  0  0  0  0  0  0  0  0  0
    0.3776    2.9593    5.0726 N   0  0  0  0  0  0  0  0  0  0  0  0
    1.5759    3.6835    5.1613 C   0  0  0  0  0  0  0  0  0  0  0  0
    2.1768    3.9222    6.3277 N   0  0  0  0  0  0  0  0  0  0  0  0
    3.4097    4.5404    6.1125 C   0  0  0  0  0  0  0  0  0  0  0  0
    3.6407    4.8609    4.8039 C   0  0  0  0  0  0  0  0  0  0  0  0
    2.3189    4.3971    3.7757 S   0  0  0  0  0  0  0  0  0  0  0  0
    0.2286    1.4985    5.2626 C   0  0  0  0  0  0  0  0  0  0  0  0
    0.2912    0.7951    3.8910 C   0  0  0  0  0  0  0  0  0  0  0  0
    1.6968    0.8547    3.2951 C   0  0  0  0  0  0  0  0  0  0  0  0
    2.6544    0.2039    4.2106 N   0  0  0  0  0  0  0  0  0  0  0  0
    3.9735    0.2858    3.5952 C   0  0  0  0  0  0  0  0  0  0  0  0
    4.1389   -0.6640    2.4228 C   0  0  0  0  0  0  0  0  0  0  0  0
    4.5963   -1.9752    2.6468 C   0  0  0  0  0  0  0  0  0  0  0  0
    4.6849   -2.8464    1.5472 C   0  0  0  0  0  0  0  0  0  0  0  0
    4.2874   -2.3801    0.2797 C   0  0  0  0  0  0  0  0  0  0  0  0
    3.8280   -1.0567    0.1660 C   0  0  0  0  0  0  0  0  0  0  0  0
    3.7763   -0.2058    1.2070 N   0  0  0  0  0  0  0  0  0  0  0  0
    2.7184    0.8965    5.5025 C   0  0  0  0  0  0  0  0  0  0  0  0
    1.3187    0.8776    6.1864 C   0  0  0  0  0  0  0  0  0  0  0  0
   -1.2528    1.3950    5.7037 C   0  0  0  0  0  0  0  0  0  0  0  0
   -1.7905    0.3529    6.1444 O   0  0  0  0  0  0  0  0  0  0  0  0
   -3.1318    4.0949    6.0037 H   0  0  0  0  0  0  0  0  0  0  0  0
   -3.5619    2.4806    6.5955 H   0  0  0  0  0  0  0  0  0  0  0  0
   -3.7634    2.8340    4.8367 H   0  0  0  0  0  0  0  0  0  0  0  0
    4.0708    4.6973    6.9495 H   0  0  0  0  0  0  0  0  0  0  0  0
    4.5099    5.3454    4.3727 H   0  0  0  0  0  0  0  0  0  0  0  0
   -0.0176   -0.2502    3.9697 H   0  0  0  0  0  0  0  0  0  0  0  0
   -0.4029    1.2630    3.1818 H   0  0  0  0  0  0  0  0  0  0  0  0
    1.6471    0.3582    2.3192 H   0  0  0  0  0  0  0  0  0  0  0  0
    1.9667    1.8954    3.0939 H   0  0  0  0  0  0  0  0  0  0  0  0
    4.1978    1.3120    3.2832 H   0  0  0  0  0  0  0  0  0  0  0  0
    4.7262    0.0256    4.3400 H   0  0  0  0  0  0  0  0  0  0  0  0
    4.8681   -2.2964    3.6380 H   0  0  0  0  0  0  0  0  0  0  0  0
    5.0464   -3.8502    1.6792 H   0  0  0  0  0  0  0  0  0  0  0  0
    4.3342   -3.0194   -0.5834 H   0  0  0  0  0  0  0  0  0  0  0  0
    3.4998   -0.6677   -0.7865 H   0  0  0  0  0  0  0  0  0  0  0  0
    3.4452    0.4291    6.1769 H   0  0  0  0  0  0  0  0  0  0  0  0
    3.0563    1.9293    5.3286 H   0  0  0  0  0  0  0  0  0  0  0  0
    1.3363    1.4175    7.1345 H   0  0  0  0  0  0  0  0  0  0  0  0
    1.0444   -0.1445    6.4459 H   0  0  0  0  0  0  0  0  0  0  0  0
  1  2  1  0
  1 26  1  0
  1 27  1  0
  1 28  1  0
  2 24  1  0
  2  3  1  0
  3  4  2  0
  3  5  1  0
  5  6  1  0
  5 11  1  0
  6 10  1  0
  6  7  2  0
  7  8  1  0
  8  9  2  0
  8 29  1  0
  9 10  1  0
  9 30  1  0
 11 23  1  0
 11 12  1  0
 11 24  1  0
 12 13  1  0
 12 31  1  0
 12 32  1  0
 13 14  1  0
 13 33  1  0
 13 34  1  0
 14 15  1  0
 14 22  1  0
 15 16  1  0
 15 35  1  0
 15 36  1  0
 16 21  1  0
 16 17  2  0
 17 18  1  0
 17 37  1  0
 18 19  2  0
 18 38  1  0
 19 20  1  0
 19 39  1  0
 20 21  2  0
 20 40  1  0
 22 23  1  0
 22 41  1  0
 22 42  1  0
 23 43  1  0
 23 44  1  0
 24 25  2  0
M  END
>  <i_m_ct_stereo_status>  (29) 
1

>  <s_m_source_file>  (29) 
/var/tmp/pbs.5076255.sched01/tmpr7id634h/0ay6m0hv_.sdf

>  <i_m_source_file_index>  (29) 
11

>  <i_lp_mmshare_version>  (29) 
48012

>  <i_f3d_flags>  (29) 
0

>  <s_epik_input>  (29) 
czFbY0hdW2NIXW5jMU4oQyg9TylOKFtDSDNdKUMyPU8pQzIzW0NIMl1bQ0gyXU4oW0NIMl1bQ0gyXTMpW0NIMl1jNFtjSF1bY0hdW2NIXVtjSF1uNA==

>  <s_epik_cmdline>  (29) 
J2VwaWtfcHl0aG9uJywgJy1waHQnLCAnMi4wJywgJy1waCcsICc3LjAnLCAnLXRuJywgJzgnLCAnLW1hJywgJzIwMCcsICctaW1hZScsICc8aW5maWxlLm1hZT4nLCAnLW9tYWUnLCAnPG91dGZpbGUubWFlPic=

>  <r_lp_tautomer_probability>  (29) 
1

>  <r_epik_Ionization_Penalty>  (29) 
0.113148

>  <r_epik_Ionization_Penalty_Charging>  (29) 
0

>  <r_epik_Ionization_Penalty_Neutral>  (29) 
0.113148

>  <r_epik_State_Penalty>  (29) 
0.102768

>  <r_epik_Charging_Adjusted_Penalty>  (29) 
0.102768

>  <i_epik_Tot_Q>  (29) 
0

>  <i_epik_Tot_abs_Q>  (29) 
0

>  <s_lp_Force_Field>  (29) 
OPLS3e

>  <r_lp_Energy>  (29) 
22.5608

>  <b_lp_Chiralities_Consistent>  (29) 
1

>  <s_lp_Variant>  (29) 
6:0-1

>  <s_i_glide_gridfile>  (29) 
pfpi4k_grid

>  <i_i_glide_lignum>  (29) 
11

>  <i_i_glide_rotatable_bonds>  (29) 
3

>  <r_i_docking_score>  (29) 
-2.59243

>  <r_i_glide_ligand_efficiency>  (29) 
-0.103697

>  <r_i_glide_ligand_efficiency_sa>  (29) 
-0.303212

>  <r_i_glide_ligand_efficiency_ln>  (29) 
-0.614483

>  <r_i_glide_gscore>  (29) 
-2.59243

>  <r_i_glide_lipo>  (29) 
-0.134743

>  <r_i_glide_hbond>  (29) 
-0.186144

>  <r_i_glide_metal>  (29) 
-0

>  <r_i_glide_rewards>  (29) 
-1.03485

>  <r_i_glide_evdw>  (29) 
-20.3993

>  <r_i_glide_ecoul>  (29) 
-4.08957

>  <r_i_glide_erotb>  (29) 
0.449541

>  <r_i_glide_esite>  (29) 
-0.0528273

>  <r_i_glide_emodel>  (29) 
-27.6648

>  <r_i_glide_energy>  (29) 
-24.4889

>  <r_i_glide_einternal>  (29) 
0.20706

>  <r_i_glide_intrahb_reward>  (29) 
-0

>  <i_i_glide_confnum>  (29) 
6

>  <i_i_glide_posenum>  (29) 
14

>  <r_i_glide_eff_state_penalty>  (29) 
0

>  <ligand_id>  (29) 
6

>  <original_smiles>  (29) 
CN1C(=O)N(c2nccs2)C2(CCN(Cc3ccccn3)CC2)C1=O

>  <smiles>  (29) 
[H]c1nc(N2C(=O)N(C([H])([H])[H])C(=O)C23C([H])([H])C([H])([H])N(C([H])([H])c2nc([H])c([H])c([H])c2[H])C([H])([H])C3([H])[H])sc1[H]

$$$$
6:0:2
     RDKit          3D

 44 47  0  0  1  0  0  0  0  0999 V2000
    1.7203   -6.6561    6.0674 C   0  0  0  0  0  0  0  0  0  0  0  0
    2.3566   -6.4369    4.7597 N   0  0  0  0  0  0  0  0  0  0  0  0
    3.7461   -6.4256    4.7077 C   0  0  0  0  0  0  0  0  0  0  0  0
    4.5102   -6.3625    5.6412 O   0  0  0  0  0  0  0  0  0  0  0  0
    4.0493   -6.4835    3.4017 N   0  0  0  0  0  0  0  0  0  0  0  0
    5.3080   -6.9379    2.9594 C   0  0  0  0  0  0  0  0  0  0  0  0
    5.4905   -8.1734    2.4841 N   0  0  0  0  0  0  0  0  0  0  0  0
    6.7692   -8.3133    1.9473 C   0  0  0  0  0  0  0  0  0  0  0  0
    7.5500   -7.1902    2.0726 C   0  0  0  0  0  0  0  0  0  0  0  0
    6.7108   -5.9054    2.8791 S   0  0  0  0  0  0  0  0  0  0  0  0
    2.8940   -6.1478    2.5674 C   0  0  0  0  0  0  0  0  0  0  0  0
    2.8829   -4.6446    2.2611 C   0  0  0  0  0  0  0  0  0  0  0  0
    4.0012   -4.2802    1.3009 C   0  0  0  0  0  0  0  0  0  0  0  0
    3.8650   -5.0380    0.0505 N   0  0  0  0  0  0  0  0  0  0  0  0
    4.9386   -4.6446   -0.8634 C   0  0  0  0  0  0  0  0  0  0  0  0
    4.7101   -3.2821   -1.4939 C   0  0  0  0  0  0  0  0  0  0  0  0
    4.2684   -3.1809   -2.8273 C   0  0  0  0  0  0  0  0  0  0  0  0
    4.0207   -1.9024   -3.3560 C   0  0  0  0  0  0  0  0  0  0  0  0
    4.2124   -0.7796   -2.5332 C   0  0  0  0  0  0  0  0  0  0  0  0
    4.6411   -0.9867   -1.2104 C   0  0  0  0  0  0  0  0  0  0  0  0
    4.9266   -2.2006   -0.7136 N   0  0  0  0  0  0  0  0  0  0  0  0
    3.9632   -6.4806    0.2855 C   0  0  0  0  0  0  0  0  0  0  0  0
    2.8410   -6.9506    1.2518 C   0  0  0  0  0  0  0  0  0  0  0  0
    1.7796   -6.3317    3.5685 C   0  0  0  0  0  0  0  0  0  0  0  0
    0.5539   -6.2846    3.2306 O   0  0  0  0  0  0  0  0  0  0  0  0
    2.3774   -7.2478    6.7138 H   0  0  0  0  0  0  0  0  0  0  0  0
    0.7990   -7.2335    5.9384 H   0  0  0  0  0  0  0  0  0  0  0  0
    1.5090   -5.7191    6.5931 H   0  0  0  0  0  0  0  0  0  0  0  0
    7.0425   -9.2546    1.5030 H   0  0  0  0  0  0  0  0  0  0  0  0
    8.5774   -7.0493    1.7642 H   0  0  0  0  0  0  0  0  0  0  0  0
    1.9253   -4.3446    1.8302 H   0  0  0  0  0  0  0  0  0  0  0  0
    2.9971   -4.0638    3.1805 H   0  0  0  0  0  0  0  0  0  0  0  0
    3.9309   -3.2076    1.1454 H   0  0  0  0  0  0  0  0  0  0  0  0
    4.9689   -4.4481    1.7647 H   0  0  0  0  0  0  0  0  0  0  0  0
    5.9045   -4.6624   -0.3562 H   0  0  0  0  0  0  0  0  0  0  0  0
    5.0157   -5.3732   -1.6671 H   0  0  0  0  0  0  0  0  0  0  0  0
    4.1129   -4.0685   -3.4218 H   0  0  0  0  0  0  0  0  0  0  0  0
    3.6876   -1.7870   -4.3743 H   0  0  0  0  0  0  0  0  0  0  0  0
    4.0254    0.2182   -2.9010 H   0  0  0  0  0  0  0  0  0  0  0  0
    4.7827   -0.1545   -0.5386 H   0  0  0  0  0  0  0  0  0  0  0  0
    3.9151   -7.0461   -0.6397 H   0  0  0  0  0  0  0  0  0  0  0  0
    4.9558   -6.6859    0.6534 H   0  0  0  0  0  0  0  0  0  0  0  0
    2.9316   -8.0191    1.4609 H   0  0  0  0  0  0  0  0  0  0  0  0
    1.8714   -6.8198    0.7708 H   0  0  0  0  0  0  0  0  0  0  0  0
  1  2  1  0
  1 26  1  0
  1 27  1  0
  1 28  1  0
  2 24  1  0
  2  3  1  0
  3  4  2  0
  3  5  1  0
  5  6  1  0
  5 11  1  0
  6 10  1  0
  6  7  2  0
  7  8  1  0
  8  9  2  0
  8 29  1  0
  9 10  1  0
  9 30  1  0
 11 23  1  0
 11 12  1  0
 11 24  1  0
 12 13  1  0
 12 31  1  0
 12 32  1  0
 13 14  1  0
 13 33  1  0
 13 34  1  0
 14 15  1  0
 14 22  1  0
 15 16  1  0
 15 35  1  0
 15 36  1  0
 16 21  1  0
 16 17  2  0
 17 18  1  0
 17 37  1  0
 18 19  2  0
 18 38  1  0
 19 20  1  0
 19 39  1  0
 20 21  2  0
 20 40  1  0
 22 23  1  0
 22 41  1  0
 22 42  1  0
 23 43  1  0
 23 44  1  0
 24 25  2  0
M  END
>  <i_m_ct_stereo_status>  (30) 
1

>  <s_m_source_file>  (30) 
/var/tmp/pbs.5076255.sched01/tmpr7id634h/0ay6m0hv_.sdf

>  <i_m_source_file_index>  (30) 
11

>  <i_lp_mmshare_version>  (30) 
48012

>  <i_f3d_flags>  (30) 
0

>  <s_epik_input>  (30) 
czFbY0hdW2NIXW5jMU4oQyg9TylOKFtDSDNdKUMyPU8pQzIzW0NIMl1bQ0gyXU4oW0NIMl1bQ0gyXTMpW0NIMl1jNFtjSF1bY0hdW2NIXVtjSF1uNA==

>  <s_epik_cmdline>  (30) 
J2VwaWtfcHl0aG9uJywgJy1waHQnLCAnMi4wJywgJy1waCcsICc3LjAnLCAnLXRuJywgJzgnLCAnLW1hJywgJzIwMCcsICctaW1hZScsICc8aW5maWxlLm1hZT4nLCAnLW9tYWUnLCAnPG91dGZpbGUubWFlPic=

>  <r_lp_tautomer_probability>  (30) 
1

>  <r_epik_Ionization_Penalty>  (30) 
0.113148

>  <r_epik_Ionization_Penalty_Charging>  (30) 
0

>  <r_epik_Ionization_Penalty_Neutral>  (30) 
0.113148

>  <r_epik_State_Penalty>  (30) 
0.102768

>  <r_epik_Charging_Adjusted_Penalty>  (30) 
0.102768

>  <i_epik_Tot_Q>  (30) 
0

>  <i_epik_Tot_abs_Q>  (30) 
0

>  <s_lp_Force_Field>  (30) 
OPLS3e

>  <r_lp_Energy>  (30) 
22.5608

>  <b_lp_Chiralities_Consistent>  (30) 
1

>  <s_lp_Variant>  (30) 
6:0-1

>  <s_i_glide_gridfile>  (30) 
pfpi4k_grid

>  <i_i_glide_lignum>  (30) 
11

>  <i_i_glide_rotatable_bonds>  (30) 
3

>  <r_i_docking_score>  (30) 
-2.40369

>  <r_i_glide_ligand_efficiency>  (30) 
-0.0961477

>  <r_i_glide_ligand_efficiency_sa>  (30) 
-0.281137

>  <r_i_glide_ligand_efficiency_ln>  (30) 
-0.569747

>  <r_i_glide_gscore>  (30) 
-2.40369

>  <r_i_glide_lipo>  (30) 
-0.491796

>  <r_i_glide_hbond>  (30) 
0

>  <r_i_glide_metal>  (30) 
-0

>  <r_i_glide_rewards>  (30) 
-0.972061

>  <r_i_glide_evdw>  (30) 
-24.6383

>  <r_i_glide_ecoul>  (30) 
-1.00179

>  <r_i_glide_erotb>  (30) 
0.449541

>  <r_i_glide_esite>  (30) 
-0.00719133

>  <r_i_glide_emodel>  (30) 
-27.5899

>  <r_i_glide_energy>  (30) 
-25.6401

>  <r_i_glide_einternal>  (30) 
0.557657

>  <r_i_glide_intrahb_reward>  (30) 
-0

>  <i_i_glide_confnum>  (30) 
6

>  <i_i_glide_posenum>  (30) 
15

>  <r_i_glide_eff_state_penalty>  (30) 
0

>  <ligand_id>  (30) 
6

>  <original_smiles>  (30) 
CN1C(=O)N(c2nccs2)C2(CCN(Cc3ccccn3)CC2)C1=O

>  <smiles>  (30) 
[H]c1nc(N2C(=O)N(C([H])([H])[H])C(=O)C23C([H])([H])C([H])([H])N(C([H])([H])c2nc([H])c([H])c([H])c2[H])C([H])([H])C3([H])[H])sc1[H]

$$$$
6:1:0
     RDKit          3D

 45 48  0  0  1  0  0  0  0  0999 V2000
   -2.5963    3.2426    3.3992 C   0  0  0  0  0  0  0  0  0  0  0  0
   -1.1227    3.1129    3.3205 N   0  0  0  0  0  0  0  0  0  0  0  0
   -0.3268    4.1238    3.7890 C   0  0  0  0  0  0  0  0  0  0  0  0
   -0.6519    5.2895    4.0443 O   0  0  0  0  0  0  0  0  0  0  0  0
    0.9109    3.5738    3.9235 N   0  0  0  0  0  0  0  0  0  0  0  0
    2.0292    4.2620    4.4181 C   0  0  0  0  0  0  0  0  0  0  0  0
    2.5689    3.9436    5.5823 N   0  0  0  0  0  0  0  0  0  0  0  0
    3.6623    4.7448    5.8432 C   0  0  0  0  0  0  0  0  0  0  0  0
    3.9205    5.6776    4.8713 C   0  0  0  0  0  0  0  0  0  0  0  0
    2.7765    5.5700    3.5607 S   0  0  0  0  0  0  0  0  0  0  0  0
    0.9880    2.2182    3.3719 C   0  0  1  0  0  0  0  0  0  0  0  0
    1.9993    2.2045    2.1961 C   0  0  0  0  0  0  0  0  0  0  0  0
    2.2120    0.7937    1.6581 C   0  0  0  0  0  0  0  0  0  0  0  0
    2.6407   -0.1283    2.7369 N   0  0  2  0  0  0  0  0  0  0  0  0
    2.9057   -1.4827    2.2120 C   0  0  0  0  0  0  0  0  0  0  0  0
    4.0608   -1.5672    1.2291 C   0  0  0  0  0  0  0  0  0  0  0  0
    3.8123   -1.8507   -0.1256 C   0  0  0  0  0  0  0  0  0  0  0  0
    4.9009   -1.9905   -0.9978 C   0  0  0  0  0  0  0  0  0  0  0  0
    6.1974   -1.8436   -0.4826 C   0  0  0  0  0  0  0  0  0  0  0  0
    6.3472   -1.5402    0.8818 C   0  0  0  0  0  0  0  0  0  0  0  0
    5.3039   -1.3974    1.7293 N   0  0  0  0  0  0  0  0  0  0  0  0
    1.6345   -0.2016    3.8277 C   0  0  0  0  0  0  0  0  0  0  0  0
    1.4044    1.1840    4.4415 C   0  0  0  0  0  0  0  0  0  0  0  0
   -0.4764    1.9673    3.0119 C   0  0  0  0  0  0  0  0  0  0  0  0
   -0.9336    0.8802    2.5870 O   0  0  0  0  0  0  0  0  0  0  0  0
   -2.8717    3.9743    4.1874 H   0  0  0  0  0  0  0  0  0  0  0  0
   -3.0829    2.2908    3.6718 H   0  0  0  0  0  0  0  0  0  0  0  0
   -2.9927    3.6041    2.4382 H   0  0  0  0  0  0  0  0  0  0  0  0
    4.2088    4.5818    6.7645 H   0  0  0  0  0  0  0  0  0  0  0  0
    4.7054    6.4186    4.8423 H   0  0  0  0  0  0  0  0  0  0  0  0
    1.6715    2.8817    1.4051 H   0  0  0  0  0  0  0  0  0  0  0  0
    2.9633    2.6054    2.5319 H   0  0  0  0  0  0  0  0  0  0  0  0
    1.2986    0.4418    1.1835 H   0  0  0  0  0  0  0  0  0  0  0  0
    2.9818    0.8515    0.8874 H   0  0  0  0  0  0  0  0  0  0  0  0
    3.1025   -2.1471    3.0489 H   0  0  0  0  0  0  0  0  0  0  0  0
    1.9890   -1.8248    1.7334 H   0  0  0  0  0  0  0  0  0  0  0  0
    2.8031   -1.9740   -0.4907 H   0  0  0  0  0  0  0  0  0  0  0  0
    4.7429   -2.2211   -2.0401 H   0  0  0  0  0  0  0  0  0  0  0  0
    7.0571   -1.9668   -1.1160 H   0  0  0  0  0  0  0  0  0  0  0  0
    7.3330   -1.4211    1.3046 H   0  0  0  0  0  0  0  0  0  0  0  0
    0.7051   -0.6075    3.4192 H   0  0  0  0  0  0  0  0  0  0  0  0
    1.9871   -0.8783    4.6115 H   0  0  0  0  0  0  0  0  0  0  0  0
    2.3171    1.4887    4.9505 H   0  0  0  0  0  0  0  0  0  0  0  0
    0.6404    1.1179    5.2146 H   0  0  0  0  0  0  0  0  0  0  0  0
    3.5071    0.2411    3.1154 H   0  0  0  0  0  0  0  0  0  0  0  0
  1  2  1  0
  1 26  1  0
  1 27  1  0
  1 28  1  0
  2 24  1  0
  2  3  1  0
  3  4  2  0
  3  5  1  0
  5  6  1  0
 11  5  1  1
  6 10  1  0
  6  7  2  0
  7  8  1  0
  8  9  2  0
  8 29  1  0
  9 10  1  0
  9 30  1  0
 11 23  1  0
 11 12  1  0
 11 24  1  0
 12 13  1  0
 12 31  1  0
 12 32  1  0
 13 14  1  0
 13 33  1  0
 13 34  1  0
 14 15  1  0
 14 22  1  0
 14 45  1  1
 15 16  1  0
 15 35  1  0
 15 36  1  0
 16 21  1  0
 16 17  2  0
 17 18  1  0
 17 37  1  0
 18 19  2  0
 18 38  1  0
 19 20  1  0
 19 39  1  0
 20 21  2  0
 20 40  1  0
 22 23  1  0
 22 41  1  0
 22 42  1  0
 23 43  1  0
 23 44  1  0
 24 25  2  0
M  CHG  1  14   1
M  END
>  <i_m_ct_stereo_status>  (31) 
1

>  <s_m_source_file>  (31) 
/var/tmp/pbs.5076255.sched01/tmpr7id634h/0ay6m0hv_.sdf

>  <i_m_source_file_index>  (31) 
12

>  <i_lp_mmshare_version>  (31) 
48012

>  <i_f3d_flags>  (31) 
0

>  <s_epik_input>  (31) 
czFbY0hdW2NIXW5jMU4oQyg9TylOKFtDSDNdKUMyPU8pQzIzW0NIMl1bQ0gyXU4oW0NIMl1bQ0gyXTMpW0NIMl1jNFtjSF1bY0hdW2NIXVtjSF1uNA==

>  <s_epik_cmdline>  (31) 
J2VwaWtfcHl0aG9uJywgJy1waHQnLCAnMi4wJywgJy1waCcsICc3LjAnLCAnLXRuJywgJzgnLCAnLW1hJywgJzIwMCcsICctaW1hZScsICc8aW5maWxlLm1hZT4nLCAnLW9tYWUnLCAnPG91dGZpbGUubWFlPic=

>  <r_lp_tautomer_probability>  (31) 
1

>  <r_epik_Ionization_Penalty>  (31) 
1.03694

>  <r_epik_Ionization_Penalty_Charging>  (31) 
1.03693

>  <r_epik_Ionization_Penalty_Neutral>  (31) 
1.21098e-05

>  <r_epik_State_Penalty>  (31) 
1.08859

>  <r_epik_Charging_Adjusted_Penalty>  (31) 
2.12552

>  <i_epik_Tot_Q>  (31) 
1

>  <i_epik_Tot_abs_Q>  (31) 
1

>  <s_lp_Force_Field>  (31) 
OPLS3e

>  <r_lp_Energy>  (31) 
27.8419

>  <b_lp_Chiralities_Consistent>  (31) 
1

>  <s_lp_Variant>  (31) 
6:0-2

>  <s_i_glide_gridfile>  (31) 
pfpi4k_grid

>  <i_i_glide_lignum>  (31) 
12

>  <i_i_glide_rotatable_bonds>  (31) 
3

>  <r_i_docking_score>  (31) 
-3.24002

>  <r_i_glide_ligand_efficiency>  (31) 
-0.129601

>  <r_i_glide_ligand_efficiency_sa>  (31) 
-0.378955

>  <r_i_glide_ligand_efficiency_ln>  (31) 
-0.767983

>  <r_i_glide_gscore>  (31) 
-3.24002

>  <r_i_glide_lipo>  (31) 
-0.134551

>  <r_i_glide_hbond>  (31) 
-0.083765

>  <r_i_glide_metal>  (31) 
-0

>  <r_i_glide_rewards>  (31) 
-0.965189

>  <r_i_glide_evdw>  (31) 
-27.8242

>  <r_i_glide_ecoul>  (31) 
-5.43539

>  <r_i_glide_erotb>  (31) 
0.447291

>  <r_i_glide_esite>  (31) 
-0.29729

>  <r_i_glide_emodel>  (31) 
-39.602

>  <r_i_glide_energy>  (31) 
-33.2596

>  <r_i_glide_einternal>  (31) 
0.238132

>  <r_i_glide_intrahb_reward>  (31) 
-0

>  <i_i_glide_confnum>  (31) 
1

>  <i_i_glide_posenum>  (31) 
6

>  <r_i_glide_eff_state_penalty>  (31) 
0

>  <ligand_id>  (31) 
6

>  <original_smiles>  (31) 
CN1C(=O)N(c2nccs2)C2(CCN(Cc3ccccn3)CC2)C1=O

>  <smiles>  (31) 
[H]c1nc(N2C(=O)N(C([H])([H])[H])C(=O)C23C([H])([H])C([H])([H])[N+]([H])(C([H])([H])c2nc([H])c([H])c([H])c2[H])C([H])([H])C3([H])[H])sc1[H]

$$$$
6:1:1
     RDKit          3D

 45 48  0  0  1  0  0  0  0  0999 V2000
   -2.6269    3.2648    3.3194 C   0  0  0  0  0  0  0  0  0  0  0  0
   -1.1540    3.1163    3.2391 N   0  0  0  0  0  0  0  0  0  0  0  0
   -0.3417    4.1284    3.6850 C   0  0  0  0  0  0  0  0  0  0  0  0
   -0.6631    5.2951    3.9484 O   0  0  0  0  0  0  0  0  0  0  0  0
    0.8801    3.5636    3.8619 N   0  0  0  0  0  0  0  0  0  0  0  0
    2.0075    4.2452    4.3477 C   0  0  0  0  0  0  0  0  0  0  0  0
    2.5462    3.9332    5.5144 N   0  0  0  0  0  0  0  0  0  0  0  0
    3.6453    4.7295    5.7681 C   0  0  0  0  0  0  0  0  0  0  0  0
    3.9082    5.6525    4.7890 C   0  0  0  0  0  0  0  0  0  0  0  0
    2.7649    5.5401    3.4777 S   0  0  0  0  0  0  0  0  0  0  0  0
    0.9466    2.1974    3.3344 C   0  0  1  0  0  0  0  0  0  0  0  0
    1.9639    2.1498    2.1652 C   0  0  0  0  0  0  0  0  0  0  0  0
    2.1640    0.7248    1.6479 C   0  0  0  0  0  0  0  0  0  0  0  0
    2.5621   -0.1869    2.7519 N   0  0  2  0  0  0  0  0  0  0  0  0
    2.8114   -1.5500    2.2395 C   0  0  0  0  0  0  0  0  0  0  0  0
    4.0380   -1.6727    1.3507 C   0  0  0  0  0  0  0  0  0  0  0  0
    5.2949   -1.2124    1.7881 C   0  0  0  0  0  0  0  0  0  0  0  0
    6.4000   -1.3888    0.9386 C   0  0  0  0  0  0  0  0  0  0  0  0
    6.2109   -2.0103   -0.3065 C   0  0  0  0  0  0  0  0  0  0  0  0
    4.9150   -2.4275   -0.6564 C   0  0  0  0  0  0  0  0  0  0  0  0
    3.8483   -2.2628    0.1519 N   0  0  0  0  0  0  0  0  0  0  0  0
    1.5527   -0.2255    3.8384 C   0  0  0  0  0  0  0  0  0  0  0  0
    1.3438    1.1760    4.4221 C   0  0  0  0  0  0  0  0  0  0  0  0
   -0.5190    1.9545    2.9711 C   0  0  0  0  0  0  0  0  0  0  0  0
   -0.9850    0.8691    2.5591 O   0  0  0  0  0  0  0  0  0  0  0  0
   -2.8979    4.0190    4.0900 H   0  0  0  0  0  0  0  0  0  0  0  0
   -3.1264    2.3268    3.6108 H   0  0  0  0  0  0  0  0  0  0  0  0
   -3.0071    3.6119    2.3479 H   0  0  0  0  0  0  0  0  0  0  0  0
    4.1901    4.5677    6.6895 H   0  0  0  0  0  0  0  0  0  0  0  0
    4.6985    6.3871    4.7538 H   0  0  0  0  0  0  0  0  0  0  0  0
    1.6489    2.8107    1.3563 H   0  0  0  0  0  0  0  0  0  0  0  0
    2.9323    2.5427    2.4960 H   0  0  0  0  0  0  0  0  0  0  0  0
    1.2435    0.3760    1.1776 H   0  0  0  0  0  0  0  0  0  0  0  0
    2.9394    0.7509    0.8867 H   0  0  0  0  0  0  0  0  0  0  0  0
    2.9400   -2.2171    3.0848 H   0  0  0  0  0  0  0  0  0  0  0  0
    1.9160   -1.8677    1.7068 H   0  0  0  0  0  0  0  0  0  0  0  0
    5.4200   -0.7548    2.7568 H   0  0  0  0  0  0  0  0  0  0  0  0
    7.3802   -1.0588    1.2462 H   0  0  0  0  0  0  0  0  0  0  0  0
    7.0350   -2.1792   -0.9781 H   0  0  0  0  0  0  0  0  0  0  0  0
    4.7296   -2.9114   -1.6036 H   0  0  0  0  0  0  0  0  0  0  0  0
    0.6226   -0.6263    3.4285 H   0  0  0  0  0  0  0  0  0  0  0  0
    1.8975   -0.8885    4.6350 H   0  0  0  0  0  0  0  0  0  0  0  0
    2.2572    1.4768    4.9315 H   0  0  0  0  0  0  0  0  0  0  0  0
    0.5744    1.1349    5.1922 H   0  0  0  0  0  0  0  0  0  0  0  0
    3.4295    0.1813    3.1287 H   0  0  0  0  0  0  0  0  0  0  0  0
  1  2  1  0
  1 26  1  0
  1 27  1  0
  1 28  1  0
  2 24  1  0
  2  3  1  0
  3  4  2  0
  3  5  1  0
  5  6  1  0
 11  5  1  1
  6 10  1  0
  6  7  2  0
  7  8  1  0
  8  9  2  0
  8 29  1  0
  9 10  1  0
  9 30  1  0
 11 23  1  0
 11 12  1  0
 11 24  1  0
 12 13  1  0
 12 31  1  0
 12 32  1  0
 13 14  1  0
 13 33  1  0
 13 34  1  0
 14 15  1  0
 14 22  1  0
 14 45  1  1
 15 16  1  0
 15 35  1  0
 15 36  1  0
 16 21  1  0
 16 17  2  0
 17 18  1  0
 17 37  1  0
 18 19  2  0
 18 38  1  0
 19 20  1  0
 19 39  1  0
 20 21  2  0
 20 40  1  0
 22 23  1  0
 22 41  1  0
 22 42  1  0
 23 43  1  0
 23 44  1  0
 24 25  2  0
M  CHG  1  14   1
M  END
>  <i_m_ct_stereo_status>  (32) 
1

>  <s_m_source_file>  (32) 
/var/tmp/pbs.5076255.sched01/tmpr7id634h/0ay6m0hv_.sdf

>  <i_m_source_file_index>  (32) 
12

>  <i_lp_mmshare_version>  (32) 
48012

>  <i_f3d_flags>  (32) 
0

>  <s_epik_input>  (32) 
czFbY0hdW2NIXW5jMU4oQyg9TylOKFtDSDNdKUMyPU8pQzIzW0NIMl1bQ0gyXU4oW0NIMl1bQ0gyXTMpW0NIMl1jNFtjSF1bY0hdW2NIXVtjSF1uNA==

>  <s_epik_cmdline>  (32) 
J2VwaWtfcHl0aG9uJywgJy1waHQnLCAnMi4wJywgJy1waCcsICc3LjAnLCAnLXRuJywgJzgnLCAnLW1hJywgJzIwMCcsICctaW1hZScsICc8aW5maWxlLm1hZT4nLCAnLW9tYWUnLCAnPG91dGZpbGUubWFlPic=

>  <r_lp_tautomer_probability>  (32) 
1

>  <r_epik_Ionization_Penalty>  (32) 
1.03694

>  <r_epik_Ionization_Penalty_Charging>  (32) 
1.03693

>  <r_epik_Ionization_Penalty_Neutral>  (32) 
1.21098e-05

>  <r_epik_State_Penalty>  (32) 
1.08859

>  <r_epik_Charging_Adjusted_Penalty>  (32) 
2.12552

>  <i_epik_Tot_Q>  (32) 
1

>  <i_epik_Tot_abs_Q>  (32) 
1

>  <s_lp_Force_Field>  (32) 
OPLS3e

>  <r_lp_Energy>  (32) 
27.8419

>  <b_lp_Chiralities_Consistent>  (32) 
1

>  <s_lp_Variant>  (32) 
6:0-2

>  <s_i_glide_gridfile>  (32) 
pfpi4k_grid

>  <i_i_glide_lignum>  (32) 
12

>  <i_i_glide_rotatable_bonds>  (32) 
3

>  <r_i_docking_score>  (32) 
-3.2072

>  <r_i_glide_ligand_efficiency>  (32) 
-0.128288

>  <r_i_glide_ligand_efficiency_sa>  (32) 
-0.375116

>  <r_i_glide_ligand_efficiency_ln>  (32) 
-0.760202

>  <r_i_glide_gscore>  (32) 
-3.2072

>  <r_i_glide_lipo>  (32) 
-0.246899

>  <r_i_glide_hbond>  (32) 
-0.0934753

>  <r_i_glide_metal>  (32) 
-0

>  <r_i_glide_rewards>  (32) 
-0.965189

>  <r_i_glide_evdw>  (32) 
-27.372

>  <r_i_glide_ecoul>  (32) 
-4.48069

>  <r_i_glide_erotb>  (32) 
0.447291

>  <r_i_glide_esite>  (32) 
-0.308224

>  <r_i_glide_emodel>  (32) 
-37.9496

>  <r_i_glide_energy>  (32) 
-31.8526

>  <r_i_glide_einternal>  (32) 
0.45781

>  <r_i_glide_intrahb_reward>  (32) 
-0

>  <i_i_glide_confnum>  (32) 
1

>  <i_i_glide_posenum>  (32) 
14

>  <r_i_glide_eff_state_penalty>  (32) 
0

>  <ligand_id>  (32) 
6

>  <original_smiles>  (32) 
CN1C(=O)N(c2nccs2)C2(CCN(Cc3ccccn3)CC2)C1=O

>  <smiles>  (32) 
[H]c1nc(N2C(=O)N(C([H])([H])[H])C(=O)C23C([H])([H])C([H])([H])[N+]([H])(C([H])([H])c2nc([H])c([H])c([H])c2[H])C([H])([H])C3([H])[H])sc1[H]

$$$$
6:1:2
     RDKit          3D

 45 48  0  0  1  0  0  0  0  0999 V2000
   -2.6620    2.9767    3.8251 C   0  0  0  0  0  0  0  0  0  0  0  0
   -1.2136    2.9372    3.5606 N   0  0  0  0  0  0  0  0  0  0  0  0
   -0.4780    4.0621    3.7052 C   0  0  0  0  0  0  0  0  0  0  0  0
   -0.9099    5.2432    3.8018 O   0  0  0  0  0  0  0  0  0  0  0  0
    0.8159    3.6707    3.7229 N   0  0  0  0  0  0  0  0  0  0  0  0
    1.9188    4.5063    3.9491 C   0  0  0  0  0  0  0  0  0  0  0  0
    2.4909    5.1564    2.9544 N   0  0  0  0  0  0  0  0  0  0  0  0
    3.5793    5.8846    3.4145 C   0  0  0  0  0  0  0  0  0  0  0  0
    3.8087    5.7542    4.7570 C   0  0  0  0  0  0  0  0  0  0  0  0
    2.6297    4.7204    5.5147 S   0  0  0  0  0  0  0  0  0  0  0  0
    0.9587    2.2328    3.4249 C   0  0  1  0  0  0  0  0  0  0  0  0
    1.7797    2.0610    2.1085 C   0  0  0  0  0  0  0  0  0  0  0  0
    2.0737    0.5861    1.8127 C   0  0  0  0  0  0  0  0  0  0  0  0
    2.7390   -0.0655    2.9752 N   0  0  2  0  0  0  0  0  0  0  0  0
    3.0652   -1.4735    2.6733 C   0  0  0  0  0  0  0  0  0  0  0  0
    4.1516   -1.6398    1.6269 C   0  0  0  0  0  0  0  0  0  0  0  0
    5.4564   -1.1682    1.8680 C   0  0  0  0  0  0  0  0  0  0  0  0
    6.4368   -1.3946    0.8859 C   0  0  0  0  0  0  0  0  0  0  0  0
    6.0769   -2.0690   -0.2929 C   0  0  0  0  0  0  0  0  0  0  0  0
    4.7430   -2.4915   -0.4425 C   0  0  0  0  0  0  0  0  0  0  0  0
    3.7979   -2.2813    0.4952 N   0  0  0  0  0  0  0  0  0  0  0  0
    1.9225    0.0169    4.2180 C   0  0  0  0  0  0  0  0  0  0  0  0
    1.6394    1.4782    4.5856 C   0  0  0  0  0  0  0  0  0  0  0  0
   -0.5185    1.8179    3.3559 C   0  0  0  0  0  0  0  0  0  0  0  0
   -0.9259    0.6379    3.2171 O   0  0  0  0  0  0  0  0  0  0  0  0
   -2.9197    3.8108    4.5137 H   0  0  0  0  0  0  0  0  0  0  0  0
   -2.8856    2.0426    4.3621 H   0  0  0  0  0  0  0  0  0  0  0  0
   -3.2426    3.0880    2.8919 H   0  0  0  0  0  0  0  0  0  0  0  0
    4.1510    6.4590    2.6955 H   0  0  0  0  0  0  0  0  0  0  0  0
    4.5933    6.1996    5.3517 H   0  0  0  0  0  0  0  0  0  0  0  0
    1.2682    2.5368    1.2704 H   0  0  0  0  0  0  0  0  0  0  0  0
    2.7462    2.5812    2.2134 H   0  0  0  0  0  0  0  0  0  0  0  0
    1.1390    0.0808    1.5740 H   0  0  0  0  0  0  0  0  0  0  0  0
    2.6975    0.5448    0.9179 H   0  0  0  0  0  0  0  0  0  0  0  0
    3.3955   -1.9612    3.5831 H   0  0  0  0  0  0  0  0  0  0  0  0
    2.1469   -1.9658    2.3581 H   0  0  0  0  0  0  0  0  0  0  0  0
    5.7112   -0.6703    2.7898 H   0  0  0  0  0  0  0  0  0  0  0  0
    7.4507   -1.0619    1.0433 H   0  0  0  0  0  0  0  0  0  0  0  0
    6.7990   -2.2708   -1.0642 H   0  0  0  0  0  0  0  0  0  0  0  0
    4.4292   -3.0168   -1.3322 H   0  0  0  0  0  0  0  0  0  0  0  0
    0.9937   -0.5342    4.0511 H   0  0  0  0  0  0  0  0  0  0  0  0
    2.4598   -0.4530    5.0467 H   0  0  0  0  0  0  0  0  0  0  0  0
    2.5720    1.9603    4.8719 H   0  0  0  0  0  0  0  0  0  0  0  0
    1.0063    1.5105    5.4695 H   0  0  0  0  0  0  0  0  0  0  0  0
    3.6042    0.4411    3.1331 H   0  0  0  0  0  0  0  0  0  0  0  0
  1  2  1  0
  1 26  1  0
  1 27  1  0
  1 28  1  0
  2 24  1  0
  2  3  1  0
  3  4  2  0
  3  5  1  0
  5  6  1  0
 11  5  1  1
  6 10  1  0
  6  7  2  0
  7  8  1  0
  8  9  2  0
  8 29  1  0
  9 10  1  0
  9 30  1  0
 11 23  1  0
 11 12  1  0
 11 24  1  0
 12 13  1  0
 12 31  1  0
 12 32  1  0
 13 14  1  0
 13 33  1  0
 13 34  1  0
 14 15  1  0
 14 22  1  0
 14 45  1  1
 15 16  1  0
 15 35  1  0
 15 36  1  0
 16 21  1  0
 16 17  2  0
 17 18  1  0
 17 37  1  0
 18 19  2  0
 18 38  1  0
 19 20  1  0
 19 39  1  0
 20 21  2  0
 20 40  1  0
 22 23  1  0
 22 41  1  0
 22 42  1  0
 23 43  1  0
 23 44  1  0
 24 25  2  0
M  CHG  1  14   1
M  END
>  <i_m_ct_stereo_status>  (33) 
1

>  <s_m_source_file>  (33) 
/var/tmp/pbs.5076255.sched01/tmpr7id634h/0ay6m0hv_.sdf

>  <i_m_source_file_index>  (33) 
12

>  <i_lp_mmshare_version>  (33) 
48012

>  <i_f3d_flags>  (33) 
0

>  <s_epik_input>  (33) 
czFbY0hdW2NIXW5jMU4oQyg9TylOKFtDSDNdKUMyPU8pQzIzW0NIMl1bQ0gyXU4oW0NIMl1bQ0gyXTMpW0NIMl1jNFtjSF1bY0hdW2NIXVtjSF1uNA==

>  <s_epik_cmdline>  (33) 
J2VwaWtfcHl0aG9uJywgJy1waHQnLCAnMi4wJywgJy1waCcsICc3LjAnLCAnLXRuJywgJzgnLCAnLW1hJywgJzIwMCcsICctaW1hZScsICc8aW5maWxlLm1hZT4nLCAnLW9tYWUnLCAnPG91dGZpbGUubWFlPic=

>  <r_lp_tautomer_probability>  (33) 
1

>  <r_epik_Ionization_Penalty>  (33) 
1.03694

>  <r_epik_Ionization_Penalty_Charging>  (33) 
1.03693

>  <r_epik_Ionization_Penalty_Neutral>  (33) 
1.21098e-05

>  <r_epik_State_Penalty>  (33) 
1.08859

>  <r_epik_Charging_Adjusted_Penalty>  (33) 
2.12552

>  <i_epik_Tot_Q>  (33) 
1

>  <i_epik_Tot_abs_Q>  (33) 
1

>  <s_lp_Force_Field>  (33) 
OPLS3e

>  <r_lp_Energy>  (33) 
27.8419

>  <b_lp_Chiralities_Consistent>  (33) 
1

>  <s_lp_Variant>  (33) 
6:0-2

>  <s_i_glide_gridfile>  (33) 
pfpi4k_grid

>  <i_i_glide_lignum>  (33) 
12

>  <i_i_glide_rotatable_bonds>  (33) 
3

>  <r_i_docking_score>  (33) 
-3.10189

>  <r_i_glide_ligand_efficiency>  (33) 
-0.124076

>  <r_i_glide_ligand_efficiency_sa>  (33) 
-0.362799

>  <r_i_glide_ligand_efficiency_ln>  (33) 
-0.735241

>  <r_i_glide_gscore>  (33) 
-3.10189

>  <r_i_glide_lipo>  (33) 
-0.270527

>  <r_i_glide_hbond>  (33) 
-0.119133

>  <r_i_glide_metal>  (33) 
-0

>  <r_i_glide_rewards>  (33) 
-0.965189

>  <r_i_glide_evdw>  (33) 
-26.3737

>  <r_i_glide_ecoul>  (33) 
-4.0098

>  <r_i_glide_erotb>  (33) 
0.447291

>  <r_i_glide_esite>  (33) 
-0.274179

>  <r_i_glide_emodel>  (33) 
-36.1656

>  <r_i_glide_energy>  (33) 
-30.3835

>  <r_i_glide_einternal>  (33) 
0.700118

>  <r_i_glide_intrahb_reward>  (33) 
-0

>  <i_i_glide_confnum>  (33) 
2

>  <i_i_glide_posenum>  (33) 
28

>  <r_i_glide_eff_state_penalty>  (33) 
0

>  <ligand_id>  (33) 
6

>  <original_smiles>  (33) 
CN1C(=O)N(c2nccs2)C2(CCN(Cc3ccccn3)CC2)C1=O

>  <smiles>  (33) 
[H]c1nc(N2C(=O)N(C([H])([H])[H])C(=O)C23C([H])([H])C([H])([H])[N+]([H])(C([H])([H])c2nc([H])c([H])c([H])c2[H])C([H])([H])C3([H])[H])sc1[H]

$$$$
7:0:0
     RDKit          3D

 38 42  0  0  1  0  0  0  0  0999 V2000
    3.6959   -2.4940    5.4702 O   0  0  0  0  0  0  0  0  0  0  0  0
    3.0282   -2.6834    4.4275 C   0  0  0  0  0  0  0  0  0  0  0  0
    1.7987   -2.5120    4.2682 O   0  0  0  0  0  0  0  0  0  0  0  0
    3.8514   -3.1942    3.1934 C   0  0  0  0  0  0  0  0  0  0  0  0
    5.1149   -2.7352    2.9640 C   0  0  0  0  0  0  0  0  0  0  0  0
    5.2832   -1.2621    2.5374 C   0  0  0  0  0  0  0  0  0  0  0  0
    5.2777   -1.0165    0.9864 C   0  0  0  0  0  0  0  0  0  0  0  0
    4.0844   -1.7154    0.2886 C   0  0  1  0  0  0  0  0  0  0  0  0
    3.9429   -1.7860   -1.2173 C   0  0  0  0  0  0  0  0  0  0  0  0
    4.2189   -0.8108   -2.1862 C   0  0  0  0  0  0  0  0  0  0  0  0
    3.8749   -1.0802   -3.5298 C   0  0  0  0  0  0  0  0  0  0  0  0
    3.2693   -2.3081   -3.8811 C   0  0  0  0  0  0  0  0  0  0  0  0
    2.9646   -3.2703   -2.8980 C   0  0  0  0  0  0  0  0  0  0  0  0
    3.3306   -3.0033   -1.5740 C   0  0  0  0  0  0  0  0  0  0  0  0
    3.2074   -3.7908   -0.4144 N   0  0  0  0  0  0  0  0  0  0  0  0
    2.2653   -4.6570    0.0344 C   0  0  0  0  0  0  0  0  0  0  0  0
    1.4113   -5.2320   -0.6377 O   0  0  0  0  0  0  0  0  0  0  0  0
    2.3725   -4.7731    1.5725 C   0  0  0  0  0  0  0  0  0  0  0  0
    3.0521   -3.4299    1.9015 C   0  0  2  0  0  0  0  0  0  0  0  0
    3.9319   -3.2128    0.6648 C   0  0  2  0  0  0  0  0  0  0  0  0
    5.2859   -3.9689    0.7813 C   0  0  0  0  0  0  0  0  0  0  0  0
    5.9875   -3.6091    2.0824 C   0  0  0  0  0  0  0  0  0  0  0  0
    4.5144   -0.6641    3.0250 H   0  0  0  0  0  0  0  0  0  0  0  0
    6.2304   -0.9121    2.9287 H   0  0  0  0  0  0  0  0  0  0  0  0
    5.2381    0.0521    0.7831 H   0  0  0  0  0  0  0  0  0  0  0  0
    6.2151   -1.3621    0.5516 H   0  0  0  0  0  0  0  0  0  0  0  0
    3.1916   -1.1810    0.6106 H   0  0  0  0  0  0  0  0  0  0  0  0
    4.6386    0.1436   -1.8868 H   0  0  0  0  0  0  0  0  0  0  0  0
    4.0588   -0.3339   -4.2906 H   0  0  0  0  0  0  0  0  0  0  0  0
    3.0134   -2.5202   -4.8993 H   0  0  0  0  0  0  0  0  0  0  0  0
    2.4693   -4.1938   -3.1816 H   0  0  0  0  0  0  0  0  0  0  0  0
    1.3949   -4.8509    2.0531 H   0  0  0  0  0  0  0  0  0  0  0  0
    2.9603   -5.6471    1.8548 H   0  0  0  0  0  0  0  0  0  0  0  0
    2.2660   -2.6648    1.8817 H   0  0  0  0  0  0  0  0  0  0  0  0
    5.1231   -5.0510    0.7794 H   0  0  0  0  0  0  0  0  0  0  0  0
    5.9457   -3.7528   -0.0611 H   0  0  0  0  0  0  0  0  0  0  0  0
    6.9561   -3.1413    1.9026 H   0  0  0  0  0  0  0  0  0  0  0  0
    6.1650   -4.5203    2.6435 H   0  0  0  0  0  0  0  0  0  0  0  0
  1  2  2  0
  2  3  1  0
  2  4  1  0
  4 19  1  0
  4  5  2  0
  5 22  1  0
  5  6  1  0
  6  7  1  0
  6 23  1  0
  6 24  1  0
  7  8  1  0
  7 25  1  0
  7 26  1  0
  8 20  1  0
  8  9  1  0
  8 27  1  1
  9 14  2  0
  9 10  1  0
 10 11  2  0
 10 28  1  0
 11 12  1  0
 11 29  1  0
 12 13  2  0
 12 30  1  0
 13 14  1  0
 13 31  1  0
 14 15  1  0
 20 15  1  6
 15 16  1  0
 16 17  2  0
 16 18  1  0
 18 19  1  0
 18 32  1  0
 18 33  1  0
 19 20  1  0
 19 34  1  6
 20 21  1  0
 21 22  1  0
 21 35  1  0
 21 36  1  0
 22 37  1  0
 22 38  1  0
M  CHG  1   3  -1
M  END
>  <i_m_ct_stereo_status>  (34) 
1

>  <s_m_source_file>  (34) 
/var/tmp/pbs.5076255.sched01/tmpr7id634h/0ay6m0hv_.sdf

>  <i_m_source_file_index>  (34) 
13

>  <i_lp_mmshare_version>  (34) 
48012

>  <i_f3d_flags>  (34) 
0

>  <s_epik_input>  (34) 
W0NIMl0xW0NIMl1DKFtDSDJdW0NIMl0yKT1DKEMoPU8pW09IXSlbQ0BASF0zW0NIMl1DKD1PKU40YyhjNVtDQEhdMVtDQEBdMjM0KVtjSF1bY0hdW2NIXVtjSF01

>  <s_epik_cmdline>  (34) 
J2VwaWtfcHl0aG9uJywgJy1waHQnLCAnMi4wJywgJy1waCcsICc3LjAnLCAnLXRuJywgJzgnLCAnLW1hJywgJzIwMCcsICctaW1hZScsICc8aW5maWxlLm1hZT4nLCAnLW9tYWUnLCAnPG91dGZpbGUubWFlPic=

>  <r_epik_Ionization_Penalty>  (34) 
0.01117

>  <r_epik_Ionization_Penalty_Charging>  (34) 
0.0110817

>  <r_epik_Ionization_Penalty_Neutral>  (34) 
8.82819e-05

>  <r_epik_State_Penalty>  (34) 
0.00850951

>  <r_epik_Charging_Adjusted_Penalty>  (34) 
0.0195912

>  <i_epik_Tot_Q>  (34) 
-1

>  <i_epik_Tot_abs_Q>  (34) 
1

>  <s_lp_Force_Field>  (34) 
OPLS3e

>  <r_lp_Energy>  (34) 
88.9609

>  <b_lp_Chiralities_Consistent>  (34) 
1

>  <s_lp_Variant>  (34) 
7:0-1

>  <s_i_glide_gridfile>  (34) 
pfpi4k_grid

>  <i_i_glide_lignum>  (34) 
13

>  <i_i_glide_rotatable_bonds>  (34) 
1

>  <r_i_docking_score>  (34) 
-3.40952

>  <r_i_glide_ligand_efficiency>  (34) 
-0.154978

>  <r_i_glide_ligand_efficiency_sa>  (34) 
-0.434255

>  <r_i_glide_ligand_efficiency_ln>  (34) 
-0.833411

>  <r_i_glide_gscore>  (34) 
-3.40952

>  <r_i_glide_lipo>  (34) 
-0.69887

>  <r_i_glide_hbond>  (34) 
-0.247302

>  <r_i_glide_metal>  (34) 
-0

>  <r_i_glide_rewards>  (34) 
-1.40233

>  <r_i_glide_evdw>  (34) 
-17.3135

>  <r_i_glide_ecoul>  (34) 
-0.827954

>  <r_i_glide_erotb>  (34) 
0

>  <r_i_glide_esite>  (34) 
-0.0711452

>  <r_i_glide_emodel>  (34) 
-23.3543

>  <r_i_glide_energy>  (34) 
-18.1415

>  <r_i_glide_einternal>  (34) 
0.557048

>  <r_i_glide_intrahb_reward>  (34) 
-0

>  <i_i_glide_confnum>  (34) 
1

>  <i_i_glide_posenum>  (34) 
15

>  <r_i_glide_eff_state_penalty>  (34) 
0

>  <ligand_id>  (34) 
7

>  <original_smiles>  (34) 
O=C(O)C1=C2CCC3c4ccccc4N4C(=O)CC1C34CC2

>  <smiles>  (34) 
[H]c1c([H])c([H])c2c(c1[H])N1C(=O)C([H])([H])C3([H])C(C(=O)[O-])=C4C([H])([H])C([H])([H])C2([H])C13C([H])([H])C4([H])[H]

$$$$
7:0:1
     RDKit          3D

 38 42  0  0  1  0  0  0  0  0999 V2000
    1.9576   -2.9002    4.2151 O   0  0  0  0  0  0  0  0  0  0  0  0
    3.1261   -2.6753    4.5977 C   0  0  0  0  0  0  0  0  0  0  0  0
    3.5815   -2.7281    5.7626 O   0  0  0  0  0  0  0  0  0  0  0  0
    4.1739   -2.2867    3.5062 C   0  0  0  0  0  0  0  0  0  0  0  0
    4.3774   -0.9808    3.2027 C   0  0  0  0  0  0  0  0  0  0  0  0
    3.2563   -0.2256    2.4574 C   0  0  0  0  0  0  0  0  0  0  0  0
    3.3423   -0.2949    0.8912 C   0  0  0  0  0  0  0  0  0  0  0  0
    3.5337   -1.7380    0.3612 C   0  0  1  0  0  0  0  0  0  0  0  0
    3.8212   -2.0597   -1.0967 C   0  0  0  0  0  0  0  0  0  0  0  0
    3.2906   -1.4823   -2.2620 C   0  0  0  0  0  0  0  0  0  0  0  0
    3.6135   -2.0618   -3.5118 C   0  0  0  0  0  0  0  0  0  0  0  0
    4.4731   -3.1864   -3.5791 C   0  0  0  0  0  0  0  0  0  0  0  0
    5.0124   -3.7515   -2.4043 C   0  0  0  0  0  0  0  0  0  0  0  0
    4.6708   -3.1682   -1.1717 C   0  0  0  0  0  0  0  0  0  0  0  0
    5.0699   -3.5107    0.1282 N   0  0  0  0  0  0  0  0  0  0  0  0
    5.2687   -4.6841    0.7479 C   0  0  0  0  0  0  0  0  0  0  0  0
    5.5419   -5.7590    0.2213 O   0  0  0  0  0  0  0  0  0  0  0  0
    5.1276   -4.5036    2.2726 C   0  0  0  0  0  0  0  0  0  0  0  0
    4.2296   -3.2493    2.3057 C   0  0  2  0  0  0  0  0  0  0  0  0
    4.6859   -2.4888    1.0547 C   0  0  2  0  0  0  0  0  0  0  0  0
    5.9300   -1.5914    1.3338 C   0  0  0  0  0  0  0  0  0  0  0  0
    5.6923   -0.6572    2.5272 C   0  0  0  0  0  0  0  0  0  0  0  0
    2.2901   -0.5946    2.7942 H   0  0  0  0  0  0  0  0  0  0  0  0
    3.3062    0.8162    2.7533 H   0  0  0  0  0  0  0  0  0  0  0  0
    2.4246    0.1142    0.4754 H   0  0  0  0  0  0  0  0  0  0  0  0
    4.1417    0.3446    0.5204 H   0  0  0  0  0  0  0  0  0  0  0  0
    2.5977   -2.2575    0.5656 H   0  0  0  0  0  0  0  0  0  0  0  0
    2.6079   -0.6525   -2.1926 H   0  0  0  0  0  0  0  0  0  0  0  0
    3.1805   -1.6482   -4.4120 H   0  0  0  0  0  0  0  0  0  0  0  0
    4.7102   -3.6304   -4.5354 H   0  0  0  0  0  0  0  0  0  0  0  0
    5.6597   -4.6091   -2.4464 H   0  0  0  0  0  0  0  0  0  0  0  0
    4.6621   -5.3762    2.7346 H   0  0  0  0  0  0  0  0  0  0  0  0
    6.1081   -4.3448    2.7144 H   0  0  0  0  0  0  0  0  0  0  0  0
    3.2089   -3.6097    2.1462 H   0  0  0  0  0  0  0  0  0  0  0  0
    6.7970   -2.2128    1.5605 H   0  0  0  0  0  0  0  0  0  0  0  0
    6.2017   -1.0030    0.4542 H   0  0  0  0  0  0  0  0  0  0  0  0
    5.7331    0.3935    2.2480 H   0  0  0  0  0  0  0  0  0  0  0  0
    6.4849   -0.8013    3.2522 H   0  0  0  0  0  0  0  0  0  0  0  0
  1  2  2  0
  2  3  1  0
  2  4  1  0
  4 19  1  0
  4  5  2  0
  5 22  1  0
  5  6  1  0
  6  7  1  0
  6 23  1  0
  6 24  1  0
  7  8  1  0
  7 25  1  0
  7 26  1  0
  8 20  1  0
  8  9  1  0
  8 27  1  1
  9 14  2  0
  9 10  1  0
 10 11  2  0
 10 28  1  0
 11 12  1  0
 11 29  1  0
 12 13  2  0
 12 30  1  0
 13 14  1  0
 13 31  1  0
 14 15  1  0
 20 15  1  6
 15 16  1  0
 16 17  2  0
 16 18  1  0
 18 19  1  0
 18 32  1  0
 18 33  1  0
 19 20  1  0
 19 34  1  6
 20 21  1  0
 21 22  1  0
 21 35  1  0
 21 36  1  0
 22 37  1  0
 22 38  1  0
M  CHG  1   3  -1
M  END
>  <i_m_ct_stereo_status>  (35) 
1

>  <s_m_source_file>  (35) 
/var/tmp/pbs.5076255.sched01/tmpr7id634h/0ay6m0hv_.sdf

>  <i_m_source_file_index>  (35) 
13

>  <i_lp_mmshare_version>  (35) 
48012

>  <i_f3d_flags>  (35) 
0

>  <s_epik_input>  (35) 
W0NIMl0xW0NIMl1DKFtDSDJdW0NIMl0yKT1DKEMoPU8pW09IXSlbQ0BASF0zW0NIMl1DKD1PKU40YyhjNVtDQEhdMVtDQEBdMjM0KVtjSF1bY0hdW2NIXVtjSF01

>  <s_epik_cmdline>  (35) 
J2VwaWtfcHl0aG9uJywgJy1waHQnLCAnMi4wJywgJy1waCcsICc3LjAnLCAnLXRuJywgJzgnLCAnLW1hJywgJzIwMCcsICctaW1hZScsICc8aW5maWxlLm1hZT4nLCAnLW9tYWUnLCAnPG91dGZpbGUubWFlPic=

>  <r_epik_Ionization_Penalty>  (35) 
0.01117

>  <r_epik_Ionization_Penalty_Charging>  (35) 
0.0110817

>  <r_epik_Ionization_Penalty_Neutral>  (35) 
8.82819e-05

>  <r_epik_State_Penalty>  (35) 
0.00850951

>  <r_epik_Charging_Adjusted_Penalty>  (35) 
0.0195912

>  <i_epik_Tot_Q>  (35) 
-1

>  <i_epik_Tot_abs_Q>  (35) 
1

>  <s_lp_Force_Field>  (35) 
OPLS3e

>  <r_lp_Energy>  (35) 
88.9609

>  <b_lp_Chiralities_Consistent>  (35) 
1

>  <s_lp_Variant>  (35) 
7:0-1

>  <s_i_glide_gridfile>  (35) 
pfpi4k_grid

>  <i_i_glide_lignum>  (35) 
13

>  <i_i_glide_rotatable_bonds>  (35) 
1

>  <r_i_docking_score>  (35) 
-3.18092

>  <r_i_glide_ligand_efficiency>  (35) 
-0.144587

>  <r_i_glide_ligand_efficiency_sa>  (35) 
-0.405139

>  <r_i_glide_ligand_efficiency_ln>  (35) 
-0.777532

>  <r_i_glide_gscore>  (35) 
-3.18092

>  <r_i_glide_lipo>  (35) 
-0.806375

>  <r_i_glide_hbond>  (35) 
0

>  <r_i_glide_metal>  (35) 
-0

>  <r_i_glide_rewards>  (35) 
-1.544

>  <r_i_glide_evdw>  (35) 
-22.7117

>  <r_i_glide_ecoul>  (35) 
2.03365

>  <r_i_glide_erotb>  (35) 
0

>  <r_i_glide_esite>  (35) 
0

>  <r_i_glide_emodel>  (35) 
-25.7043

>  <r_i_glide_energy>  (35) 
-20.6781

>  <r_i_glide_einternal>  (35) 
0.0144837

>  <r_i_glide_intrahb_reward>  (35) 
-0

>  <i_i_glide_confnum>  (35) 
1

>  <i_i_glide_posenum>  (35) 
19

>  <r_i_glide_eff_state_penalty>  (35) 
0

>  <ligand_id>  (35) 
7

>  <original_smiles>  (35) 
O=C(O)C1=C2CCC3c4ccccc4N4C(=O)CC1C34CC2

>  <smiles>  (35) 
[H]c1c([H])c([H])c2c(c1[H])N1C(=O)C([H])([H])C3([H])C(C(=O)[O-])=C4C([H])([H])C([H])([H])C2([H])C13C([H])([H])C4([H])[H]

$$$$
7:0:2
     RDKit          3D

 38 42  0  0  1  0  0  0  0  0999 V2000
    4.4490    0.1356    6.8574 O   0  0  0  0  0  0  0  0  0  0  0  0
    5.0459    0.9095    6.0750 C   0  0  0  0  0  0  0  0  0  0  0  0
    6.2470    0.8896    5.7284 O   0  0  0  0  0  0  0  0  0  0  0  0
    4.1937    2.0430    5.4301 C   0  0  0  0  0  0  0  0  0  0  0  0
    4.0958    3.2479    6.0476 C   0  0  0  0  0  0  0  0  0  0  0  0
    3.2672    3.3313    7.3481 C   0  0  0  0  0  0  0  0  0  0  0  0
    1.7383    3.6383    7.1455 C   0  0  0  0  0  0  0  0  0  0  0  0
    1.0888    2.7235    6.0804 C   0  0  1  0  0  0  0  0  0  0  0  0
   -0.3281    2.9147    5.5785 C   0  0  0  0  0  0  0  0  0  0  0  0
   -1.4791    3.2755    6.2944 C   0  0  0  0  0  0  0  0  0  0  0  0
   -2.7039    3.2844    5.5907 C   0  0  0  0  0  0  0  0  0  0  0  0
   -2.7709    2.9413    4.2166 C   0  0  0  0  0  0  0  0  0  0  0  0
   -1.6094    2.5795    3.5085 C   0  0  0  0  0  0  0  0  0  0  0  0
   -0.3981    2.5788    4.2198 C   0  0  0  0  0  0  0  0  0  0  0  0
    0.8935    2.3015    3.7640 N   0  0  0  0  0  0  0  0  0  0  0  0
    1.3724    1.3630    2.9383 C   0  0  0  0  0  0  0  0  0  0  0  0
    0.7563    0.7771    2.0545 O   0  0  0  0  0  0  0  0  0  0  0  0
    2.8574    1.1122    3.2500 C   0  0  0  0  0  0  0  0  0  0  0  0
    2.9094    1.5653    4.7258 C   0  0  2  0  0  0  0  0  0  0  0  0
    1.8639    2.6859    4.7475 C   0  0  2  0  0  0  0  0  0  0  0  0
    2.4706    4.0621    4.3259 C   0  0  0  0  0  0  0  0  0  0  0  0
    3.7120    4.4106    5.1577 C   0  0  0  0  0  0  0  0  0  0  0  0
    3.3900    2.4061    7.9068 H   0  0  0  0  0  0  0  0  0  0  0  0
    3.6981    4.1145    7.9639 H   0  0  0  0  0  0  0  0  0  0  0  0
    1.2160    3.5108    8.0907 H   0  0  0  0  0  0  0  0  0  0  0  0
    1.5949    4.6826    6.8741 H   0  0  0  0  0  0  0  0  0  0  0  0
    1.0719    1.7235    6.5136 H   0  0  0  0  0  0  0  0  0  0  0  0
   -1.4267    3.5106    7.3493 H   0  0  0  0  0  0  0  0  0  0  0  0
   -3.6129    3.5439    6.1069 H   0  0  0  0  0  0  0  0  0  0  0  0
   -3.7261    2.9530    3.7106 H   0  0  0  0  0  0  0  0  0  0  0  0
   -1.6497    2.3201    2.4587 H   0  0  0  0  0  0  0  0  0  0  0  0
    3.1306    0.0675    3.1101 H   0  0  0  0  0  0  0  0  0  0  0  0
    3.4375    1.7376    2.5857 H   0  0  0  0  0  0  0  0  0  0  0  0
    2.5369    0.7161    5.3041 H   0  0  0  0  0  0  0  0  0  0  0  0
    2.7583    4.0402    3.2726 H   0  0  0  0  0  0  0  0  0  0  0  0
    1.7281    4.8583    4.4136 H   0  0  0  0  0  0  0  0  0  0  0  0
    3.5876    5.3284    5.7361 H   0  0  0  0  0  0  0  0  0  0  0  0
    4.5464    4.5881    4.4804 H   0  0  0  0  0  0  0  0  0  0  0  0
  1  2  2  0
  2  3  1  0
  2  4  1  0
  4 19  1  0
  4  5  2  0
  5 22  1  0
  5  6  1  0
  6  7  1  0
  6 23  1  0
  6 24  1  0
  7  8  1  0
  7 25  1  0
  7 26  1  0
  8 20  1  0
  8  9  1  0
  8 27  1  1
  9 14  2  0
  9 10  1  0
 10 11  2  0
 10 28  1  0
 11 12  1  0
 11 29  1  0
 12 13  2  0
 12 30  1  0
 13 14  1  0
 13 31  1  0
 14 15  1  0
 20 15  1  6
 15 16  1  0
 16 17  2  0
 16 18  1  0
 18 19  1  0
 18 32  1  0
 18 33  1  0
 19 20  1  0
 19 34  1  1
 20 21  1  0
 21 22  1  0
 21 35  1  0
 21 36  1  0
 22 37  1  0
 22 38  1  0
M  CHG  1   3  -1
M  END
>  <i_m_ct_stereo_status>  (36) 
1

>  <s_m_source_file>  (36) 
/var/tmp/pbs.5076255.sched01/tmpr7id634h/0ay6m0hv_.sdf

>  <i_m_source_file_index>  (36) 
13

>  <i_lp_mmshare_version>  (36) 
48012

>  <i_f3d_flags>  (36) 
0

>  <s_epik_input>  (36) 
W0NIMl0xW0NIMl1DKFtDSDJdW0NIMl0yKT1DKEMoPU8pW09IXSlbQ0BASF0zW0NIMl1DKD1PKU40YyhjNVtDQEhdMVtDQEBdMjM0KVtjSF1bY0hdW2NIXVtjSF01

>  <s_epik_cmdline>  (36) 
J2VwaWtfcHl0aG9uJywgJy1waHQnLCAnMi4wJywgJy1waCcsICc3LjAnLCAnLXRuJywgJzgnLCAnLW1hJywgJzIwMCcsICctaW1hZScsICc8aW5maWxlLm1hZT4nLCAnLW9tYWUnLCAnPG91dGZpbGUubWFlPic=

>  <r_epik_Ionization_Penalty>  (36) 
0.01117

>  <r_epik_Ionization_Penalty_Charging>  (36) 
0.0110817

>  <r_epik_Ionization_Penalty_Neutral>  (36) 
8.82819e-05

>  <r_epik_State_Penalty>  (36) 
0.00850951

>  <r_epik_Charging_Adjusted_Penalty>  (36) 
0.0195912

>  <i_epik_Tot_Q>  (36) 
-1

>  <i_epik_Tot_abs_Q>  (36) 
1

>  <s_lp_Force_Field>  (36) 
OPLS3e

>  <r_lp_Energy>  (36) 
88.9609

>  <b_lp_Chiralities_Consistent>  (36) 
1

>  <s_lp_Variant>  (36) 
7:0-1

>  <s_i_glide_gridfile>  (36) 
pfpi4k_grid

>  <i_i_glide_lignum>  (36) 
13

>  <i_i_glide_rotatable_bonds>  (36) 
1

>  <r_i_docking_score>  (36) 
-2.21561

>  <r_i_glide_ligand_efficiency>  (36) 
-0.10071

>  <r_i_glide_ligand_efficiency_sa>  (36) 
-0.282193

>  <r_i_glide_ligand_efficiency_ln>  (36) 
-0.541577

>  <r_i_glide_gscore>  (36) 
-2.21561

>  <r_i_glide_lipo>  (36) 
-0.0355593

>  <r_i_glide_hbond>  (36) 
0

>  <r_i_glide_metal>  (36) 
-0

>  <r_i_glide_rewards>  (36) 
-1.418

>  <r_i_glide_evdw>  (36) 
-17.0405

>  <r_i_glide_ecoul>  (36) 
0.965608

>  <r_i_glide_erotb>  (36) 
0

>  <r_i_glide_esite>  (36) 
-0.0548722

>  <r_i_glide_emodel>  (36) 
-19.4648

>  <r_i_glide_energy>  (36) 
-16.0749

>  <r_i_glide_einternal>  (36) 
0.0198605

>  <r_i_glide_intrahb_reward>  (36) 
-0

>  <i_i_glide_confnum>  (36) 
1

>  <i_i_glide_posenum>  (36) 
3

>  <r_i_glide_eff_state_penalty>  (36) 
0

>  <ligand_id>  (36) 
7

>  <original_smiles>  (36) 
O=C(O)C1=C2CCC3c4ccccc4N4C(=O)CC1C34CC2

>  <smiles>  (36) 
[H]c1c([H])c([H])c2c(c1[H])N1C(=O)C([H])([H])C3([H])C(C(=O)[O-])=C4C([H])([H])C([H])([H])C2([H])C13C([H])([H])C4([H])[H]

$$$$
8:0:0
     RDKit          3D

 19 20  0  0  1  0  0  0  0  0999 V2000
   -4.2045  -11.1431   -5.6992 C   0  0  0  0  0  0  0  0  0  0  0  0
   -4.6365   -9.7609   -6.1607 C   0  0  0  0  0  0  0  0  0  0  0  0
   -4.9959   -8.7598   -5.3357 C   0  0  0  0  0  0  0  0  0  0  0  0
   -5.4283   -7.3621   -5.7676 C   0  0  2  0  0  0  0  0  0  0  0  0
   -4.6932   -6.3932   -5.0968 O   0  0  0  0  0  0  0  0  0  0  0  0
   -5.5248   -5.2514   -5.0701 C   0  0  2  0  0  0  0  0  0  0  0  0
   -6.5643   -5.2459   -3.9766 C   0  0  0  0  0  0  0  0  0  0  0  0
   -6.9196   -5.7675   -5.3477 C   0  0  2  0  0  0  0  0  0  0  0  0
   -6.7731   -7.1621   -5.4970 O   0  0  0  0  0  0  0  0  0  0  0  0
   -3.9724  -11.7806   -6.5508 H   0  0  0  0  0  0  0  0  0  0  0  0
   -4.9838  -11.6456   -5.1237 H   0  0  0  0  0  0  0  0  0  0  0  0
   -3.3071  -11.0972   -5.0796 H   0  0  0  0  0  0  0  0  0  0  0  0
   -4.6461   -9.6126   -7.2277 H   0  0  0  0  0  0  0  0  0  0  0  0
   -4.9858   -8.9227   -4.2738 H   0  0  0  0  0  0  0  0  0  0  0  0
   -5.2913   -7.2078   -6.8403 H   0  0  0  0  0  0  0  0  0  0  0  0
   -5.1418   -4.3400   -5.5421 H   0  0  0  0  0  0  0  0  0  0  0  0
   -6.4399   -5.9685   -3.1646 H   0  0  0  0  0  0  0  0  0  0  0  0
   -6.9613   -4.2798   -3.6750 H   0  0  0  0  0  0  0  0  0  0  0  0
   -7.6036   -5.2488   -6.0276 H   0  0  0  0  0  0  0  0  0  0  0  0
  1  2  1  0
  1 10  1  0
  1 11  1  0
  1 12  1  0
  2  3  2  3
  2 13  1  0
  3  4  1  0
  3 14  1  0
  4  9  1  0
  4  5  1  0
  4 15  1  6
  5  6  1  0
  6  8  1  0
  6  7  1  0
  6 16  1  6
  7  8  1  0
  7 17  1  0
  7 18  1  0
  8  9  1  0
  8 19  1  6
M  END
>  <i_m_ct_stereo_status>  (37) 
1

>  <s_m_source_file>  (37) 
/var/tmp/pbs.5076255.sched01/tmpr7id634h/0ay6m0hv_.sdf

>  <i_m_source_file_index>  (37) 
15

>  <i_lp_mmshare_version>  (37) 
48012

>  <i_f3d_flags>  (37) 
0

>  <s_epik_input>  (37) 
W0NIM10vW0NIXT1bQ0hdL1tDQEhdKE8xKU9bQ0BIXShbQ0BIXTEyKVtDSDJdMg==

>  <s_epik_cmdline>  (37) 
J2VwaWtfcHl0aG9uJywgJy1waHQnLCAnMi4wJywgJy1waCcsICc3LjAnLCAnLXRuJywgJzgnLCAnLW1hJywgJzIwMCcsICctaW1hZScsICc8aW5maWxlLm1hZT4nLCAnLW9tYWUnLCAnPG91dGZpbGUubWFlPic=

>  <r_lp_tautomer_probability>  (37) 
1

>  <r_epik_Ionization_Penalty>  (37) 
5.72278e-14

>  <r_epik_Ionization_Penalty_Charging>  (37) 
0

>  <r_epik_Ionization_Penalty_Neutral>  (37) 
5.72278e-14

>  <r_epik_State_Penalty>  (37) 
-0

>  <r_epik_Charging_Adjusted_Penalty>  (37) 
0

>  <i_epik_Tot_Q>  (37) 
0

>  <i_epik_Tot_abs_Q>  (37) 
0

>  <s_epik_Chemistry_Notes>  (37) 
This compound contains an acetal/aminal-like group ( X-CH(R)-Y where X, Y are N, S, or O) that may be acid/base labile, releasing an aldehyde.

>  <s_lp_Force_Field>  (37) 
OPLS3e

>  <r_lp_Energy>  (37) 
4.74126

>  <b_lp_Chiralities_Consistent>  (37) 
1

>  <s_lp_Variant>  (37) 
8:0-1

>  <s_i_glide_gridfile>  (37) 
pfpi4k_grid

>  <i_i_glide_lignum>  (37) 
15

>  <i_i_glide_rotatable_bonds>  (37) 
1

>  <r_i_docking_score>  (37) 
-6.34714

>  <r_i_glide_ligand_efficiency>  (37) 
-0.705237

>  <r_i_glide_ligand_efficiency_sa>  (37) 
-1.46695

>  <r_i_glide_ligand_efficiency_ln>  (37) 
-1.9852

>  <r_i_glide_gscore>  (37) 
-6.34714

>  <r_i_glide_lipo>  (37) 
-1.1028

>  <r_i_glide_hbond>  (37) 
-0.32

>  <r_i_glide_metal>  (37) 
-0

>  <r_i_glide_rewards>  (37) 
-3.77316

>  <r_i_glide_evdw>  (37) 
-17.024

>  <r_i_glide_ecoul>  (37) 
-1.99985

>  <r_i_glide_erotb>  (37) 
0

>  <r_i_glide_esite>  (37) 
0

>  <r_i_glide_emodel>  (37) 
-26.4012

>  <r_i_glide_energy>  (37) 
-19.0239

>  <r_i_glide_einternal>  (37) 
0.12167

>  <r_i_glide_intrahb_reward>  (37) 
-0

>  <i_i_glide_confnum>  (37) 
4

>  <i_i_glide_posenum>  (37) 
26

>  <r_i_glide_eff_state_penalty>  (37) 
0

>  <ligand_id>  (37) 
8

>  <original_smiles>  (37) 
CC=CC1OC2CC2O1

>  <smiles>  (37) 
[H]C(=C([H])C1([H])OC2([H])C([H])([H])C2([H])O1)C([H])([H])[H]

$$$$
8:0:1
     RDKit          3D

 19 20  0  0  1  0  0  0  0  0999 V2000
    3.0420    0.5847   -5.1922 C   0  0  0  0  0  0  0  0  0  0  0  0
    3.5747   -0.5223   -4.2979 C   0  0  0  0  0  0  0  0  0  0  0  0
    4.1124   -0.3230   -3.0843 C   0  0  0  0  0  0  0  0  0  0  0  0
    4.6401   -1.4013   -2.1579 C   0  0  2  0  0  0  0  0  0  0  0  0
    4.3568   -2.6536   -2.6505 O   0  0  0  0  0  0  0  0  0  0  0  0
    4.2836   -3.4786   -1.5282 C   0  0  2  0  0  0  0  0  0  0  0  0
    2.9649   -3.4185   -0.7958 C   0  0  0  0  0  0  0  0  0  0  0  0
    4.1147   -2.5486   -0.3439 C   0  0  2  0  0  0  0  0  0  0  0  0
    4.1007   -1.2596   -0.8927 O   0  0  0  0  0  0  0  0  0  0  0  0
    2.6540    0.1378   -6.1027 H   0  0  0  0  0  0  0  0  0  0  0  0
    3.8067    1.3073   -5.4750 H   0  0  0  0  0  0  0  0  0  0  0  0
    2.2200    1.1151   -4.7175 H   0  0  0  0  0  0  0  0  0  0  0  0
    3.4876   -1.5229   -4.6800 H   0  0  0  0  0  0  0  0  0  0  0  0
    4.2009    0.6822   -2.7013 H   0  0  0  0  0  0  0  0  0  0  0  0
    5.7139   -1.3159   -2.0508 H   0  0  0  0  0  0  0  0  0  0  0  0
    4.9504   -4.3434   -1.5042 H   0  0  0  0  0  0  0  0  0  0  0  0
    2.1102   -2.9567   -1.2918 H   0  0  0  0  0  0  0  0  0  0  0  0
    2.7183   -4.2791   -0.1637 H   0  0  0  0  0  0  0  0  0  0  0  0
    4.6739   -2.7004    0.5825 H   0  0  0  0  0  0  0  0  0  0  0  0
  1  2  1  0
  1 10  1  0
  1 11  1  0
  1 12  1  0
  2  3  2  3
  2 13  1  0
  3  4  1  0
  3 14  1  0
  4  9  1  0
  4  5  1  0
  4 15  1  1
  5  6  1  0
  6  8  1  0
  6  7  1  0
  6 16  1  1
  7  8  1  0
  7 17  1  0
  7 18  1  0
  8  9  1  0
  8 19  1  1
M  END
>  <i_m_ct_stereo_status>  (38) 
1

>  <s_m_source_file>  (38) 
/var/tmp/pbs.5076255.sched01/tmpr7id634h/0ay6m0hv_.sdf

>  <i_m_source_file_index>  (38) 
15

>  <i_lp_mmshare_version>  (38) 
48012

>  <i_f3d_flags>  (38) 
0

>  <s_epik_input>  (38) 
W0NIM10vW0NIXT1bQ0hdL1tDQEhdKE8xKU9bQ0BIXShbQ0BIXTEyKVtDSDJdMg==

>  <s_epik_cmdline>  (38) 
J2VwaWtfcHl0aG9uJywgJy1waHQnLCAnMi4wJywgJy1waCcsICc3LjAnLCAnLXRuJywgJzgnLCAnLW1hJywgJzIwMCcsICctaW1hZScsICc8aW5maWxlLm1hZT4nLCAnLW9tYWUnLCAnPG91dGZpbGUubWFlPic=

>  <r_lp_tautomer_probability>  (38) 
1

>  <r_epik_Ionization_Penalty>  (38) 
5.72278e-14

>  <r_epik_Ionization_Penalty_Charging>  (38) 
0

>  <r_epik_Ionization_Penalty_Neutral>  (38) 
5.72278e-14

>  <r_epik_State_Penalty>  (38) 
-0

>  <r_epik_Charging_Adjusted_Penalty>  (38) 
0

>  <i_epik_Tot_Q>  (38) 
0

>  <i_epik_Tot_abs_Q>  (38) 
0

>  <s_epik_Chemistry_Notes>  (38) 
This compound contains an acetal/aminal-like group ( X-CH(R)-Y where X, Y are N, S, or O) that may be acid/base labile, releasing an aldehyde.

>  <s_lp_Force_Field>  (38) 
OPLS3e

>  <r_lp_Energy>  (38) 
4.74126

>  <b_lp_Chiralities_Consistent>  (38) 
1

>  <s_lp_Variant>  (38) 
8:0-1

>  <s_i_glide_gridfile>  (38) 
pfpi4k_grid

>  <i_i_glide_lignum>  (38) 
15

>  <i_i_glide_rotatable_bonds>  (38) 
1

>  <r_i_docking_score>  (38) 
-3.77326

>  <r_i_glide_ligand_efficiency>  (38) 
-0.419251

>  <r_i_glide_ligand_efficiency_sa>  (38) 
-0.872078

>  <r_i_glide_ligand_efficiency_ln>  (38) 
-1.18017

>  <r_i_glide_gscore>  (38) 
-3.77326

>  <r_i_glide_lipo>  (38) 
-0.687823

>  <r_i_glide_hbond>  (38) 
0

>  <r_i_glide_metal>  (38) 
-0

>  <r_i_glide_rewards>  (38) 
-2.29167

>  <r_i_glide_evdw>  (38) 
-16.6796

>  <r_i_glide_ecoul>  (38) 
0.548553

>  <r_i_glide_erotb>  (38) 
0

>  <r_i_glide_esite>  (38) 
-0.0420749

>  <r_i_glide_emodel>  (38) 
-20.0668

>  <r_i_glide_energy>  (38) 
-16.131

>  <r_i_glide_einternal>  (38) 
0.924518

>  <r_i_glide_intrahb_reward>  (38) 
-0

>  <i_i_glide_confnum>  (38) 
2

>  <i_i_glide_posenum>  (38) 
35

>  <r_i_glide_eff_state_penalty>  (38) 
0

>  <ligand_id>  (38) 
8

>  <original_smiles>  (38) 
CC=CC1OC2CC2O1

>  <smiles>  (38) 
[H]C(=C([H])C1([H])OC2([H])C([H])([H])C2([H])O1)C([H])([H])[H]

$$$$
8:0:2
     RDKit          3D

 19 20  0  0  1  0  0  0  0  0999 V2000
    3.6447    0.8111   -4.7282 C   0  0  0  0  0  0  0  0  0  0  0  0
    3.4763   -0.6607   -4.4762 C   0  0  0  0  0  0  0  0  0  0  0  0
    2.8471   -1.1951   -3.4242 C   0  0  0  0  0  0  0  0  0  0  0  0
    2.7605   -2.6818   -3.1551 C   0  0  2  0  0  0  0  0  0  0  0  0
    3.0272   -2.9575   -1.8263 O   0  0  0  0  0  0  0  0  0  0  0  0
    4.3575   -3.4248   -1.7305 C   0  0  2  0  0  0  0  0  0  0  0  0
    5.4503   -2.5825   -2.3425 C   0  0  0  0  0  0  0  0  0  0  0  0
    4.7888   -3.6888   -3.1337 C   0  0  2  0  0  0  0  0  0  0  0  0
    3.6669   -3.3849   -3.9399 O   0  0  0  0  0  0  0  0  0  0  0  0
    4.2028    0.9573   -5.6539 H   0  0  0  0  0  0  0  0  0  0  0  0
    4.2060    1.2709   -3.9096 H   0  0  0  0  0  0  0  0  0  0  0  0
    2.6752    1.3151   -4.8151 H   0  0  0  0  0  0  0  0  0  0  0  0
    3.9166   -1.3107   -5.2134 H   0  0  0  0  0  0  0  0  0  0  0  0
    2.3896   -0.5571   -2.6839 H   0  0  0  0  0  0  0  0  0  0  0  0
    1.7471   -3.0137   -3.3855 H   0  0  0  0  0  0  0  0  0  0  0  0
    4.5598   -4.1332   -0.9232 H   0  0  0  0  0  0  0  0  0  0  0  0
    5.2496   -1.5394   -2.5942 H   0  0  0  0  0  0  0  0  0  0  0  0
    6.4709   -2.7622   -2.0075 H   0  0  0  0  0  0  0  0  0  0  0  0
    5.3132   -4.6090   -3.3949 H   0  0  0  0  0  0  0  0  0  0  0  0
  1  2  1  0
  1 10  1  0
  1 11  1  0
  1 12  1  0
  2  3  2  3
  2 13  1  0
  3  4  1  0
  3 14  1  0
  4  9  1  0
  4  5  1  0
  4 15  1  6
  5  6  1  0
  6  8  1  0
  6  7  1  0
  6 16  1  1
  7  8  1  0
  7 17  1  0
  7 18  1  0
  8  9  1  0
  8 19  1  1
M  END
>  <i_m_ct_stereo_status>  (39) 
1

>  <s_m_source_file>  (39) 
/var/tmp/pbs.5076255.sched01/tmpr7id634h/0ay6m0hv_.sdf

>  <i_m_source_file_index>  (39) 
15

>  <i_lp_mmshare_version>  (39) 
48012

>  <i_f3d_flags>  (39) 
0

>  <s_epik_input>  (39) 
W0NIM10vW0NIXT1bQ0hdL1tDQEhdKE8xKU9bQ0BIXShbQ0BIXTEyKVtDSDJdMg==

>  <s_epik_cmdline>  (39) 
J2VwaWtfcHl0aG9uJywgJy1waHQnLCAnMi4wJywgJy1waCcsICc3LjAnLCAnLXRuJywgJzgnLCAnLW1hJywgJzIwMCcsICctaW1hZScsICc8aW5maWxlLm1hZT4nLCAnLW9tYWUnLCAnPG91dGZpbGUubWFlPic=

>  <r_lp_tautomer_probability>  (39) 
1

>  <r_epik_Ionization_Penalty>  (39) 
5.72278e-14

>  <r_epik_Ionization_Penalty_Charging>  (39) 
0

>  <r_epik_Ionization_Penalty_Neutral>  (39) 
5.72278e-14

>  <r_epik_State_Penalty>  (39) 
-0

>  <r_epik_Charging_Adjusted_Penalty>  (39) 
0

>  <i_epik_Tot_Q>  (39) 
0

>  <i_epik_Tot_abs_Q>  (39) 
0

>  <s_epik_Chemistry_Notes>  (39) 
This compound contains an acetal/aminal-like group ( X-CH(R)-Y where X, Y are N, S, or O) that may be acid/base labile, releasing an aldehyde.

>  <s_lp_Force_Field>  (39) 
OPLS3e

>  <r_lp_Energy>  (39) 
4.74126

>  <b_lp_Chiralities_Consistent>  (39) 
1

>  <s_lp_Variant>  (39) 
8:0-1

>  <s_i_glide_gridfile>  (39) 
pfpi4k_grid

>  <i_i_glide_lignum>  (39) 
15

>  <i_i_glide_rotatable_bonds>  (39) 
1

>  <r_i_docking_score>  (39) 
-3.6727

>  <r_i_glide_ligand_efficiency>  (39) 
-0.408078

>  <r_i_glide_ligand_efficiency_sa>  (39) 
-0.848837

>  <r_i_glide_ligand_efficiency_ln>  (39) 
-1.14872

>  <r_i_glide_gscore>  (39) 
-3.6727

>  <r_i_glide_lipo>  (39) 
-0.448519

>  <r_i_glide_hbond>  (39) 
0

>  <r_i_glide_metal>  (39) 
-0

>  <r_i_glide_rewards>  (39) 
-2.3713

>  <r_i_glide_evdw>  (39) 
-17.883

>  <r_i_glide_ecoul>  (39) 
0.275104

>  <r_i_glide_erotb>  (39) 
0

>  <r_i_glide_esite>  (39) 
0

>  <r_i_glide_emodel>  (39) 
-20.9928

>  <r_i_glide_energy>  (39) 
-17.6079

>  <r_i_glide_einternal>  (39) 
1.27

>  <r_i_glide_intrahb_reward>  (39) 
-0

>  <i_i_glide_confnum>  (39) 
3

>  <i_i_glide_posenum>  (39) 
2

>  <r_i_glide_eff_state_penalty>  (39) 
0

>  <ligand_id>  (39) 
8

>  <original_smiles>  (39) 
CC=CC1OC2CC2O1

>  <smiles>  (39) 
[H]C(=C([H])C1([H])OC2([H])C([H])([H])C2([H])O1)C([H])([H])[H]

$$$$
8:1:0
     RDKit          3D

 19 20  0  0  1  0  0  0  0  0999 V2000
   -4.9968  -10.2762   -6.9761 C   0  0  0  0  0  0  0  0  0  0  0  0
   -4.7509   -9.8914   -5.5315 C   0  0  0  0  0  0  0  0  0  0  0  0
   -4.9220   -8.6897   -4.9354 C   0  0  0  0  0  0  0  0  0  0  0  0
   -5.3883   -7.3813   -5.5607 C   0  0  2  0  0  0  0  0  0  0  0  0
   -4.6808   -6.3055   -5.0387 O   0  0  0  0  0  0  0  0  0  0  0  0
   -5.5500   -5.1862   -5.1257 C   0  0  2  0  0  0  0  0  0  0  0  0
   -6.5952   -5.0567   -4.0361 C   0  0  0  0  0  0  0  0  0  0  0  0
   -6.9294   -5.7814   -5.3275 C   0  0  2  0  0  0  0  0  0  0  0  0
   -6.7384   -7.1772   -5.3061 O   0  0  0  0  0  0  0  0  0  0  0  0
   -4.0972  -10.7390   -7.3873 H   0  0  0  0  0  0  0  0  0  0  0  0
   -5.2671   -9.4273   -7.6037 H   0  0  0  0  0  0  0  0  0  0  0  0
   -5.7962  -11.0175   -7.0359 H   0  0  0  0  0  0  0  0  0  0  0  0
   -4.4094  -10.6989   -4.9051 H   0  0  0  0  0  0  0  0  0  0  0  0
   -4.7025   -8.6358   -3.8823 H   0  0  0  0  0  0  0  0  0  0  0  0
   -5.2335   -7.3863   -6.6428 H   0  0  0  0  0  0  0  0  0  0  0  0
   -5.2304   -4.3364   -5.7307 H   0  0  0  0  0  0  0  0  0  0  0  0
   -6.4750   -5.6414   -3.1314 H   0  0  0  0  0  0  0  0  0  0  0  0
   -7.0331   -4.0624   -3.8973 H   0  0  0  0  0  0  0  0  0  0  0  0
   -7.6166   -5.3642   -6.0649 H   0  0  0  0  0  0  0  0  0  0  0  0
  1  2  1  0
  1 10  1  0
  1 11  1  0
  1 12  1  0
  2  3  2  3
  2 13  1  0
  3  4  1  0
  3 14  1  0
  4  9  1  0
  4  5  1  0
  4 15  1  6
  5  6  1  0
  6  8  1  0
  6  7  1  0
  6 16  1  6
  7  8  1  0
  7 17  1  0
  7 18  1  0
  8  9  1  0
  8 19  1  6
M  END
>  <i_m_ct_stereo_status>  (40) 
1

>  <s_m_source_file>  (40) 
/var/tmp/pbs.5076255.sched01/tmpr7id634h/0ay6m0hv_.sdf

>  <i_m_source_file_index>  (40) 
16

>  <i_lp_mmshare_version>  (40) 
48012

>  <i_f3d_flags>  (40) 
0

>  <s_epik_input>  (40) 
W0NIM10vW0NIXT1bQ0hdL1tDQEhdKE8xKU9bQ0BIXShbQ0BIXTEyKVtDSDJdMg==

>  <s_epik_cmdline>  (40) 
J2VwaWtfcHl0aG9uJywgJy1waHQnLCAnMi4wJywgJy1waCcsICc3LjAnLCAnLXRuJywgJzgnLCAnLW1hJywgJzIwMCcsICctaW1hZScsICc8aW5maWxlLm1hZT4nLCAnLW9tYWUnLCAnPG91dGZpbGUubWFlPic=

>  <r_lp_tautomer_probability>  (40) 
1

>  <r_epik_Ionization_Penalty>  (40) 
5.72278e-14

>  <r_epik_Ionization_Penalty_Charging>  (40) 
0

>  <r_epik_Ionization_Penalty_Neutral>  (40) 
5.72278e-14

>  <r_epik_State_Penalty>  (40) 
-0

>  <r_epik_Charging_Adjusted_Penalty>  (40) 
0

>  <i_epik_Tot_Q>  (40) 
0

>  <i_epik_Tot_abs_Q>  (40) 
0

>  <s_epik_Chemistry_Notes>  (40) 
This compound contains an acetal/aminal-like group ( X-CH(R)-Y where X, Y are N, S, or O) that may be acid/base labile, releasing an aldehyde.

>  <s_lp_Force_Field>  (40) 
OPLS3e

>  <r_lp_Energy>  (40) 
2.93022

>  <b_lp_Chiralities_Consistent>  (40) 
1

>  <s_lp_Variant>  (40) 
8:0-2

>  <s_i_glide_gridfile>  (40) 
pfpi4k_grid

>  <i_i_glide_lignum>  (40) 
16

>  <i_i_glide_rotatable_bonds>  (40) 
1

>  <r_i_docking_score>  (40) 
-6.63729

>  <r_i_glide_ligand_efficiency>  (40) 
-0.737477

>  <r_i_glide_ligand_efficiency_sa>  (40) 
-1.53401

>  <r_i_glide_ligand_efficiency_ln>  (40) 
-2.07595

>  <r_i_glide_gscore>  (40) 
-6.63729

>  <r_i_glide_lipo>  (40) 
-1.23551

>  <r_i_glide_hbond>  (40) 
-0.32

>  <r_i_glide_metal>  (40) 
-0

>  <r_i_glide_rewards>  (40) 
-3.76131

>  <r_i_glide_evdw>  (40) 
-17.0024

>  <r_i_glide_ecoul>  (40) 
-3.13567

>  <r_i_glide_erotb>  (40) 
0

>  <r_i_glide_esite>  (40) 
0

>  <r_i_glide_emodel>  (40) 
-28.0069

>  <r_i_glide_energy>  (40) 
-20.1381

>  <r_i_glide_einternal>  (40) 
0.791281

>  <r_i_glide_intrahb_reward>  (40) 
-0

>  <i_i_glide_confnum>  (40) 
4

>  <i_i_glide_posenum>  (40) 
21

>  <r_i_glide_eff_state_penalty>  (40) 
0

>  <ligand_id>  (40) 
8

>  <original_smiles>  (40) 
CC=CC1OC2CC2O1

>  <smiles>  (40) 
[H]C(=C([H])C1([H])OC2([H])C([H])([H])C2([H])O1)C([H])([H])[H]

$$$$
8:1:1
     RDKit          3D

 19 20  0  0  1  0  0  0  0  0999 V2000
    3.3868    0.5283   -5.4414 C   0  0  0  0  0  0  0  0  0  0  0  0
    3.8190    0.4890   -3.9961 C   0  0  0  0  0  0  0  0  0  0  0  0
    3.9840   -0.5602   -3.1819 C   0  0  0  0  0  0  0  0  0  0  0  0
    3.7753   -2.0379   -3.4672 C   0  0  2  0  0  0  0  0  0  0  0  0
    2.6105   -2.4875   -2.8939 O   0  0  0  0  0  0  0  0  0  0  0  0
    2.9244   -3.2402   -1.7517 C   0  0  2  0  0  0  0  0  0  0  0  0
    3.8032   -2.6135   -0.6841 C   0  0  0  0  0  0  0  0  0  0  0  0
    4.4148   -3.4299   -1.8153 C   0  0  2  0  0  0  0  0  0  0  0  0
    4.8363   -2.7557   -2.9754 O   0  0  0  0  0  0  0  0  0  0  0  0
    2.5219    1.1929   -5.5429 H   0  0  0  0  0  0  0  0  0  0  0  0
    3.1365   -0.4515   -5.8506 H   0  0  0  0  0  0  0  0  0  0  0  0
    4.2113    0.9437   -6.0094 H   0  0  0  0  0  0  0  0  0  0  0  0
    4.0462    1.4437   -3.5625 H   0  0  0  0  0  0  0  0  0  0  0  0
    4.3144   -0.2676   -2.2018 H   0  0  0  0  0  0  0  0  0  0  0  0
    3.6960   -2.2729   -4.5278 H   0  0  0  0  0  0  0  0  0  0  0  0
    2.2371   -4.0597   -1.5379 H   0  0  0  0  0  0  0  0  0  0  0  0
    3.8930   -1.5329   -0.6388 H   0  0  0  0  0  0  0  0  0  0  0  0
    3.7775   -3.0887    0.2957 H   0  0  0  0  0  0  0  0  0  0  0  0
    4.8809   -4.4041   -1.6534 H   0  0  0  0  0  0  0  0  0  0  0  0
  1  2  1  0
  1 10  1  0
  1 11  1  0
  1 12  1  0
  2  3  2  3
  2 13  1  0
  3  4  1  0
  3 14  1  0
  4  9  1  0
  4  5  1  0
  4 15  1  6
  5  6  1  0
  6  8  1  0
  6  7  1  0
  6 16  1  1
  7  8  1  0
  7 17  1  0
  7 18  1  0
  8  9  1  0
  8 19  1  1
M  END
>  <i_m_ct_stereo_status>  (41) 
1

>  <s_m_source_file>  (41) 
/var/tmp/pbs.5076255.sched01/tmpr7id634h/0ay6m0hv_.sdf

>  <i_m_source_file_index>  (41) 
16

>  <i_lp_mmshare_version>  (41) 
48012

>  <i_f3d_flags>  (41) 
0

>  <s_epik_input>  (41) 
W0NIM10vW0NIXT1bQ0hdL1tDQEhdKE8xKU9bQ0BIXShbQ0BIXTEyKVtDSDJdMg==

>  <s_epik_cmdline>  (41) 
J2VwaWtfcHl0aG9uJywgJy1waHQnLCAnMi4wJywgJy1waCcsICc3LjAnLCAnLXRuJywgJzgnLCAnLW1hJywgJzIwMCcsICctaW1hZScsICc8aW5maWxlLm1hZT4nLCAnLW9tYWUnLCAnPG91dGZpbGUubWFlPic=

>  <r_lp_tautomer_probability>  (41) 
1

>  <r_epik_Ionization_Penalty>  (41) 
5.72278e-14

>  <r_epik_Ionization_Penalty_Charging>  (41) 
0

>  <r_epik_Ionization_Penalty_Neutral>  (41) 
5.72278e-14

>  <r_epik_State_Penalty>  (41) 
-0

>  <r_epik_Charging_Adjusted_Penalty>  (41) 
0

>  <i_epik_Tot_Q>  (41) 
0

>  <i_epik_Tot_abs_Q>  (41) 
0

>  <s_epik_Chemistry_Notes>  (41) 
This compound contains an acetal/aminal-like group ( X-CH(R)-Y where X, Y are N, S, or O) that may be acid/base labile, releasing an aldehyde.

>  <s_lp_Force_Field>  (41) 
OPLS3e

>  <r_lp_Energy>  (41) 
2.93022

>  <b_lp_Chiralities_Consistent>  (41) 
1

>  <s_lp_Variant>  (41) 
8:0-2

>  <s_i_glide_gridfile>  (41) 
pfpi4k_grid

>  <i_i_glide_lignum>  (41) 
16

>  <i_i_glide_rotatable_bonds>  (41) 
1

>  <r_i_docking_score>  (41) 
-3.92261

>  <r_i_glide_ligand_efficiency>  (41) 
-0.435846

>  <r_i_glide_ligand_efficiency_sa>  (41) 
-0.906596

>  <r_i_glide_ligand_efficiency_ln>  (41) 
-1.22688

>  <r_i_glide_gscore>  (41) 
-3.92261

>  <r_i_glide_lipo>  (41) 
-0.493304

>  <r_i_glide_hbond>  (41) 
0

>  <r_i_glide_metal>  (41) 
-0

>  <r_i_glide_rewards>  (41) 
-2.55915

>  <r_i_glide_evdw>  (41) 
-17.2933

>  <r_i_glide_ecoul>  (41) 
-0.0366363

>  <r_i_glide_erotb>  (41) 
0

>  <r_i_glide_esite>  (41) 
0

>  <r_i_glide_emodel>  (41) 
-21.6392

>  <r_i_glide_energy>  (41) 
-17.3299

>  <r_i_glide_einternal>  (41) 
0.281289

>  <r_i_glide_intrahb_reward>  (41) 
-0

>  <i_i_glide_confnum>  (41) 
1

>  <i_i_glide_posenum>  (41) 
3

>  <r_i_glide_eff_state_penalty>  (41) 
0

>  <ligand_id>  (41) 
8

>  <original_smiles>  (41) 
CC=CC1OC2CC2O1

>  <smiles>  (41) 
[H]C(=C([H])C1([H])OC2([H])C([H])([H])C2([H])O1)C([H])([H])[H]

$$$$
8:1:2
     RDKit          3D

 19 20  0  0  1  0  0  0  0  0999 V2000
    3.4259    0.8288   -5.1713 C   0  0  0  0  0  0  0  0  0  0  0  0
    2.5994   -0.3370   -4.6835 C   0  0  0  0  0  0  0  0  0  0  0  0
    2.9371   -1.3272   -3.8242 C   0  0  0  0  0  0  0  0  0  0  0  0
    4.2537   -1.5445   -3.1210 C   0  0  2  0  0  0  0  0  0  0  0  0
    4.7693   -2.7926   -3.4227 O   0  0  0  0  0  0  0  0  0  0  0  0
    5.5748   -3.1711   -2.3235 C   0  0  2  0  0  0  0  0  0  0  0  0
    4.8290   -3.7637   -1.1456 C   0  0  0  0  0  0  0  0  0  0  0  0
    5.1257   -2.2805   -1.1917 C   0  0  2  0  0  0  0  0  0  0  0  0
    4.1045   -1.4814   -1.7508 O   0  0  0  0  0  0  0  0  0  0  0  0
    3.4219    0.8299   -6.2613 H   0  0  0  0  0  0  0  0  0  0  0  0
    4.4621    0.7972   -4.8305 H   0  0  0  0  0  0  0  0  0  0  0  0
    2.9908    1.7708   -4.8445 H   0  0  0  0  0  0  0  0  0  0  0  0
    1.6028   -0.3431   -5.1086 H   0  0  0  0  0  0  0  0  0  0  0  0
    2.1785   -2.0648   -3.6059 H   0  0  0  0  0  0  0  0  0  0  0  0
    4.9884   -0.8088   -3.3969 H   0  0  0  0  0  0  0  0  0  0  0  0
    6.6330   -3.3606   -2.5032 H   0  0  0  0  0  0  0  0  0  0  0  0
    3.8045   -4.0914   -1.2931 H   0  0  0  0  0  0  0  0  0  0  0  0
    5.4096   -4.3599   -0.4397 H   0  0  0  0  0  0  0  0  0  0  0  0
    5.8475   -1.8060   -0.5280 H   0  0  0  0  0  0  0  0  0  0  0  0
  1  2  1  0
  1 10  1  0
  1 11  1  0
  1 12  1  0
  2  3  2  3
  2 13  1  0
  3  4  1  0
  3 14  1  0
  4  9  1  0
  4  5  1  0
  4 15  1  6
  5  6  1  0
  6  8  1  0
  6  7  1  0
  6 16  1  6
  7  8  1  0
  7 17  1  0
  7 18  1  0
  8  9  1  0
  8 19  1  1
M  END
>  <i_m_ct_stereo_status>  (42) 
1

>  <s_m_source_file>  (42) 
/var/tmp/pbs.5076255.sched01/tmpr7id634h/0ay6m0hv_.sdf

>  <i_m_source_file_index>  (42) 
16

>  <i_lp_mmshare_version>  (42) 
48012

>  <i_f3d_flags>  (42) 
0

>  <s_epik_input>  (42) 
W0NIM10vW0NIXT1bQ0hdL1tDQEhdKE8xKU9bQ0BIXShbQ0BIXTEyKVtDSDJdMg==

>  <s_epik_cmdline>  (42) 
J2VwaWtfcHl0aG9uJywgJy1waHQnLCAnMi4wJywgJy1waCcsICc3LjAnLCAnLXRuJywgJzgnLCAnLW1hJywgJzIwMCcsICctaW1hZScsICc8aW5maWxlLm1hZT4nLCAnLW9tYWUnLCAnPG91dGZpbGUubWFlPic=

>  <r_lp_tautomer_probability>  (42) 
1

>  <r_epik_Ionization_Penalty>  (42) 
5.72278e-14

>  <r_epik_Ionization_Penalty_Charging>  (42) 
0

>  <r_epik_Ionization_Penalty_Neutral>  (42) 
5.72278e-14

>  <r_epik_State_Penalty>  (42) 
-0

>  <r_epik_Charging_Adjusted_Penalty>  (42) 
0

>  <i_epik_Tot_Q>  (42) 
0

>  <i_epik_Tot_abs_Q>  (42) 
0

>  <s_epik_Chemistry_Notes>  (42) 
This compound contains an acetal/aminal-like group ( X-CH(R)-Y where X, Y are N, S, or O) that may be acid/base labile, releasing an aldehyde.

>  <s_lp_Force_Field>  (42) 
OPLS3e

>  <r_lp_Energy>  (42) 
2.93022

>  <b_lp_Chiralities_Consistent>  (42) 
1

>  <s_lp_Variant>  (42) 
8:0-2

>  <s_i_glide_gridfile>  (42) 
pfpi4k_grid

>  <i_i_glide_lignum>  (42) 
16

>  <i_i_glide_rotatable_bonds>  (42) 
1

>  <r_i_docking_score>  (42) 
-3.71766

>  <r_i_glide_ligand_efficiency>  (42) 
-0.413073

>  <r_i_glide_ligand_efficiency_sa>  (42) 
-0.859226

>  <r_i_glide_ligand_efficiency_ln>  (42) 
-1.16278

>  <r_i_glide_gscore>  (42) 
-3.71766

>  <r_i_glide_lipo>  (42) 
-0.563642

>  <r_i_glide_hbond>  (42) 
0

>  <r_i_glide_metal>  (42) 
-0

>  <r_i_glide_rewards>  (42) 
-2.32361

>  <r_i_glide_evdw>  (42) 
-17.1164

>  <r_i_glide_ecoul>  (42) 
0.169447

>  <r_i_glide_erotb>  (42) 
0

>  <r_i_glide_esite>  (42) 
0

>  <r_i_glide_emodel>  (42) 
-21.5624

>  <r_i_glide_energy>  (42) 
-16.9469

>  <r_i_glide_einternal>  (42) 
0.0185369

>  <r_i_glide_intrahb_reward>  (42) 
-0

>  <i_i_glide_confnum>  (42) 
4

>  <i_i_glide_posenum>  (42) 
29

>  <r_i_glide_eff_state_penalty>  (42) 
0

>  <ligand_id>  (42) 
8

>  <original_smiles>  (42) 
CC=CC1OC2CC2O1

>  <smiles>  (42) 
[H]C(=C([H])C1([H])OC2([H])C([H])([H])C2([H])O1)C([H])([H])[H]

$$$$
8:2:0
     RDKit          3D

 19 20  0  0  1  0  0  0  0  0999 V2000
   -4.8841  -11.4165   -6.0024 C   0  0  0  0  0  0  0  0  0  0  0  0
   -5.0126   -9.9439   -5.6362 C   0  0  0  0  0  0  0  0  0  0  0  0
   -5.5286   -9.0003   -6.4295 C   0  0  0  0  0  0  0  0  0  0  0  0
   -5.6526   -7.5293   -6.0914 C   0  0  1  0  0  0  0  0  0  0  0  0
   -6.8952   -7.0053   -6.3951 O   0  0  0  0  0  0  0  0  0  0  0  0
   -7.2078   -6.0103   -5.4333 C   0  0  2  0  0  0  0  0  0  0  0  0
   -6.2085   -4.8955   -5.1797 C   0  0  0  0  0  0  0  0  0  0  0  0
   -6.1736   -6.1691   -4.3619 C   0  0  2  0  0  0  0  0  0  0  0  0
   -5.3125   -7.2094   -4.7907 O   0  0  0  0  0  0  0  0  0  0  0  0
   -4.4545  -11.9579   -5.1577 H   0  0  0  0  0  0  0  0  0  0  0  0
   -4.2300  -11.5781   -6.8638 H   0  0  0  0  0  0  0  0  0  0  0  0
   -5.8576  -11.8653   -6.2144 H   0  0  0  0  0  0  0  0  0  0  0  0
   -4.6507   -9.6791   -4.6496 H   0  0  0  0  0  0  0  0  0  0  0  0
   -5.8825   -9.2731   -7.4099 H   0  0  0  0  0  0  0  0  0  0  0  0
   -4.9220   -7.0599   -6.7213 H   0  0  0  0  0  0  0  0  0  0  0  0
   -8.2632   -5.8946   -5.1892 H   0  0  0  0  0  0  0  0  0  0  0  0
   -5.4130   -4.7111   -5.9055 H   0  0  0  0  0  0  0  0  0  0  0  0
   -6.5750   -4.0005   -4.6934 H   0  0  0  0  0  0  0  0  0  0  0  0
   -6.4245   -6.1678   -3.3034 H   0  0  0  0  0  0  0  0  0  0  0  0
  1  2  1  0
  1 10  1  0
  1 11  1  0
  1 12  1  0
  2  3  2  3
  2 13  1  0
  3  4  1  0
  3 14  1  0
  4  9  1  0
  4  5  1  0
  4 15  1  6
  5  6  1  0
  6  8  1  0
  6  7  1  0
  6 16  1  1
  7  8  1  0
  7 17  1  0
  7 18  1  0
  8  9  1  0
  8 19  1  1
M  END
>  <i_m_ct_stereo_status>  (43) 
1

>  <s_m_source_file>  (43) 
/var/tmp/pbs.5076255.sched01/tmpr7id634h/0ay6m0hv_.sdf

>  <i_m_source_file_index>  (43) 
17

>  <i_lp_mmshare_version>  (43) 
48012

>  <i_f3d_flags>  (43) 
0

>  <s_epik_input>  (43) 
W0NIM10vW0NIXT1bQ0hdL1tDQEhdKE8xKU9bQ0BIXShbQ0BIXTEyKVtDSDJdMg==

>  <s_epik_cmdline>  (43) 
J2VwaWtfcHl0aG9uJywgJy1waHQnLCAnMi4wJywgJy1waCcsICc3LjAnLCAnLXRuJywgJzgnLCAnLW1hJywgJzIwMCcsICctaW1hZScsICc8aW5maWxlLm1hZT4nLCAnLW9tYWUnLCAnPG91dGZpbGUubWFlPic=

>  <r_lp_tautomer_probability>  (43) 
1

>  <r_epik_Ionization_Penalty>  (43) 
5.72278e-14

>  <r_epik_Ionization_Penalty_Charging>  (43) 
0

>  <r_epik_Ionization_Penalty_Neutral>  (43) 
5.72278e-14

>  <r_epik_State_Penalty>  (43) 
-0

>  <r_epik_Charging_Adjusted_Penalty>  (43) 
0

>  <i_epik_Tot_Q>  (43) 
0

>  <i_epik_Tot_abs_Q>  (43) 
0

>  <s_epik_Chemistry_Notes>  (43) 
This compound contains an acetal/aminal-like group ( X-CH(R)-Y where X, Y are N, S, or O) that may be acid/base labile, releasing an aldehyde.

>  <s_lp_Force_Field>  (43) 
OPLS3e

>  <r_lp_Energy>  (43) 
6.88624

>  <b_lp_Chiralities_Consistent>  (43) 
1

>  <s_lp_Variant>  (43) 
8:0-3

>  <s_i_glide_gridfile>  (43) 
pfpi4k_grid

>  <i_i_glide_lignum>  (43) 
17

>  <i_i_glide_rotatable_bonds>  (43) 
1

>  <r_i_docking_score>  (43) 
-4.85292

>  <r_i_glide_ligand_efficiency>  (43) 
-0.539214

>  <r_i_glide_ligand_efficiency_sa>  (43) 
-1.12161

>  <r_i_glide_ligand_efficiency_ln>  (43) 
-1.51785

>  <r_i_glide_gscore>  (43) 
-4.85292

>  <r_i_glide_lipo>  (43) 
-1.3321

>  <r_i_glide_hbond>  (43) 
0

>  <r_i_glide_metal>  (43) 
-0

>  <r_i_glide_rewards>  (43) 
-2.61061

>  <r_i_glide_evdw>  (43) 
-16.3991

>  <r_i_glide_ecoul>  (43) 
-0.601684

>  <r_i_glide_erotb>  (43) 
0

>  <r_i_glide_esite>  (43) 
0

>  <r_i_glide_emodel>  (43) 
-22.4691

>  <r_i_glide_energy>  (43) 
-17.0008

>  <r_i_glide_einternal>  (43) 
0.939008

>  <r_i_glide_intrahb_reward>  (43) 
-0

>  <i_i_glide_confnum>  (43) 
1

>  <i_i_glide_posenum>  (43) 
2

>  <r_i_glide_eff_state_penalty>  (43) 
0

>  <ligand_id>  (43) 
8

>  <original_smiles>  (43) 
CC=CC1OC2CC2O1

>  <smiles>  (43) 
[H]C(=C([H])C1([H])OC2([H])C([H])([H])C2([H])O1)C([H])([H])[H]

$$$$
8:2:1
     RDKit          3D

 19 20  0  0  1  0  0  0  0  0999 V2000
    3.3287    0.5508   -5.3224 C   0  0  0  0  0  0  0  0  0  0  0  0
    3.6163   -0.5880   -4.3590 C   0  0  0  0  0  0  0  0  0  0  0  0
    4.0909   -0.4237   -3.1086 C   0  0  0  0  0  0  0  0  0  0  0  0
    4.3699   -1.5374   -2.1119 C   0  0  1  0  0  0  0  0  0  0  0  0
    4.0650   -2.7825   -2.6212 O   0  0  0  0  0  0  0  0  0  0  0  0
    5.0012   -3.7097   -2.1152 C   0  0  2  0  0  0  0  0  0  0  0  0
    5.2136   -3.7593   -0.6121 C   0  0  0  0  0  0  0  0  0  0  0  0
    6.0893   -2.8835   -1.4957 C   0  0  2  0  0  0  0  0  0  0  0  0
    5.6922   -1.5343   -1.6868 O   0  0  0  0  0  0  0  0  0  0  0  0
    2.9873    0.1458   -6.2761 H   0  0  0  0  0  0  0  0  0  0  0  0
    4.2180    1.1469   -5.5132 H   0  0  0  0  0  0  0  0  0  0  0  0
    2.5465    1.2192   -4.9496 H   0  0  0  0  0  0  0  0  0  0  0  0
    3.4130   -1.5815   -4.7294 H   0  0  0  0  0  0  0  0  0  0  0  0
    4.2906    0.5679   -2.7424 H   0  0  0  0  0  0  0  0  0  0  0  0
    3.7467   -1.3864   -1.2341 H   0  0  0  0  0  0  0  0  0  0  0  0
    5.2131   -4.5702   -2.7499 H   0  0  0  0  0  0  0  0  0  0  0  0
    4.4785   -3.2941    0.0418 H   0  0  0  0  0  0  0  0  0  0  0  0
    5.6678   -4.6712   -0.2114 H   0  0  0  0  0  0  0  0  0  0  0  0
    7.1435   -3.1148   -1.6663 H   0  0  0  0  0  0  0  0  0  0  0  0
  1  2  1  0
  1 10  1  0
  1 11  1  0
  1 12  1  0
  2  3  2  3
  2 13  1  0
  3  4  1  0
  3 14  1  0
  4  9  1  0
  4  5  1  0
  4 15  1  1
  5  6  1  0
  6  8  1  0
  6  7  1  0
  6 16  1  6
  7  8  1  0
  7 17  1  0
  7 18  1  0
  8  9  1  0
  8 19  1  6
M  END
>  <i_m_ct_stereo_status>  (44) 
1

>  <s_m_source_file>  (44) 
/var/tmp/pbs.5076255.sched01/tmpr7id634h/0ay6m0hv_.sdf

>  <i_m_source_file_index>  (44) 
17

>  <i_lp_mmshare_version>  (44) 
48012

>  <i_f3d_flags>  (44) 
0

>  <s_epik_input>  (44) 
W0NIM10vW0NIXT1bQ0hdL1tDQEhdKE8xKU9bQ0BIXShbQ0BIXTEyKVtDSDJdMg==

>  <s_epik_cmdline>  (44) 
J2VwaWtfcHl0aG9uJywgJy1waHQnLCAnMi4wJywgJy1waCcsICc3LjAnLCAnLXRuJywgJzgnLCAnLW1hJywgJzIwMCcsICctaW1hZScsICc8aW5maWxlLm1hZT4nLCAnLW9tYWUnLCAnPG91dGZpbGUubWFlPic=

>  <r_lp_tautomer_probability>  (44) 
1

>  <r_epik_Ionization_Penalty>  (44) 
5.72278e-14

>  <r_epik_Ionization_Penalty_Charging>  (44) 
0

>  <r_epik_Ionization_Penalty_Neutral>  (44) 
5.72278e-14

>  <r_epik_State_Penalty>  (44) 
-0

>  <r_epik_Charging_Adjusted_Penalty>  (44) 
0

>  <i_epik_Tot_Q>  (44) 
0

>  <i_epik_Tot_abs_Q>  (44) 
0

>  <s_epik_Chemistry_Notes>  (44) 
This compound contains an acetal/aminal-like group ( X-CH(R)-Y where X, Y are N, S, or O) that may be acid/base labile, releasing an aldehyde.

>  <s_lp_Force_Field>  (44) 
OPLS3e

>  <r_lp_Energy>  (44) 
6.88624

>  <b_lp_Chiralities_Consistent>  (44) 
1

>  <s_lp_Variant>  (44) 
8:0-3

>  <s_i_glide_gridfile>  (44) 
pfpi4k_grid

>  <i_i_glide_lignum>  (44) 
17

>  <i_i_glide_rotatable_bonds>  (44) 
1

>  <r_i_docking_score>  (44) 
-4.20664

>  <r_i_glide_ligand_efficiency>  (44) 
-0.467405

>  <r_i_glide_ligand_efficiency_sa>  (44) 
-0.972241

>  <r_i_glide_ligand_efficiency_ln>  (44) 
-1.31572

>  <r_i_glide_gscore>  (44) 
-4.20664

>  <r_i_glide_lipo>  (44) 
-0.767721

>  <r_i_glide_hbond>  (44) 
-0.0431447

>  <r_i_glide_metal>  (44) 
-0

>  <r_i_glide_rewards>  (44) 
-2.29167

>  <r_i_glide_evdw>  (44) 
-17.5198

>  <r_i_glide_ecoul>  (44) 
-1.28351

>  <r_i_glide_erotb>  (44) 
0

>  <r_i_glide_esite>  (44) 
-0.0355914

>  <r_i_glide_emodel>  (44) 
-23.5365

>  <r_i_glide_energy>  (44) 
-18.8033

>  <r_i_glide_einternal>  (44) 
0.86915

>  <r_i_glide_intrahb_reward>  (44) 
-0

>  <i_i_glide_confnum>  (44) 
3

>  <i_i_glide_posenum>  (44) 
15

>  <r_i_glide_eff_state_penalty>  (44) 
0

>  <ligand_id>  (44) 
8

>  <original_smiles>  (44) 
CC=CC1OC2CC2O1

>  <smiles>  (44) 
[H]C(=C([H])C1([H])OC2([H])C([H])([H])C2([H])O1)C([H])([H])[H]

$$$$
8:2:2
     RDKit          3D

 19 20  0  0  1  0  0  0  0  0999 V2000
    2.9329    1.0922   -5.3163 C   0  0  0  0  0  0  0  0  0  0  0  0
    3.5166    0.2068   -4.2312 C   0  0  0  0  0  0  0  0  0  0  0  0
    3.1678   -1.0749   -4.0313 C   0  0  0  0  0  0  0  0  0  0  0  0
    3.7148   -1.9896   -2.9511 C   0  0  1  0  0  0  0  0  0  0  0  0
    4.4011   -3.0664   -3.4987 O   0  0  0  0  0  0  0  0  0  0  0  0
    5.4698   -3.3929   -2.6232 C   0  0  2  0  0  0  0  0  0  0  0  0
    5.1639   -3.5955   -1.1460 C   0  0  0  0  0  0  0  0  0  0  0  0
    5.5735   -2.2341   -1.6756 C   0  0  2  0  0  0  0  0  0  0  0  0
    4.5575   -1.3292   -2.0696 O   0  0  0  0  0  0  0  0  0  0  0  0
    3.3863    2.0821   -5.2509 H   0  0  0  0  0  0  0  0  0  0  0  0
    1.8549    1.2335   -5.1824 H   0  0  0  0  0  0  0  0  0  0  0  0
    3.1111    0.6963   -6.3155 H   0  0  0  0  0  0  0  0  0  0  0  0
    4.2459    0.6736   -3.5850 H   0  0  0  0  0  0  0  0  0  0  0  0
    2.4366   -1.5263   -4.6774 H   0  0  0  0  0  0  0  0  0  0  0  0
    2.8859   -2.3939   -2.3704 H   0  0  0  0  0  0  0  0  0  0  0  0
    6.3629   -3.8183   -3.0865 H   0  0  0  0  0  0  0  0  0  0  0  0
    4.1349   -3.7570   -0.8333 H   0  0  0  0  0  0  0  0  0  0  0  0
    5.9123   -4.1303   -0.5533 H   0  0  0  0  0  0  0  0  0  0  0  0
    6.5369   -1.7945   -1.4174 H   0  0  0  0  0  0  0  0  0  0  0  0
  1  2  1  0
  1 10  1  0
  1 11  1  0
  1 12  1  0
  2  3  2  3
  2 13  1  0
  3  4  1  0
  3 14  1  0
  4  9  1  0
  4  5  1  0
  4 15  1  1
  5  6  1  0
  6  8  1  0
  6  7  1  0
  6 16  1  6
  7  8  1  0
  7 17  1  0
  7 18  1  0
  8  9  1  0
  8 19  1  1
M  END
>  <i_m_ct_stereo_status>  (45) 
1

>  <s_m_source_file>  (45) 
/var/tmp/pbs.5076255.sched01/tmpr7id634h/0ay6m0hv_.sdf

>  <i_m_source_file_index>  (45) 
17

>  <i_lp_mmshare_version>  (45) 
48012

>  <i_f3d_flags>  (45) 
0

>  <s_epik_input>  (45) 
W0NIM10vW0NIXT1bQ0hdL1tDQEhdKE8xKU9bQ0BIXShbQ0BIXTEyKVtDSDJdMg==

>  <s_epik_cmdline>  (45) 
J2VwaWtfcHl0aG9uJywgJy1waHQnLCAnMi4wJywgJy1waCcsICc3LjAnLCAnLXRuJywgJzgnLCAnLW1hJywgJzIwMCcsICctaW1hZScsICc8aW5maWxlLm1hZT4nLCAnLW9tYWUnLCAnPG91dGZpbGUubWFlPic=

>  <r_lp_tautomer_probability>  (45) 
1

>  <r_epik_Ionization_Penalty>  (45) 
5.72278e-14

>  <r_epik_Ionization_Penalty_Charging>  (45) 
0

>  <r_epik_Ionization_Penalty_Neutral>  (45) 
5.72278e-14

>  <r_epik_State_Penalty>  (45) 
-0

>  <r_epik_Charging_Adjusted_Penalty>  (45) 
0

>  <i_epik_Tot_Q>  (45) 
0

>  <i_epik_Tot_abs_Q>  (45) 
0

>  <s_epik_Chemistry_Notes>  (45) 
This compound contains an acetal/aminal-like group ( X-CH(R)-Y where X, Y are N, S, or O) that may be acid/base labile, releasing an aldehyde.

>  <s_lp_Force_Field>  (45) 
OPLS3e

>  <r_lp_Energy>  (45) 
6.88624

>  <b_lp_Chiralities_Consistent>  (45) 
1

>  <s_lp_Variant>  (45) 
8:0-3

>  <s_i_glide_gridfile>  (45) 
pfpi4k_grid

>  <i_i_glide_lignum>  (45) 
17

>  <i_i_glide_rotatable_bonds>  (45) 
1

>  <r_i_docking_score>  (45) 
-3.83901

>  <r_i_glide_ligand_efficiency>  (45) 
-0.426556

>  <r_i_glide_ligand_efficiency_sa>  (45) 
-0.887273

>  <r_i_glide_ligand_efficiency_ln>  (45) 
-1.20073

>  <r_i_glide_gscore>  (45) 
-3.83901

>  <r_i_glide_lipo>  (45) 
-0.527344

>  <r_i_glide_hbond>  (45) 
0

>  <r_i_glide_metal>  (45) 
-0

>  <r_i_glide_rewards>  (45) 
-2.30474

>  <r_i_glide_evdw>  (45) 
-17.942

>  <r_i_glide_ecoul>  (45) 
-0.732147

>  <r_i_glide_erotb>  (45) 
0

>  <r_i_glide_esite>  (45) 
0

>  <r_i_glide_emodel>  (45) 
-22.9112

>  <r_i_glide_energy>  (45) 
-18.6742

>  <r_i_glide_einternal>  (45) 
0.921556

>  <r_i_glide_intrahb_reward>  (45) 
-0

>  <i_i_glide_confnum>  (45) 
1

>  <i_i_glide_posenum>  (45) 
11

>  <r_i_glide_eff_state_penalty>  (45) 
0

>  <ligand_id>  (45) 
8

>  <original_smiles>  (45) 
CC=CC1OC2CC2O1

>  <smiles>  (45) 
[H]C(=C([H])C1([H])OC2([H])C([H])([H])C2([H])O1)C([H])([H])[H]

$$$$
8:3:0
     RDKit          3D

 19 20  0  0  1  0  0  0  0  0999 V2000
   -7.6783   -8.0843   -7.6981 C   0  0  0  0  0  0  0  0  0  0  0  0
   -6.1598   -8.0599   -7.7056 C   0  0  0  0  0  0  0  0  0  0  0  0
   -5.3225   -7.7357   -6.7044 C   0  0  0  0  0  0  0  0  0  0  0  0
   -5.6281   -7.2902   -5.2806 C   0  0  1  0  0  0  0  0  0  0  0  0
   -4.8539   -6.1944   -4.8838 O   0  0  0  0  0  0  0  0  0  0  0  0
   -5.6432   -5.0359   -5.1271 C   0  0  2  0  0  0  0  0  0  0  0  0
   -6.7434   -4.6944   -4.1198 C   0  0  0  0  0  0  0  0  0  0  0  0
   -7.0499   -5.5656   -5.3164 C   0  0  2  0  0  0  0  0  0  0  0  0
   -6.9537   -6.9508   -5.0627 O   0  0  0  0  0  0  0  0  0  0  0  0
   -8.0584   -7.3952   -8.4465 H   0  0  0  0  0  0  0  0  0  0  0  0
   -8.1299   -7.8293   -6.7580 H   0  0  0  0  0  0  0  0  0  0  0  0
   -8.0246   -9.0860   -7.9330 H   0  0  0  0  0  0  0  0  0  0  0  0
   -5.7163   -8.3560   -8.6502 H   0  0  0  0  0  0  0  0  0  0  0  0
   -4.2714   -7.8122   -6.9074 H   0  0  0  0  0  0  0  0  0  0  0  0
   -5.3788   -8.1303   -4.6487 H   0  0  0  0  0  0  0  0  0  0  0  0
   -5.2336   -4.2893   -5.8113 H   0  0  0  0  0  0  0  0  0  0  0  0
   -6.7486   -5.1810   -3.1499 H   0  0  0  0  0  0  0  0  0  0  0  0
   -7.1327   -3.6909   -4.1586 H   0  0  0  0  0  0  0  0  0  0  0  0
   -7.6470   -5.2498   -6.1575 H   0  0  0  0  0  0  0  0  0  0  0  0
  1  2  1  0
  1 10  1  0
  1 11  1  0
  1 12  1  0
  2  3  2  3
  2 13  1  0
  3  4  1  0
  3 14  1  0
  4  9  1  0
  4  5  1  0
  4 15  1  1
  5  6  1  0
  6  8  1  0
  6  7  1  0
  6 16  1  6
  7  8  1  0
  7 17  1  0
  7 18  1  0
  8  9  1  0
  8 19  1  6
M  END
>  <i_m_ct_stereo_status>  (46) 
1

>  <s_m_source_file>  (46) 
/var/tmp/pbs.5076255.sched01/tmpr7id634h/0ay6m0hv_.sdf

>  <i_m_source_file_index>  (46) 
18

>  <i_lp_mmshare_version>  (46) 
48012

>  <i_f3d_flags>  (46) 
0

>  <s_epik_input>  (46) 
W0NIM10vW0NIXT1bQ0hdL1tDQEhdKE8xKU9bQ0BIXShbQ0BIXTEyKVtDSDJdMg==

>  <s_epik_cmdline>  (46) 
J2VwaWtfcHl0aG9uJywgJy1waHQnLCAnMi4wJywgJy1waCcsICc3LjAnLCAnLXRuJywgJzgnLCAnLW1hJywgJzIwMCcsICctaW1hZScsICc8aW5maWxlLm1hZT4nLCAnLW9tYWUnLCAnPG91dGZpbGUubWFlPic=

>  <r_lp_tautomer_probability>  (46) 
1

>  <r_epik_Ionization_Penalty>  (46) 
5.72278e-14

>  <r_epik_Ionization_Penalty_Charging>  (46) 
0

>  <r_epik_Ionization_Penalty_Neutral>  (46) 
5.72278e-14

>  <r_epik_State_Penalty>  (46) 
-0

>  <r_epik_Charging_Adjusted_Penalty>  (46) 
0

>  <i_epik_Tot_Q>  (46) 
0

>  <i_epik_Tot_abs_Q>  (46) 
0

>  <s_epik_Chemistry_Notes>  (46) 
This compound contains an acetal/aminal-like group ( X-CH(R)-Y where X, Y are N, S, or O) that may be acid/base labile, releasing an aldehyde.

>  <s_lp_Force_Field>  (46) 
OPLS3e

>  <r_lp_Energy>  (46) 
5.07123

>  <b_lp_Chiralities_Consistent>  (46) 
1

>  <s_lp_Variant>  (46) 
8:0-4

>  <s_i_glide_gridfile>  (46) 
pfpi4k_grid

>  <i_i_glide_lignum>  (46) 
18

>  <i_i_glide_rotatable_bonds>  (46) 
1

>  <r_i_docking_score>  (46) 
-6.72441

>  <r_i_glide_ligand_efficiency>  (46) 
-0.747157

>  <r_i_glide_ligand_efficiency_sa>  (46) 
-1.55415

>  <r_i_glide_ligand_efficiency_ln>  (46) 
-2.1032

>  <r_i_glide_gscore>  (46) 
-6.72441

>  <r_i_glide_lipo>  (46) 
-1.38071

>  <r_i_glide_hbond>  (46) 
-0.32

>  <r_i_glide_metal>  (46) 
-0

>  <r_i_glide_rewards>  (46) 
-3.86935

>  <r_i_glide_evdw>  (46) 
-15.8146

>  <r_i_glide_ecoul>  (46) 
-2.42413

>  <r_i_glide_erotb>  (46) 
0

>  <r_i_glide_esite>  (46) 
0

>  <r_i_glide_emodel>  (46) 
-24.1801

>  <r_i_glide_energy>  (46) 
-18.2388

>  <r_i_glide_einternal>  (46) 
2.4205

>  <r_i_glide_intrahb_reward>  (46) 
-0

>  <i_i_glide_confnum>  (46) 
4

>  <i_i_glide_posenum>  (46) 
12

>  <r_i_glide_eff_state_penalty>  (46) 
0

>  <ligand_id>  (46) 
8

>  <original_smiles>  (46) 
CC=CC1OC2CC2O1

>  <smiles>  (46) 
[H]C(=C([H])C1([H])OC2([H])C([H])([H])C2([H])O1)C([H])([H])[H]

$$$$
8:3:1
     RDKit          3D

 19 20  0  0  1  0  0  0  0  0999 V2000
   -6.0615  -10.4616   -6.6709 C   0  0  0  0  0  0  0  0  0  0  0  0
   -5.5412   -9.1839   -7.3075 C   0  0  0  0  0  0  0  0  0  0  0  0
   -5.6531   -7.9001   -6.8821 C   0  0  0  0  0  0  0  0  0  0  0  0
   -6.3449   -7.3783   -5.6149 C   0  0  1  0  0  0  0  0  0  0  0  0
   -5.4750   -6.6830   -4.7959 O   0  0  0  0  0  0  0  0  0  0  0  0
   -5.6757   -5.3298   -5.0852 C   0  0  2  0  0  0  0  0  0  0  0  0
   -6.8763   -4.6737   -4.4416 C   0  0  0  0  0  0  0  0  0  0  0  0
   -6.9960   -5.2675   -5.8274 C   0  0  2  0  0  0  0  0  0  0  0  0
   -7.4344   -6.5879   -5.9056 O   0  0  0  0  0  0  0  0  0  0  0  0
   -6.6867  -11.0076   -7.3853 H   0  0  0  0  0  0  0  0  0  0  0  0
   -6.6514  -10.3028   -5.7665 H   0  0  0  0  0  0  0  0  0  0  0  0
   -5.2270  -11.1265   -6.4184 H   0  0  0  0  0  0  0  0  0  0  0  0
   -5.0132   -9.3415   -8.2246 H   0  0  0  0  0  0  0  0  0  0  0  0
   -5.1978   -7.1588   -7.5158 H   0  0  0  0  0  0  0  0  0  0  0  0
   -6.7386   -8.2150   -5.0519 H   0  0  0  0  0  0  0  0  0  0  0  0
   -4.8022   -4.7709   -5.4326 H   0  0  0  0  0  0  0  0  0  0  0  0
   -7.3659   -5.1716   -3.6059 H   0  0  0  0  0  0  0  0  0  0  0  0
   -6.8511   -3.5799   -4.3766 H   0  0  0  0  0  0  0  0  0  0  0  0
   -7.1016   -4.6693   -6.7326 H   0  0  0  0  0  0  0  0  0  0  0  0
  1  2  1  0
  1 10  1  0
  1 11  1  0
  1 12  1  0
  2  3  2  3
  2 13  1  0
  3  4  1  0
  3 14  1  0
  4  9  1  0
  4  5  1  0
  4 15  1  1
  5  6  1  0
  6  8  1  0
  6  7  1  0
  6 16  1  6
  7  8  1  0
  7 17  1  0
  7 18  1  0
  8  9  1  0
  8 19  1  6
M  END
>  <i_m_ct_stereo_status>  (47) 
1

>  <s_m_source_file>  (47) 
/var/tmp/pbs.5076255.sched01/tmpr7id634h/0ay6m0hv_.sdf

>  <i_m_source_file_index>  (47) 
18

>  <i_lp_mmshare_version>  (47) 
48012

>  <i_f3d_flags>  (47) 
0

>  <s_epik_input>  (47) 
W0NIM10vW0NIXT1bQ0hdL1tDQEhdKE8xKU9bQ0BIXShbQ0BIXTEyKVtDSDJdMg==

>  <s_epik_cmdline>  (47) 
J2VwaWtfcHl0aG9uJywgJy1waHQnLCAnMi4wJywgJy1waCcsICc3LjAnLCAnLXRuJywgJzgnLCAnLW1hJywgJzIwMCcsICctaW1hZScsICc8aW5maWxlLm1hZT4nLCAnLW9tYWUnLCAnPG91dGZpbGUubWFlPic=

>  <r_lp_tautomer_probability>  (47) 
1

>  <r_epik_Ionization_Penalty>  (47) 
5.72278e-14

>  <r_epik_Ionization_Penalty_Charging>  (47) 
0

>  <r_epik_Ionization_Penalty_Neutral>  (47) 
5.72278e-14

>  <r_epik_State_Penalty>  (47) 
-0

>  <r_epik_Charging_Adjusted_Penalty>  (47) 
0

>  <i_epik_Tot_Q>  (47) 
0

>  <i_epik_Tot_abs_Q>  (47) 
0

>  <s_epik_Chemistry_Notes>  (47) 
This compound contains an acetal/aminal-like group ( X-CH(R)-Y where X, Y are N, S, or O) that may be acid/base labile, releasing an aldehyde.

>  <s_lp_Force_Field>  (47) 
OPLS3e

>  <r_lp_Energy>  (47) 
5.07123

>  <b_lp_Chiralities_Consistent>  (47) 
1

>  <s_lp_Variant>  (47) 
8:0-4

>  <s_i_glide_gridfile>  (47) 
pfpi4k_grid

>  <i_i_glide_lignum>  (47) 
18

>  <i_i_glide_rotatable_bonds>  (47) 
1

>  <r_i_docking_score>  (47) 
-5.45919

>  <r_i_glide_ligand_efficiency>  (47) 
-0.606576

>  <r_i_glide_ligand_efficiency_sa>  (47) 
-1.26173

>  <r_i_glide_ligand_efficiency_ln>  (47) 
-1.70748

>  <r_i_glide_gscore>  (47) 
-5.45919

>  <r_i_glide_lipo>  (47) 
-1.28671

>  <r_i_glide_hbond>  (47) 
0

>  <r_i_glide_metal>  (47) 
-0

>  <r_i_glide_rewards>  (47) 
-3.41965

>  <r_i_glide_evdw>  (47) 
-15.1552

>  <r_i_glide_ecoul>  (47) 
0.0328819

>  <r_i_glide_erotb>  (47) 
0

>  <r_i_glide_esite>  (47) 
0

>  <r_i_glide_emodel>  (47) 
-20.8935

>  <r_i_glide_energy>  (47) 
-15.1224

>  <r_i_glide_einternal>  (47) 
0.0157289

>  <r_i_glide_intrahb_reward>  (47) 
-0

>  <i_i_glide_confnum>  (47) 
4

>  <i_i_glide_posenum>  (47) 
8

>  <r_i_glide_eff_state_penalty>  (47) 
0

>  <ligand_id>  (47) 
8

>  <original_smiles>  (47) 
CC=CC1OC2CC2O1

>  <smiles>  (47) 
[H]C(=C([H])C1([H])OC2([H])C([H])([H])C2([H])O1)C([H])([H])[H]

$$$$
8:3:2
     RDKit          3D

 19 20  0  0  1  0  0  0  0  0999 V2000
    3.4256    0.9198   -5.3484 C   0  0  0  0  0  0  0  0  0  0  0  0
    2.6060    0.1498   -4.3323 C   0  0  0  0  0  0  0  0  0  0  0  0
    2.9763   -0.8520   -3.5113 C   0  0  0  0  0  0  0  0  0  0  0  0
    4.3568   -1.4958   -3.4049 C   0  0  1  0  0  0  0  0  0  0  0  0
    5.0045   -1.1341   -2.2337 O   0  0  0  0  0  0  0  0  0  0  0  0
    4.7351   -2.1678   -1.3103 C   0  0  2  0  0  0  0  0  0  0  0  0
    5.6094   -3.3923   -1.4379 C   0  0  0  0  0  0  0  0  0  0  0  0
    4.2729   -3.3345   -2.1410 C   0  0  2  0  0  0  0  0  0  0  0  0
    4.2948   -2.8783   -3.4792 O   0  0  0  0  0  0  0  0  0  0  0  0
    2.9630    0.8603   -6.3371 H   0  0  0  0  0  0  0  0  0  0  0  0
    4.4568    0.5821   -5.4310 H   0  0  0  0  0  0  0  0  0  0  0  0
    3.4283    1.9790   -5.0749 H   0  0  0  0  0  0  0  0  0  0  0  0
    1.6103    0.5485   -4.3104 H   0  0  0  0  0  0  0  0  0  0  0  0
    2.2276   -1.2531   -2.8406 H   0  0  0  0  0  0  0  0  0  0  0  0
    4.9821   -1.1809   -4.2313 H   0  0  0  0  0  0  0  0  0  0  0  0
    4.2148   -1.8876   -0.3944 H   0  0  0  0  0  0  0  0  0  0  0  0
    6.5188   -3.3318   -2.0383 H   0  0  0  0  0  0  0  0  0  0  0  0
    5.6737   -4.0422   -0.5634 H   0  0  0  0  0  0  0  0  0  0  0  0
    3.4028   -3.9137   -1.8400 H   0  0  0  0  0  0  0  0  0  0  0  0
  1  2  1  0
  1 10  1  0
  1 11  1  0
  1 12  1  0
  2  3  2  3
  2 13  1  0
  3  4  1  0
  3 14  1  0
  4  9  1  0
  4  5  1  0
  4 15  1  6
  5  6  1  0
  6  8  1  0
  6  7  1  0
  6 16  1  1
  7  8  1  0
  7 17  1  0
  7 18  1  0
  8  9  1  0
  8 19  1  1
M  END
>  <i_m_ct_stereo_status>  (48) 
1

>  <s_m_source_file>  (48) 
/var/tmp/pbs.5076255.sched01/tmpr7id634h/0ay6m0hv_.sdf

>  <i_m_source_file_index>  (48) 
18

>  <i_lp_mmshare_version>  (48) 
48012

>  <i_f3d_flags>  (48) 
0

>  <s_epik_input>  (48) 
W0NIM10vW0NIXT1bQ0hdL1tDQEhdKE8xKU9bQ0BIXShbQ0BIXTEyKVtDSDJdMg==

>  <s_epik_cmdline>  (48) 
J2VwaWtfcHl0aG9uJywgJy1waHQnLCAnMi4wJywgJy1waCcsICc3LjAnLCAnLXRuJywgJzgnLCAnLW1hJywgJzIwMCcsICctaW1hZScsICc8aW5maWxlLm1hZT4nLCAnLW9tYWUnLCAnPG91dGZpbGUubWFlPic=

>  <r_lp_tautomer_probability>  (48) 
1

>  <r_epik_Ionization_Penalty>  (48) 
5.72278e-14

>  <r_epik_Ionization_Penalty_Charging>  (48) 
0

>  <r_epik_Ionization_Penalty_Neutral>  (48) 
5.72278e-14

>  <r_epik_State_Penalty>  (48) 
-0

>  <r_epik_Charging_Adjusted_Penalty>  (48) 
0

>  <i_epik_Tot_Q>  (48) 
0

>  <i_epik_Tot_abs_Q>  (48) 
0

>  <s_epik_Chemistry_Notes>  (48) 
This compound contains an acetal/aminal-like group ( X-CH(R)-Y where X, Y are N, S, or O) that may be acid/base labile, releasing an aldehyde.

>  <s_lp_Force_Field>  (48) 
OPLS3e

>  <r_lp_Energy>  (48) 
5.07123

>  <b_lp_Chiralities_Consistent>  (48) 
1

>  <s_lp_Variant>  (48) 
8:0-4

>  <s_i_glide_gridfile>  (48) 
pfpi4k_grid

>  <i_i_glide_lignum>  (48) 
18

>  <i_i_glide_rotatable_bonds>  (48) 
1

>  <r_i_docking_score>  (48) 
-3.73245

>  <r_i_glide_ligand_efficiency>  (48) 
-0.414717

>  <r_i_glide_ligand_efficiency_sa>  (48) 
-0.862646

>  <r_i_glide_ligand_efficiency_ln>  (48) 
-1.1674

>  <r_i_glide_gscore>  (48) 
-3.73245

>  <r_i_glide_lipo>  (48) 
-0.390614

>  <r_i_glide_hbond>  (48) 
0

>  <r_i_glide_metal>  (48) 
-0

>  <r_i_glide_rewards>  (48) 
-2.45517

>  <r_i_glide_evdw>  (48) 
-14.9374

>  <r_i_glide_ecoul>  (48) 
-0.932032

>  <r_i_glide_erotb>  (48) 
0

>  <r_i_glide_esite>  (48) 
0

>  <r_i_glide_emodel>  (48) 
-19.7561

>  <r_i_glide_energy>  (48) 
-15.8694

>  <r_i_glide_einternal>  (48) 
0.251662

>  <r_i_glide_intrahb_reward>  (48) 
-0

>  <i_i_glide_confnum>  (48) 
4

>  <i_i_glide_posenum>  (48) 
14

>  <r_i_glide_eff_state_penalty>  (48) 
0

>  <ligand_id>  (48) 
8

>  <original_smiles>  (48) 
CC=CC1OC2CC2O1

>  <smiles>  (48) 
[H]C(=C([H])C1([H])OC2([H])C([H])([H])C2([H])O1)C([H])([H])[H]

$$$$
9:0:0
     RDKit          3D

 58 63  0  0  1  0  0  0  0  0999 V2000
    0.9140  -11.2273    3.4622 C   0  0  0  0  0  0  0  0  0  0  0  0
    1.7403   -9.9333    3.3977 C   0  0  0  0  0  0  0  0  0  0  0  0
    1.3791   -9.0585    2.1868 C   0  0  0  0  0  0  0  0  0  0  0  0
    1.8311   -7.6608    2.3298 N   0  0  0  0  0  0  0  0  0  0  0  0
    3.0430   -7.2610    1.9382 N   0  0  0  0  0  0  0  0  0  0  0  0
    3.1109   -5.9796    2.2641 C   0  0  0  0  0  0  0  0  0  0  0  0
    2.0020   -5.5674    2.8837 N   0  0  0  0  0  0  0  0  0  0  0  0
    1.1510   -6.6176    2.8517 C   0  0  0  0  0  0  0  0  0  0  0  0
   -0.1700   -6.6075    3.2754 N   0  0  0  0  0  0  0  0  0  0  0  0
    1.9684   -4.1672    3.2309 C   0  0  1  0  0  0  0  0  0  0  0  0
    1.3500   -3.8373    4.5975 C   0  0  0  0  0  0  0  0  0  0  0  0
    3.4718   -3.8136    3.0761 C   0  0  1  0  0  0  0  0  0  0  0  0
    4.1014   -4.8882    2.1216 C   0  0  2  0  0  0  0  0  0  0  0  0
    4.2477   -4.5355    0.6081 C   0  0  0  0  0  0  0  0  0  0  0  0
    5.2249   -3.3871    0.1896 C   0  0  1  0  0  0  0  0  0  0  0  0
    6.6246   -3.6865    0.7832 C   0  0  0  0  0  0  0  0  0  0  0  0
    5.3595   -3.4370   -1.3675 C   0  0  0  0  0  0  0  0  0  0  0  0
    4.7479   -2.1684   -1.8532 C   0  0  0  0  0  0  0  0  0  0  0  0
    4.3966   -1.3563   -0.8731 C   0  0  0  0  0  0  0  0  0  0  0  0
    4.6789   -1.9173    0.4954 C   0  0  2  0  0  0  0  0  0  0  0  0
    5.7232   -1.0081    1.1291 C   0  0  0  0  0  0  0  0  0  0  0  0
    5.8462   -0.9097    2.4821 C   0  0  0  0  0  0  0  0  0  0  0  0
    5.0625   -1.8028    3.3275 C   0  0  1  0  0  0  0  0  0  0  0  0
    3.7754   -1.3671    3.7893 O   0  0  0  0  0  0  0  0  0  0  0  0
    3.8129   -2.3750    2.7571 C   0  0  2  0  0  0  0  0  0  0  0  0
    3.3907   -1.9106    1.3755 C   0  0  1  0  0  0  0  0  0  0  0  0
    2.6837   -0.5331    1.4720 C   0  0  0  0  0  0  0  0  0  0  0  0
    1.1798  -11.8373    4.3282 H   0  0  0  0  0  0  0  0  0  0  0  0
    1.0481  -11.8540    2.5818 H   0  0  0  0  0  0  0  0  0  0  0  0
   -0.1493  -11.0013    3.5510 H   0  0  0  0  0  0  0  0  0  0  0  0
    1.5709   -9.3961    4.3301 H   0  0  0  0  0  0  0  0  0  0  0  0
    2.8012  -10.1793    3.3767 H   0  0  0  0  0  0  0  0  0  0  0  0
    1.8291   -9.4769    1.2867 H   0  0  0  0  0  0  0  0  0  0  0  0
    0.3029   -9.0452    2.0396 H   0  0  0  0  0  0  0  0  0  0  0  0
   -0.4002   -6.0244    4.0830 H   0  0  0  0  0  0  0  0  0  0  0  0
    1.3868   -3.6961    2.4470 H   0  0  0  0  0  0  0  0  0  0  0  0
    1.4526   -2.7705    4.8152 H   0  0  0  0  0  0  0  0  0  0  0  0
    1.8235   -4.3949    5.4060 H   0  0  0  0  0  0  0  0  0  0  0  0
    0.2823   -4.0607    4.6095 H   0  0  0  0  0  0  0  0  0  0  0  0
    3.9075   -4.0070    4.0577 H   0  0  0  0  0  0  0  0  0  0  0  0
    5.0409   -5.2518    2.5241 H   0  0  0  0  0  0  0  0  0  0  0  0
    4.6081   -5.4434    0.1219 H   0  0  0  0  0  0  0  0  0  0  0  0
    3.2737   -4.3764    0.1414 H   0  0  0  0  0  0  0  0  0  0  0  0
    7.3833   -2.9921    0.4130 H   0  0  0  0  0  0  0  0  0  0  0  0
    6.9507   -4.6898    0.5089 H   0  0  0  0  0  0  0  0  0  0  0  0
    6.6346   -3.6285    1.8718 H   0  0  0  0  0  0  0  0  0  0  0  0
    6.3987   -3.4340   -1.6977 H   0  0  0  0  0  0  0  0  0  0  0  0
    4.8494   -4.2823   -1.8292 H   0  0  0  0  0  0  0  0  0  0  0  0
    4.6190   -1.9417   -2.8952 H   0  0  0  0  0  0  0  0  0  0  0  0
    3.9600   -0.3893   -1.0287 H   0  0  0  0  0  0  0  0  0  0  0  0
    6.3215   -0.3887    0.4884 H   0  0  0  0  0  0  0  0  0  0  0  0
    6.5577   -0.2643    2.9695 H   0  0  0  0  0  0  0  0  0  0  0  0
    5.6599   -2.3905    4.0215 H   0  0  0  0  0  0  0  0  0  0  0  0
    2.6283   -2.5757    0.9778 H   0  0  0  0  0  0  0  0  0  0  0  0
    3.3344    0.2706    1.8173 H   0  0  0  0  0  0  0  0  0  0  0  0
    1.8377   -0.5922    2.1602 H   0  0  0  0  0  0  0  0  0  0  0  0
    2.2888   -0.2429    0.5008 H   0  0  0  0  0  0  0  0  0  0  0  0
   -0.7127   -7.4760    3.2149 H   0  0  0  0  0  0  0  0  0  0  0  0
  1  2  1  0
  1 28  1  0
  1 29  1  0
  1 30  1  0
  2  3  1  0
  2 31  1  0
  2 32  1  0
  3  4  1  0
  3 33  1  0
  3 34  1  0
  4  8  2  0
  4  5  1  0
  5  6  2  0
  6 13  1  0
  6  7  1  0
  7  8  1  0
  7 10  1  0
  8  9  1  0
  9 35  1  0
  9 58  1  0
 10 11  1  0
 10 12  1  0
 10 36  1  6
 11 37  1  0
 11 38  1  0
 11 39  1  0
 12 25  1  0
 12 13  1  0
 12 40  1  1
 13 14  1  0
 13 41  1  1
 14 15  1  0
 14 42  1  0
 14 43  1  0
 15 20  1  0
 15 16  1  1
 15 17  1  0
 16 44  1  0
 16 45  1  0
 16 46  1  0
 17 18  1  0
 17 47  1  0
 17 48  1  0
 18 19  2  0
 18 49  1  0
 20 19  1  6
 19 50  1  0
 20 26  1  0
 20 21  1  0
 21 22  2  0
 21 51  1  0
 22 23  1  0
 22 52  1  0
 23 25  1  0
 23 24  1  0
 23 53  1  1
 25 24  1  1
 25 26  1  0
 26 27  1  0
 26 54  1  6
 27 55  1  0
 27 56  1  0
 27 57  1  0
M  CHG  1   4   1
M  END
>  <i_m_ct_stereo_status>  (49) 
1

>  <s_m_source_file>  (49) 
/var/tmp/pbs.5076255.sched01/tmpr7id634h/0ay6m0hv_.sdf

>  <i_m_source_file_index>  (49) 
19

>  <i_lp_mmshare_version>  (49) 
48012

>  <i_f3d_flags>  (49) 
0

>  <s_epik_input>  (49) 
W0NIXTE9W0NIXVtDQEBIXShPMilbQ0BAXTIoW0NASF0zW0NIM10pW0NASF00W0NASF0oW0NIM10pbihjKD1OXFtIXSlcbihuNSlbQ0gyXVtDSDJdW0NIM10pYzVbQ0BIXTRbQ0gyXVtDQEBdKFtDQF0xMzYpKFtDSDNdKVtDSDJdW0NIXT1bQ0hdNg==

>  <s_epik_cmdline>  (49) 
J2VwaWtfcHl0aG9uJywgJy1waHQnLCAnMi4wJywgJy1waCcsICc3LjAnLCAnLXRuJywgJzgnLCAnLW1hJywgJzIwMCcsICctaW1hZScsICc8aW5maWxlLm1hZT4nLCAnLW9tYWUnLCAnPG91dGZpbGUubWFlPic=

>  <r_lp_tautomer_probability>  (49) 
1

>  <r_epik_Ionization_Penalty>  (49) 
5.48727e-06

>  <r_epik_Ionization_Penalty_Charging>  (49) 
0

>  <r_epik_Ionization_Penalty_Neutral>  (49) 
5.48727e-06

>  <r_epik_State_Penalty>  (49) 
-0

>  <r_epik_Charging_Adjusted_Penalty>  (49) 
0

>  <i_epik_Tot_Q>  (49) 
1

>  <i_epik_Tot_abs_Q>  (49) 
1

>  <s_lp_Force_Field>  (49) 
OPLS3e

>  <r_lp_Energy>  (49) 
40.4657

>  <b_lp_Chiralities_Consistent>  (49) 
1

>  <s_lp_Variant>  (49) 
9:0-1

>  <s_i_glide_gridfile>  (49) 
pfpi4k_grid

>  <i_i_glide_lignum>  (49) 
19

>  <i_i_glide_rotatable_bonds>  (49) 
2

>  <r_i_docking_score>  (49) 
-3.50376

>  <r_i_glide_ligand_efficiency>  (49) 
-0.129769

>  <r_i_glide_ligand_efficiency_sa>  (49) 
-0.389306

>  <r_i_glide_ligand_efficiency_ln>  (49) 
-0.815617

>  <r_i_glide_gscore>  (49) 
-3.50376

>  <r_i_glide_lipo>  (49) 
-0.796664

>  <r_i_glide_hbond>  (49) 
0

>  <r_i_glide_metal>  (49) 
-0

>  <r_i_glide_rewards>  (49) 
-0.90853

>  <r_i_glide_evdw>  (49) 
-23.3803

>  <r_i_glide_ecoul>  (49) 
-4.18681

>  <r_i_glide_erotb>  (49) 
0.142597

>  <r_i_glide_esite>  (49) 
-0.144123

>  <r_i_glide_emodel>  (49) 
-31.2087

>  <r_i_glide_energy>  (49) 
-27.5671

>  <r_i_glide_einternal>  (49) 
0.907984

>  <r_i_glide_intrahb_reward>  (49) 
-0

>  <i_i_glide_confnum>  (49) 
4

>  <i_i_glide_posenum>  (49) 
24

>  <r_i_glide_eff_state_penalty>  (49) 
0

>  <ligand_id>  (49) 
9

>  <original_smiles>  (49) 
CCCn1nc2n(c1=N)C(C)C1C2CC2(C)CC=CC23C=CC2OC21C3C

>  <smiles>  (49) 
[H]C1=C([H])C23C([H])=C([H])C4([H])OC4(C2([H])C([H])([H])[H])C2([H])C([H])(c4n[n+](C([H])([H])C([H])([H])C([H])([H])[H])c(N([H])[H])n4C2([H])C([H])([H])[H])C([H])([H])C3(C([H])([H])[H])C1([H])[H]

$$$$
9:0:1
     RDKit          3D

 58 63  0  0  1  0  0  0  0  0999 V2000
    1.8179   -9.7546    2.3428 C   0  0  0  0  0  0  0  0  0  0  0  0
    0.4983   -9.1239    2.8205 C   0  0  0  0  0  0  0  0  0  0  0  0
    0.1867   -7.7127    2.2689 C   0  0  0  0  0  0  0  0  0  0  0  0
    1.3660   -6.8532    2.1005 N   0  0  0  0  0  0  0  0  0  0  0  0
    1.8711   -6.5738    0.8931 N   0  0  0  0  0  0  0  0  0  0  0  0
    2.9777   -5.9205    1.1037 C   0  0  0  0  0  0  0  0  0  0  0  0
    3.1906   -5.7094    2.4186 N   0  0  0  0  0  0  0  0  0  0  0  0
    2.1396   -6.2653    3.0303 C   0  0  0  0  0  0  0  0  0  0  0  0
    1.8900   -6.2490    4.4052 N   0  0  0  0  0  0  0  0  0  0  0  0
    4.3232   -4.8802    2.7363 C   0  0  1  0  0  0  0  0  0  0  0  0
    5.1321   -5.3187    3.9693 C   0  0  0  0  0  0  0  0  0  0  0  0
    5.0879   -4.9488    1.3867 C   0  0  1  0  0  0  0  0  0  0  0  0
    4.0507   -5.3145    0.2786 C   0  0  2  0  0  0  0  0  0  0  0  0
    3.4174   -4.1536   -0.5403 C   0  0  0  0  0  0  0  0  0  0  0  0
    4.3294   -3.3140   -1.5197 C   0  0  1  0  0  0  0  0  0  0  0  0
    5.1676   -4.1792   -2.4831 C   0  0  0  0  0  0  0  0  0  0  0  0
    3.3981   -2.4541   -2.4143 C   0  0  0  0  0  0  0  0  0  0  0  0
    3.6959   -1.0532   -2.0251 C   0  0  0  0  0  0  0  0  0  0  0  0
    4.6671   -0.9655   -1.1240 C   0  0  0  0  0  0  0  0  0  0  0  0
    5.2717   -2.2827   -0.7423 C   0  0  2  0  0  0  0  0  0  0  0  0
    6.7119   -2.2969   -1.2543 C   0  0  0  0  0  0  0  0  0  0  0  0
    7.6708   -3.0804   -0.7195 C   0  0  0  0  0  0  0  0  0  0  0  0
    7.2835   -4.0856    0.2989 C   0  0  1  0  0  0  0  0  0  0  0  0
    7.2817   -3.7399    1.6732 O   0  0  0  0  0  0  0  0  0  0  0  0
    6.0068   -3.8018    1.0509 C   0  0  2  0  0  0  0  0  0  0  0  0
    5.2983   -2.4765    0.8066 C   0  0  1  0  0  0  0  0  0  0  0  0
    5.9479   -1.3119    1.5971 C   0  0  0  0  0  0  0  0  0  0  0  0
    1.9621  -10.7555    2.7567 H   0  0  0  0  0  0  0  0  0  0  0  0
    2.6859   -9.1728    2.6508 H   0  0  0  0  0  0  0  0  0  0  0  0
    1.8412   -9.8450    1.2576 H   0  0  0  0  0  0  0  0  0  0  0  0
   -0.3248   -9.7864    2.5635 H   0  0  0  0  0  0  0  0  0  0  0  0
    0.5064   -9.1020    3.9062 H   0  0  0  0  0  0  0  0  0  0  0  0
   -0.2760   -7.8202    1.2915 H   0  0  0  0  0  0  0  0  0  0  0  0
   -0.5331   -7.2046    2.9159 H   0  0  0  0  0  0  0  0  0  0  0  0
    2.6497   -6.1624    5.0856 H   0  0  0  0  0  0  0  0  0  0  0  0
    3.9079   -3.8883    2.9098 H   0  0  0  0  0  0  0  0  0  0  0  0
    6.0226   -4.6941    4.0883 H   0  0  0  0  0  0  0  0  0  0  0  0
    5.4538   -6.3567    3.8892 H   0  0  0  0  0  0  0  0  0  0  0  0
    4.5421   -5.2129    4.8750 H   0  0  0  0  0  0  0  0  0  0  0  0
    5.7436   -5.8219    1.4725 H   0  0  0  0  0  0  0  0  0  0  0  0
    4.4583   -6.0781   -0.3847 H   0  0  0  0  0  0  0  0  0  0  0  0
    2.6238   -4.6193   -1.1130 H   0  0  0  0  0  0  0  0  0  0  0  0
    2.8485   -3.4806    0.1100 H   0  0  0  0  0  0  0  0  0  0  0  0
    5.7786   -3.5833   -3.1669 H   0  0  0  0  0  0  0  0  0  0  0  0
    4.6423   -4.8420   -3.1552 H   0  0  0  0  0  0  0  0  0  0  0  0
    5.7867   -4.7399   -1.8064 H   0  0  0  0  0  0  0  0  0  0  0  0
    3.6293   -2.5463   -3.4710 H   0  0  0  0  0  0  0  0  0  0  0  0
    2.3377   -2.6561   -2.2623 H   0  0  0  0  0  0  0  0  0  0  0  0
    3.1266   -0.2508   -2.4338 H   0  0  0  0  0  0  0  0  0  0  0  0
    4.9926   -0.0381   -0.6879 H   0  0  0  0  0  0  0  0  0  0  0  0
    6.9111   -1.6649   -2.1043 H   0  0  0  0  0  0  0  0  0  0  0  0
    8.6927   -3.1012   -1.0853 H   0  0  0  0  0  0  0  0  0  0  0  0
    7.5700   -5.1057    0.0568 H   0  0  0  0  0  0  0  0  0  0  0  0
    4.2852   -2.5044    1.2025 H   0  0  0  0  0  0  0  0  0  0  0  0
    6.9692   -1.0843    1.2832 H   0  0  0  0  0  0  0  0  0  0  0  0
    5.9795   -1.5466    2.6630 H   0  0  0  0  0  0  0  0  0  0  0  0
    5.3599   -0.3942    1.5013 H   0  0  0  0  0  0  0  0  0  0  0  0
    0.9653   -6.4733    4.7798 H   0  0  0  0  0  0  0  0  0  0  0  0
  1  2  1  0
  1 28  1  0
  1 29  1  0
  1 30  1  0
  2  3  1  0
  2 31  1  0
  2 32  1  0
  3  4  1  0
  3 33  1  0
  3 34  1  0
  4  8  2  0
  4  5  1  0
  5  6  2  0
  6 13  1  0
  6  7  1  0
  7  8  1  0
  7 10  1  0
  8  9  1  0
  9 35  1  0
  9 58  1  0
 10 11  1  0
 10 12  1  0
 10 36  1  1
 11 37  1  0
 11 38  1  0
 11 39  1  0
 12 25  1  0
 12 13  1  0
 12 40  1  1
 13 14  1  0
 13 41  1  6
 14 15  1  0
 14 42  1  0
 14 43  1  0
 15 20  1  0
 15 16  1  6
 15 17  1  0
 16 44  1  0
 16 45  1  0
 16 46  1  0
 17 18  1  0
 17 47  1  0
 17 48  1  0
 18 19  2  0
 18 49  1  0
 20 19  1  1
 19 50  1  0
 20 26  1  0
 20 21  1  0
 21 22  2  0
 21 51  1  0
 22 23  1  0
 22 52  1  0
 23 25  1  0
 23 24  1  0
 23 53  1  1
 25 24  1  1
 25 26  1  0
 26 27  1  0
 26 54  1  1
 27 55  1  0
 27 56  1  0
 27 57  1  0
M  CHG  1   4   1
M  END
>  <i_m_ct_stereo_status>  (50) 
1

>  <s_m_source_file>  (50) 
/var/tmp/pbs.5076255.sched01/tmpr7id634h/0ay6m0hv_.sdf

>  <i_m_source_file_index>  (50) 
19

>  <i_lp_mmshare_version>  (50) 
48012

>  <i_f3d_flags>  (50) 
0

>  <s_epik_input>  (50) 
W0NIXTE9W0NIXVtDQEBIXShPMilbQ0BAXTIoW0NASF0zW0NIM10pW0NASF00W0NASF0oW0NIM10pbihjKD1OXFtIXSlcbihuNSlbQ0gyXVtDSDJdW0NIM10pYzVbQ0BIXTRbQ0gyXVtDQEBdKFtDQF0xMzYpKFtDSDNdKVtDSDJdW0NIXT1bQ0hdNg==

>  <s_epik_cmdline>  (50) 
J2VwaWtfcHl0aG9uJywgJy1waHQnLCAnMi4wJywgJy1waCcsICc3LjAnLCAnLXRuJywgJzgnLCAnLW1hJywgJzIwMCcsICctaW1hZScsICc8aW5maWxlLm1hZT4nLCAnLW9tYWUnLCAnPG91dGZpbGUubWFlPic=

>  <r_lp_tautomer_probability>  (50) 
1

>  <r_epik_Ionization_Penalty>  (50) 
5.48727e-06

>  <r_epik_Ionization_Penalty_Charging>  (50) 
0

>  <r_epik_Ionization_Penalty_Neutral>  (50) 
5.48727e-06

>  <r_epik_State_Penalty>  (50) 
-0

>  <r_epik_Charging_Adjusted_Penalty>  (50) 
0

>  <i_epik_Tot_Q>  (50) 
1

>  <i_epik_Tot_abs_Q>  (50) 
1

>  <s_lp_Force_Field>  (50) 
OPLS3e

>  <r_lp_Energy>  (50) 
40.4657

>  <b_lp_Chiralities_Consistent>  (50) 
1

>  <s_lp_Variant>  (50) 
9:0-1

>  <s_i_glide_gridfile>  (50) 
pfpi4k_grid

>  <i_i_glide_lignum>  (50) 
19

>  <i_i_glide_rotatable_bonds>  (50) 
2

>  <r_i_docking_score>  (50) 
-2.81713

>  <r_i_glide_ligand_efficiency>  (50) 
-0.104338

>  <r_i_glide_ligand_efficiency_sa>  (50) 
-0.313015

>  <r_i_glide_ligand_efficiency_ln>  (50) 
-0.655782

>  <r_i_glide_gscore>  (50) 
-2.81713

>  <r_i_glide_lipo>  (50) 
-0.663633

>  <r_i_glide_hbond>  (50) 
0

>  <r_i_glide_metal>  (50) 
-0

>  <r_i_glide_rewards>  (50) 
-0.903356

>  <r_i_glide_evdw>  (50) 
-18.9208

>  <r_i_glide_ecoul>  (50) 
-2.64793

>  <r_i_glide_erotb>  (50) 
0.142597

>  <r_i_glide_esite>  (50) 
-0.049512

>  <r_i_glide_emodel>  (50) 
-23.612

>  <r_i_glide_energy>  (50) 
-21.5687

>  <r_i_glide_einternal>  (50) 
1.45176

>  <r_i_glide_intrahb_reward>  (50) 
-0

>  <i_i_glide_confnum>  (50) 
4

>  <i_i_glide_posenum>  (50) 
36

>  <r_i_glide_eff_state_penalty>  (50) 
0

>  <ligand_id>  (50) 
9

>  <original_smiles>  (50) 
CCCn1nc2n(c1=N)C(C)C1C2CC2(C)CC=CC23C=CC2OC21C3C

>  <smiles>  (50) 
[H]C1=C([H])C23C([H])=C([H])C4([H])OC4(C2([H])C([H])([H])[H])C2([H])C([H])(c4n[n+](C([H])([H])C([H])([H])C([H])([H])[H])c(N([H])[H])n4C2([H])C([H])([H])[H])C([H])([H])C3(C([H])([H])[H])C1([H])[H]

$$$$
9:0:2
     RDKit          3D

 58 63  0  0  1  0  0  0  0  0999 V2000
   -1.9870   -8.8820    2.3724 C   0  0  0  0  0  0  0  0  0  0  0  0
   -0.9954   -7.7256    2.2176 C   0  0  0  0  0  0  0  0  0  0  0  0
    0.2283   -7.8543    3.1215 C   0  0  0  0  0  0  0  0  0  0  0  0
    1.1788   -6.7631    2.9074 N   0  0  0  0  0  0  0  0  0  0  0  0
    1.9796   -6.7410    1.8353 N   0  0  0  0  0  0  0  0  0  0  0  0
    2.6950   -5.6469    1.9575 C   0  0  0  0  0  0  0  0  0  0  0  0
    2.3740   -4.9621    3.0729 N   0  0  0  0  0  0  0  0  0  0  0  0
    1.3769   -5.6517    3.6450 C   0  0  0  0  0  0  0  0  0  0  0  0
    0.6676   -5.2664    4.7812 N   0  0  0  0  0  0  0  0  0  0  0  0
    3.0458   -3.6950    3.2293 C   0  0  1  0  0  0  0  0  0  0  0  0
    3.4949   -3.3802    4.6655 C   0  0  0  0  0  0  0  0  0  0  0  0
    4.2103   -3.8826    2.2149 C   0  0  1  0  0  0  0  0  0  0  0  0
    3.7383   -4.9510    1.1744 C   0  0  2  0  0  0  0  0  0  0  0  0
    3.1238   -4.4451   -0.1669 C   0  0  0  0  0  0  0  0  0  0  0  0
    4.0359   -3.6631   -1.1795 C   0  0  1  0  0  0  0  0  0  0  0  0
    5.2906   -4.5167   -1.4691 C   0  0  0  0  0  0  0  0  0  0  0  0
    3.2466   -3.5049   -2.5236 C   0  0  0  0  0  0  0  0  0  0  0  0
    3.0308   -2.0537   -2.7076 C   0  0  0  0  0  0  0  0  0  0  0  0
    3.6455   -1.3363   -1.7894 C   0  0  0  0  0  0  0  0  0  0  0  0
    4.3745   -2.1664   -0.7621 C   0  0  2  0  0  0  0  0  0  0  0  0
    5.8515   -1.8140   -0.9160 C   0  0  0  0  0  0  0  0  0  0  0  0
    6.7407   -1.9796    0.0878 C   0  0  0  0  0  0  0  0  0  0  0  0
    6.2988   -2.6512    1.3252 C   0  0  1  0  0  0  0  0  0  0  0  0
    5.7735   -1.8470    2.3834 O   0  0  0  0  0  0  0  0  0  0  0  0
    4.8383   -2.6292    1.6213 C   0  0  2  0  0  0  0  0  0  0  0  0
    3.9272   -1.8362    0.6952 C   0  0  1  0  0  0  0  0  0  0  0  0
    3.9339   -0.3367    1.0621 C   0  0  0  0  0  0  0  0  0  0  0  0
   -2.8434   -8.7453    1.6936 H   0  0  0  0  0  0  0  0  0  0  0  0
   -2.3628   -8.9567    3.3948 H   0  0  0  0  0  0  0  0  0  0  0  0
   -1.5287   -9.8348    2.1115 H   0  0  0  0  0  0  0  0  0  0  0  0
   -0.6657   -7.6812    1.1800 H   0  0  0  0  0  0  0  0  0  0  0  0
   -1.5126   -6.7901    2.4349 H   0  0  0  0  0  0  0  0  0  0  0  0
   -0.0640   -7.8699    4.1696 H   0  0  0  0  0  0  0  0  0  0  0  0
    0.7488   -8.7862    2.9250 H   0  0  0  0  0  0  0  0  0  0  0  0
    1.1028   -4.6586    5.4819 H   0  0  0  0  0  0  0  0  0  0  0  0
    2.3357   -2.9401    2.8920 H   0  0  0  0  0  0  0  0  0  0  0  0
    4.0943   -2.4674    4.6914 H   0  0  0  0  0  0  0  0  0  0  0  0
    4.0926   -4.1876    5.0907 H   0  0  0  0  0  0  0  0  0  0  0  0
    2.6364   -3.2188    5.3124 H   0  0  0  0  0  0  0  0  0  0  0  0
    5.0123   -4.3677    2.7787 H   0  0  0  0  0  0  0  0  0  0  0  0
    4.5274   -5.6705    0.9767 H   0  0  0  0  0  0  0  0  0  0  0  0
    2.7678   -5.3324   -0.6831 H   0  0  0  0  0  0  0  0  0  0  0  0
    2.2087   -3.8785    0.0035 H   0  0  0  0  0  0  0  0  0  0  0  0
    5.8781   -4.0842   -2.2805 H   0  0  0  0  0  0  0  0  0  0  0  0
    5.0049   -5.5214   -1.7846 H   0  0  0  0  0  0  0  0  0  0  0  0
    5.9379   -4.6290   -0.5985 H   0  0  0  0  0  0  0  0  0  0  0  0
    3.8134   -3.8590   -3.3885 H   0  0  0  0  0  0  0  0  0  0  0  0
    2.2545   -3.9567   -2.5178 H   0  0  0  0  0  0  0  0  0  0  0  0
    2.4309   -1.6610   -3.5071 H   0  0  0  0  0  0  0  0  0  0  0  0
    3.6308   -0.2633   -1.7779 H   0  0  0  0  0  0  0  0  0  0  0  0
    6.1422   -1.3875   -1.8617 H   0  0  0  0  0  0  0  0  0  0  0  0
    7.7882   -1.7296    0.0212 H   0  0  0  0  0  0  0  0  0  0  0  0
    6.9051   -3.5102    1.6197 H   0  0  0  0  0  0  0  0  0  0  0  0
    2.8899   -2.1223    0.8654 H   0  0  0  0  0  0  0  0  0  0  0  0
    4.9029    0.1317    0.8827 H   0  0  0  0  0  0  0  0  0  0  0  0
    3.6898   -0.1983    2.1198 H   0  0  0  0  0  0  0  0  0  0  0  0
    3.1762    0.1846    0.4790 H   0  0  0  0  0  0  0  0  0  0  0  0
   -0.2156   -5.7284    5.0273 H   0  0  0  0  0  0  0  0  0  0  0  0
  1  2  1  0
  1 28  1  0
  1 29  1  0
  1 30  1  0
  2  3  1  0
  2 31  1  0
  2 32  1  0
  3  4  1  0
  3 33  1  0
  3 34  1  0
  4  8  2  0
  4  5  1  0
  5  6  2  0
  6 13  1  0
  6  7  1  0
  7  8  1  0
  7 10  1  0
  8  9  1  0
  9 35  1  0
  9 58  1  0
 10 11  1  0
 10 12  1  0
 10 36  1  6
 11 37  1  0
 11 38  1  0
 11 39  1  0
 12 25  1  0
 12 13  1  0
 12 40  1  1
 13 14  1  0
 13 41  1  6
 14 15  1  0
 14 42  1  0
 14 43  1  0
 15 20  1  0
 15 16  1  6
 15 17  1  0
 16 44  1  0
 16 45  1  0
 16 46  1  0
 17 18  1  0
 17 47  1  0
 17 48  1  0
 18 19  2  0
 18 49  1  0
 20 19  1  6
 19 50  1  0
 20 26  1  0
 20 21  1  0
 21 22  2  0
 21 51  1  0
 22 23  1  0
 22 52  1  0
 23 25  1  0
 23 24  1  0
 23 53  1  1
 25 24  1  1
 25 26  1  0
 26 27  1  0
 26 54  1  6
 27 55  1  0
 27 56  1  0
 27 57  1  0
M  CHG  1   4   1
M  END
>  <i_m_ct_stereo_status>  (51) 
1

>  <s_m_source_file>  (51) 
/var/tmp/pbs.5076255.sched01/tmpr7id634h/0ay6m0hv_.sdf

>  <i_m_source_file_index>  (51) 
19

>  <i_lp_mmshare_version>  (51) 
48012

>  <i_f3d_flags>  (51) 
0

>  <s_epik_input>  (51) 
W0NIXTE9W0NIXVtDQEBIXShPMilbQ0BAXTIoW0NASF0zW0NIM10pW0NASF00W0NASF0oW0NIM10pbihjKD1OXFtIXSlcbihuNSlbQ0gyXVtDSDJdW0NIM10pYzVbQ0BIXTRbQ0gyXVtDQEBdKFtDQF0xMzYpKFtDSDNdKVtDSDJdW0NIXT1bQ0hdNg==

>  <s_epik_cmdline>  (51) 
J2VwaWtfcHl0aG9uJywgJy1waHQnLCAnMi4wJywgJy1waCcsICc3LjAnLCAnLXRuJywgJzgnLCAnLW1hJywgJzIwMCcsICctaW1hZScsICc8aW5maWxlLm1hZT4nLCAnLW9tYWUnLCAnPG91dGZpbGUubWFlPic=

>  <r_lp_tautomer_probability>  (51) 
1

>  <r_epik_Ionization_Penalty>  (51) 
5.48727e-06

>  <r_epik_Ionization_Penalty_Charging>  (51) 
0

>  <r_epik_Ionization_Penalty_Neutral>  (51) 
5.48727e-06

>  <r_epik_State_Penalty>  (51) 
-0

>  <r_epik_Charging_Adjusted_Penalty>  (51) 
0

>  <i_epik_Tot_Q>  (51) 
1

>  <i_epik_Tot_abs_Q>  (51) 
1

>  <s_lp_Force_Field>  (51) 
OPLS3e

>  <r_lp_Energy>  (51) 
40.4657

>  <b_lp_Chiralities_Consistent>  (51) 
1

>  <s_lp_Variant>  (51) 
9:0-1

>  <s_i_glide_gridfile>  (51) 
pfpi4k_grid

>  <i_i_glide_lignum>  (51) 
19

>  <i_i_glide_rotatable_bonds>  (51) 
2

>  <r_i_docking_score>  (51) 
-2.66572

>  <r_i_glide_ligand_efficiency>  (51) 
-0.0987304

>  <r_i_glide_ligand_efficiency_sa>  (51) 
-0.296191

>  <r_i_glide_ligand_efficiency_ln>  (51) 
-0.620536

>  <r_i_glide_gscore>  (51) 
-2.66572

>  <r_i_glide_lipo>  (51) 
-0.477937

>  <r_i_glide_hbond>  (51) 
0

>  <r_i_glide_metal>  (51) 
-0

>  <r_i_glide_rewards>  (51) 
-0.903356

>  <r_i_glide_evdw>  (51) 
-23.7309

>  <r_i_glide_ecoul>  (51) 
-1.18038

>  <r_i_glide_erotb>  (51) 
0.142597

>  <r_i_glide_esite>  (51) 
-0.0634211

>  <r_i_glide_emodel>  (51) 
-28.3321

>  <r_i_glide_energy>  (51) 
-24.9113

>  <r_i_glide_einternal>  (51) 
0.0248343

>  <r_i_glide_intrahb_reward>  (51) 
-0

>  <i_i_glide_confnum>  (51) 
4

>  <i_i_glide_posenum>  (51) 
22

>  <r_i_glide_eff_state_penalty>  (51) 
0

>  <ligand_id>  (51) 
9

>  <original_smiles>  (51) 
CCCn1nc2n(c1=N)C(C)C1C2CC2(C)CC=CC23C=CC2OC21C3C

>  <smiles>  (51) 
[H]C1=C([H])C23C([H])=C([H])C4([H])OC4(C2([H])C([H])([H])[H])C2([H])C([H])(c4n[n+](C([H])([H])C([H])([H])C([H])([H])[H])c(N([H])[H])n4C2([H])C([H])([H])[H])C([H])([H])C3(C([H])([H])[H])C1([H])[H]

$$$$
10:0:0
     RDKit          3D

 26 27  0  0  1  0  0  0  0  0999 V2000
   -6.9782   -4.6686   -3.0504 C   0  0  0  0  0  0  0  0  0  0  0  0
   -6.6949   -5.1590   -4.4760 C   0  0  0  0  0  0  0  0  0  0  0  0
   -6.0779   -3.9728   -5.2034 C   0  0  0  0  0  0  0  0  0  0  0  0
   -8.0007   -5.5792   -5.1525 C   0  0  0  0  0  0  0  0  0  0  0  0
   -7.8192   -6.1266   -6.4866 N   0  0  0  0  0  0  0  0  0  0  0  0
   -8.2609   -5.5232   -7.6470 C   0  0  0  0  0  0  0  0  0  0  0  0
   -8.8394   -4.4285   -7.7654 O   0  0  0  0  0  0  0  0  0  0  0  0
   -7.9378   -6.3484   -8.6716 O   0  0  0  0  0  0  0  0  0  0  0  0
   -7.3229   -7.4526   -8.1588 C   0  0  0  0  0  0  0  0  0  0  0  0
   -6.7528   -8.5372   -8.8372 C   0  0  0  0  0  0  0  0  0  0  0  0
   -6.1529   -9.5315   -8.0455 C   0  0  0  0  0  0  0  0  0  0  0  0
   -6.1410   -9.3857   -6.6362 C   0  0  0  0  0  0  0  0  0  0  0  0
   -6.6704   -8.3067   -5.9940 N   0  0  0  0  0  0  0  0  0  0  0  0
   -7.2384   -7.3734   -6.7802 C   0  0  0  0  0  0  0  0  0  0  0  0
   -7.7390   -3.9253   -3.1573 H   0  0  0  0  0  0  0  0  0  0  0  0
   -6.1586   -4.2212   -2.4992 H   0  0  0  0  0  0  0  0  0  0  0  0
   -7.3296   -5.4420   -2.3839 H   0  0  0  0  0  0  0  0  0  0  0  0
   -5.9761   -5.9840   -4.4532 H   0  0  0  0  0  0  0  0  0  0  0  0
   -6.8069   -3.1716   -5.1343 H   0  0  0  0  0  0  0  0  0  0  0  0
   -5.8682   -4.1805   -6.2368 H   0  0  0  0  0  0  0  0  0  0  0  0
   -5.1676   -3.6371   -4.7157 H   0  0  0  0  0  0  0  0  0  0  0  0
   -8.4809   -6.3875   -4.6593 H   0  0  0  0  0  0  0  0  0  0  0  0
   -8.7594   -4.7841   -5.1479 H   0  0  0  0  0  0  0  0  0  0  0  0
   -6.7605   -8.5782   -9.9132 H   0  0  0  0  0  0  0  0  0  0  0  0
   -5.6970  -10.3958   -8.5142 H   0  0  0  0  0  0  0  0  0  0  0  0
   -5.6885  -10.1474   -6.0206 H   0  0  0  0  0  0  0  0  0  0  0  0
  1  2  1  0
  1 15  1  0
  1 16  1  0
  1 17  1  0
  2  3  1  0
  2  4  1  0
  2 18  1  0
  3 19  1  0
  3 20  1  0
  3 21  1  0
  4  5  1  0
  4 22  1  0
  4 23  1  0
  5 14  1  0
  5  6  1  0
  6  7  2  0
  6  8  1  0
  8  9  1  0
  9 14  2  0
  9 10  1  0
 10 11  2  0
 10 24  1  0
 11 12  1  0
 11 25  1  0
 12 13  2  0
 12 26  1  0
 13 14  1  0
M  END
>  <i_m_ct_stereo_status>  (52) 
1

>  <s_m_source_file>  (52) 
/var/tmp/pbs.5076255.sched01/tmpr7id634h/0ay6m0hv_.sdf

>  <i_m_source_file_index>  (52) 
20

>  <i_lp_mmshare_version>  (52) 
48012

>  <i_f3d_flags>  (52) 
0

>  <s_epik_input>  (52) 
W0NIM11bQ0hdKFtDSDNdKVtDSDJdbihjKD1PKW8xKWMoYzEyKW5bY0hdW2NIXVtjSF0y

>  <s_epik_cmdline>  (52) 
J2VwaWtfcHl0aG9uJywgJy1waHQnLCAnMi4wJywgJy1waCcsICc3LjAnLCAnLXRuJywgJzgnLCAnLW1hJywgJzIwMCcsICctaW1hZScsICc8aW5maWxlLm1hZT4nLCAnLW9tYWUnLCAnPG91dGZpbGUubWFlPic=

>  <r_lp_tautomer_probability>  (52) 
1

>  <r_epik_Ionization_Penalty>  (52) 
4.88538e-08

>  <r_epik_Ionization_Penalty_Charging>  (52) 
3.02584e-15

>  <r_epik_Ionization_Penalty_Neutral>  (52) 
4.88538e-08

>  <r_epik_State_Penalty>  (52) 
-0

>  <r_epik_Charging_Adjusted_Penalty>  (52) 
3.02584e-15

>  <i_epik_Tot_Q>  (52) 
0

>  <i_epik_Tot_abs_Q>  (52) 
0

>  <s_lp_Force_Field>  (52) 
OPLS3e

>  <r_lp_Energy>  (52) 
16.345

>  <b_lp_Chiralities_Consistent>  (52) 
1

>  <s_lp_Variant>  (52) 
10:0-1

>  <s_i_glide_gridfile>  (52) 
pfpi4k_grid

>  <i_i_glide_lignum>  (52) 
20

>  <i_i_glide_rotatable_bonds>  (52) 
2

>  <r_i_docking_score>  (52) 
-5.26215

>  <r_i_glide_ligand_efficiency>  (52) 
-0.375868

>  <r_i_glide_ligand_efficiency_sa>  (52) 
-0.905894

>  <r_i_glide_ligand_efficiency_ln>  (52) 
-1.44602

>  <r_i_glide_gscore>  (52) 
-5.26215

>  <r_i_glide_lipo>  (52) 
-1.74043

>  <r_i_glide_hbond>  (52) 
0

>  <r_i_glide_metal>  (52) 
-0

>  <r_i_glide_rewards>  (52) 
-3.1457

>  <r_i_glide_evdw>  (52) 
-3.98405

>  <r_i_glide_ecoul>  (52) 
-1.17877

>  <r_i_glide_erotb>  (52) 
0

>  <r_i_glide_esite>  (52) 
0

>  <r_i_glide_emodel>  (52) 
-11.1317

>  <r_i_glide_energy>  (52) 
-5.16282

>  <r_i_glide_einternal>  (52) 
0.397316

>  <r_i_glide_intrahb_reward>  (52) 
-0

>  <i_i_glide_confnum>  (52) 
2

>  <i_i_glide_posenum>  (52) 
1

>  <r_i_glide_eff_state_penalty>  (52) 
0

>  <ligand_id>  (52) 
10

>  <original_smiles>  (52) 
CC(C)Cn1c(=O)oc2cccnc21

>  <smiles>  (52) 
[H]c1nc2c(oc(=O)n2C([H])([H])C([H])(C([H])([H])[H])C([H])([H])[H])c([H])c1[H]

$$$$
10:0:1
     RDKit          3D

 26 27  0  0  1  0  0  0  0  0999 V2000
    4.6774   -6.5717    1.0352 C   0  0  0  0  0  0  0  0  0  0  0  0
    4.4362   -5.0901    0.7088 C   0  0  0  0  0  0  0  0  0  0  0  0
    2.9346   -4.8066    0.5410 C   0  0  0  0  0  0  0  0  0  0  0  0
    5.2701   -4.6678   -0.5215 C   0  0  0  0  0  0  0  0  0  0  0  0
    5.1300   -3.2517   -0.8592 N   0  0  0  0  0  0  0  0  0  0  0  0
    5.7212   -2.2061   -0.1485 C   0  0  0  0  0  0  0  0  0  0  0  0
    6.4211   -2.2727    0.8603 O   0  0  0  0  0  0  0  0  0  0  0  0
    5.4139   -1.0558   -0.8121 O   0  0  0  0  0  0  0  0  0  0  0  0
    4.6760   -1.3711   -1.9131 C   0  0  0  0  0  0  0  0  0  0  0  0
    4.1434   -0.5255   -2.8976 C   0  0  0  0  0  0  0  0  0  0  0  0
    3.4126   -1.1395   -3.9358 C   0  0  0  0  0  0  0  0  0  0  0  0
    3.2572   -2.5466   -3.9187 C   0  0  0  0  0  0  0  0  0  0  0  0
    3.8021   -3.3487   -2.9748 N   0  0  0  0  0  0  0  0  0  0  0  0
    4.4806   -2.7381   -1.9838 C   0  0  0  0  0  0  0  0  0  0  0  0
    4.3404   -7.2172    0.2231 H   0  0  0  0  0  0  0  0  0  0  0  0
    4.1464   -6.8694    1.9401 H   0  0  0  0  0  0  0  0  0  0  0  0
    5.7368   -6.7708    1.1990 H   0  0  0  0  0  0  0  0  0  0  0  0
    4.7820   -4.5113    1.5662 H   0  0  0  0  0  0  0  0  0  0  0  0
    2.5276   -5.3349   -0.3203 H   0  0  0  0  0  0  0  0  0  0  0  0
    2.7380   -3.7427    0.4050 H   0  0  0  0  0  0  0  0  0  0  0  0
    2.3778   -5.1306    1.4201 H   0  0  0  0  0  0  0  0  0  0  0  0
    6.3240   -4.8705   -0.3212 H   0  0  0  0  0  0  0  0  0  0  0  0
    5.0094   -5.2748   -1.3896 H   0  0  0  0  0  0  0  0  0  0  0  0
    4.2810    0.5451   -2.8549 H   0  0  0  0  0  0  0  0  0  0  0  0
    2.9591   -0.5465   -4.7172 H   0  0  0  0  0  0  0  0  0  0  0  0
    2.6917   -3.0460   -4.6913 H   0  0  0  0  0  0  0  0  0  0  0  0
  1  2  1  0
  1 15  1  0
  1 16  1  0
  1 17  1  0
  2  3  1  0
  2  4  1  0
  2 18  1  0
  3 19  1  0
  3 20  1  0
  3 21  1  0
  4  5  1  0
  4 22  1  0
  4 23  1  0
  5 14  1  0
  5  6  1  0
  6  7  2  0
  6  8  1  0
  8  9  1  0
  9 14  2  0
  9 10  1  0
 10 11  2  0
 10 24  1  0
 11 12  1  0
 11 25  1  0
 12 13  2  0
 12 26  1  0
 13 14  1  0
M  END
>  <i_m_ct_stereo_status>  (53) 
1

>  <s_m_source_file>  (53) 
/var/tmp/pbs.5076255.sched01/tmpr7id634h/0ay6m0hv_.sdf

>  <i_m_source_file_index>  (53) 
20

>  <i_lp_mmshare_version>  (53) 
48012

>  <i_f3d_flags>  (53) 
0

>  <s_epik_input>  (53) 
W0NIM11bQ0hdKFtDSDNdKVtDSDJdbihjKD1PKW8xKWMoYzEyKW5bY0hdW2NIXVtjSF0y

>  <s_epik_cmdline>  (53) 
J2VwaWtfcHl0aG9uJywgJy1waHQnLCAnMi4wJywgJy1waCcsICc3LjAnLCAnLXRuJywgJzgnLCAnLW1hJywgJzIwMCcsICctaW1hZScsICc8aW5maWxlLm1hZT4nLCAnLW9tYWUnLCAnPG91dGZpbGUubWFlPic=

>  <r_lp_tautomer_probability>  (53) 
1

>  <r_epik_Ionization_Penalty>  (53) 
4.88538e-08

>  <r_epik_Ionization_Penalty_Charging>  (53) 
3.02584e-15

>  <r_epik_Ionization_Penalty_Neutral>  (53) 
4.88538e-08

>  <r_epik_State_Penalty>  (53) 
-0

>  <r_epik_Charging_Adjusted_Penalty>  (53) 
3.02584e-15

>  <i_epik_Tot_Q>  (53) 
0

>  <i_epik_Tot_abs_Q>  (53) 
0

>  <s_lp_Force_Field>  (53) 
OPLS3e

>  <r_lp_Energy>  (53) 
16.345

>  <b_lp_Chiralities_Consistent>  (53) 
1

>  <s_lp_Variant>  (53) 
10:0-1

>  <s_i_glide_gridfile>  (53) 
pfpi4k_grid

>  <i_i_glide_lignum>  (53) 
20

>  <i_i_glide_rotatable_bonds>  (53) 
2

>  <r_i_docking_score>  (53) 
-3.70815

>  <r_i_glide_ligand_efficiency>  (53) 
-0.264868

>  <r_i_glide_ligand_efficiency_sa>  (53) 
-0.638369

>  <r_i_glide_ligand_efficiency_ln>  (53) 
-1.01899

>  <r_i_glide_gscore>  (53) 
-3.70815

>  <r_i_glide_lipo>  (53) 
-0.584848

>  <r_i_glide_hbond>  (53) 
0

>  <r_i_glide_metal>  (53) 
-0

>  <r_i_glide_rewards>  (53) 
-2.16734

>  <r_i_glide_evdw>  (53) 
-22.5636

>  <r_i_glide_ecoul>  (53) 
1.1534

>  <r_i_glide_erotb>  (53) 
0

>  <r_i_glide_esite>  (53) 
-0.000792669

>  <r_i_glide_emodel>  (53) 
-26.2691

>  <r_i_glide_energy>  (53) 
-21.4102

>  <r_i_glide_einternal>  (53) 
0.0199894

>  <r_i_glide_intrahb_reward>  (53) 
-0

>  <i_i_glide_confnum>  (53) 
1

>  <i_i_glide_posenum>  (53) 
28

>  <r_i_glide_eff_state_penalty>  (53) 
0

>  <ligand_id>  (53) 
10

>  <original_smiles>  (53) 
CC(C)Cn1c(=O)oc2cccnc21

>  <smiles>  (53) 
[H]c1nc2c(oc(=O)n2C([H])([H])C([H])(C([H])([H])[H])C([H])([H])[H])c([H])c1[H]

$$$$
12:0:0
     RDKit          3D

 71 77  0  0  1  0  0  0  0  0999 V2000
    7.3237   -7.0050    3.2932 C   0  0  0  0  0  0  0  0  0  0  0  0
    5.9226   -6.4012    3.0668 C   0  0  2  0  0  0  0  0  0  0  0  0
    4.8550   -7.5145    3.2645 C   0  0  0  0  0  0  0  0  0  0  0  0
    5.0790   -8.3785    4.0963 O   0  0  0  0  0  0  0  0  0  0  0  0
    3.6886   -7.4328    2.5794 N   0  0  0  0  0  0  0  0  0  0  0  0
    2.5138   -8.2841    2.9859 C   0  0  2  0  0  0  0  0  0  0  0  0
    1.2318   -8.0655    2.1351 C   0  0  2  0  0  0  0  0  0  0  0  0
    0.6396   -6.6390    2.3965 C   0  0  0  0  0  0  0  0  0  0  0  0
    0.2881   -6.4993    3.8848 C   0  0  1  0  0  0  0  0  0  0  0  0
   -0.7847   -7.5477    4.2387 C   0  0  0  0  0  0  0  0  0  0  0  0
   -0.2192   -8.9534    3.9642 C   0  0  1  0  0  0  0  0  0  0  0  0
    0.1731   -9.1088    2.4915 C   0  0  0  0  0  0  0  0  0  0  0  0
    1.0223   -9.2033    4.8373 C   0  0  0  0  0  0  0  0  0  0  0  0
    2.0978   -8.1491    4.4953 C   0  0  2  0  0  0  0  0  0  0  0  0
    1.5421   -6.7341    4.7558 C   0  0  0  0  0  0  0  0  0  0  0  0
    3.6957   -6.7768    1.2602 C   0  0  0  0  0  0  0  0  0  0  0  0
    4.3692   -5.3939    1.3109 C   0  0  1  0  0  0  0  0  0  0  0  0
    5.8281   -5.6632    1.7028 C   0  0  1  0  0  0  0  0  0  0  0  0
    6.6166   -4.3548    1.6692 C   0  0  0  0  0  0  0  0  0  0  0  0
    6.5552   -3.6935    0.2850 C   0  0  0  0  0  0  0  0  0  0  0  0
    5.1025   -3.4003   -0.1397 C   0  0  2  0  0  0  0  0  0  0  0  0
    4.2492   -4.6740   -0.0458 C   0  0  2  0  0  0  0  0  0  0  0  0
    2.8948   -4.2676   -0.2191 O   0  0  0  0  0  0  0  0  0  0  0  0
    2.4918   -3.6202   -1.3273 C   0  0  0  0  0  0  0  0  0  0  0  0
    1.3162   -3.4603   -1.6108 O   0  0  0  0  0  0  0  0  0  0  0  0
    3.6259   -3.1947   -2.2863 C   0  0  1  0  0  0  0  0  0  0  0  0
    3.2164   -2.0620   -3.2541 C   0  0  0  0  0  0  0  0  0  0  0  0
    4.0194   -0.8299   -2.8306 C   0  0  0  0  0  0  0  0  0  0  0  0
    4.6816   -1.1997   -1.4950 C   0  0  1  0  0  0  0  0  0  0  0  0
    3.8059   -0.8317   -0.4465 O   0  0  0  0  0  0  0  0  0  0  0  0
    4.9105   -2.7239   -1.5539 C   0  0  1  0  0  0  0  0  0  0  0  0
    6.0882   -3.0488   -2.4903 C   0  0  0  0  0  0  0  0  0  0  0  0
    7.4009   -7.4699    4.2791 H   0  0  0  0  0  0  0  0  0  0  0  0
    8.1126   -6.2595    3.2379 H   0  0  0  0  0  0  0  0  0  0  0  0
    7.5296   -7.7838    2.5542 H   0  0  0  0  0  0  0  0  0  0  0  0
    5.7306   -5.6698    3.8650 H   0  0  0  0  0  0  0  0  0  0  0  0
    2.8410   -9.3151    2.8287 H   0  0  0  0  0  0  0  0  0  0  0  0
    1.4395   -8.2422    1.0723 H   0  0  0  0  0  0  0  0  0  0  0  0
    1.3333   -5.8288    2.1792 H   0  0  0  0  0  0  0  0  0  0  0  0
   -0.2383   -6.4955    1.7617 H   0  0  0  0  0  0  0  0  0  0  0  0
   -0.0907   -5.4958    4.0824 H   0  0  0  0  0  0  0  0  0  0  0  0
   -1.0671   -7.4413    5.2794 H   0  0  0  0  0  0  0  0  0  0  0  0
   -1.6738   -7.3778    3.6323 H   0  0  0  0  0  0  0  0  0  0  0  0
   -0.9842   -9.6889    4.1643 H   0  0  0  0  0  0  0  0  0  0  0  0
   -0.7115   -8.9855    1.8659 H   0  0  0  0  0  0  0  0  0  0  0  0
    0.5310  -10.1248    2.2978 H   0  0  0  0  0  0  0  0  0  0  0  0
    0.7623   -9.1594    5.8942 H   0  0  0  0  0  0  0  0  0  0  0  0
    1.4112  -10.2107    4.6668 H   0  0  0  0  0  0  0  0  0  0  0  0
    2.9150   -8.3383    5.1960 H   0  0  0  0  0  0  0  0  0  0  0  0
    2.3109   -5.9928    4.5211 H   0  0  0  0  0  0  0  0  0  0  0  0
    1.3110   -6.6043    5.8133 H   0  0  0  0  0  0  0  0  0  0  0  0
    4.2076   -7.4346    0.5626 H   0  0  0  0  0  0  0  0  0  0  0  0
    2.7057   -6.5838    0.8322 H   0  0  0  0  0  0  0  0  0  0  0  0
    3.9079   -4.7553    2.0647 H   0  0  0  0  0  0  0  0  0  0  0  0
    6.2329   -6.3334    0.9422 H   0  0  0  0  0  0  0  0  0  0  0  0
    6.2185   -3.6650    2.4197 H   0  0  0  0  0  0  0  0  0  0  0  0
    7.6593   -4.5499    1.9110 H   0  0  0  0  0  0  0  0  0  0  0  0
    7.1328   -2.7718    0.3007 H   0  0  0  0  0  0  0  0  0  0  0  0
    7.0313   -4.3755   -0.4129 H   0  0  0  0  0  0  0  0  0  0  0  0
    4.7045   -2.7473    0.6301 H   0  0  0  0  0  0  0  0  0  0  0  0
    4.5448   -5.3812   -0.8261 H   0  0  0  0  0  0  0  0  0  0  0  0
    3.8320   -4.0837   -2.8677 H   0  0  0  0  0  0  0  0  0  0  0  0
    3.4523   -2.3370   -4.2788 H   0  0  0  0  0  0  0  0  0  0  0  0
    2.1480   -1.8575   -3.2351 H   0  0  0  0  0  0  0  0  0  0  0  0
    4.7752   -0.6500   -3.5918 H   0  0  0  0  0  0  0  0  0  0  0  0
    3.4069    0.0715   -2.7786 H   0  0  0  0  0  0  0  0  0  0  0  0
    5.6234   -0.6671   -1.3578 H   0  0  0  0  0  0  0  0  0  0  0  0
    2.9131   -1.0460   -0.6920 H   0  0  0  0  0  0  0  0  0  0  0  0
    5.9287   -2.6648   -3.4993 H   0  0  0  0  0  0  0  0  0  0  0  0
    6.2195   -4.1235   -2.5957 H   0  0  0  0  0  0  0  0  0  0  0  0
    7.0212   -2.6059   -2.1336 H   0  0  0  0  0  0  0  0  0  0  0  0
  1  2  1  0
  1 33  1  0
  1 34  1  0
  1 35  1  0
  2 18  1  0
  2  3  1  0
  2 36  1  1
  3  4  2  0
  3  5  1  0
  5  6  1  0
  5 16  1  0
  6 14  1  0
  6  7  1  0
  6 37  1  1
  7 12  1  0
  7  8  1  0
  7 38  1  6
  8  9  1  0
  8 39  1  0
  8 40  1  0
  9 15  1  0
  9 10  1  0
  9 41  1  6
 10 11  1  0
 10 42  1  0
 10 43  1  0
 11 12  1  0
 11 13  1  0
 11 44  1  1
 12 45  1  0
 12 46  1  0
 13 14  1  0
 13 47  1  0
 13 48  1  0
 14 15  1  0
 14 49  1  1
 15 50  1  0
 15 51  1  0
 16 17  1  0
 16 52  1  0
 16 53  1  0
 17 22  1  0
 17 18  1  0
 17 54  1  1
 18 19  1  0
 18 55  1  6
 19 20  1  0
 19 56  1  0
 19 57  1  0
 20 21  1  0
 20 58  1  0
 20 59  1  0
 21 31  1  0
 21 22  1  0
 21 60  1  1
 22 23  1  0
 22 61  1  6
 23 24  1  0
 24 25  2  0
 24 26  1  0
 26 31  1  0
 26 27  1  0
 26 62  1  6
 27 28  1  0
 27 63  1  0
 27 64  1  0
 28 29  1  0
 28 65  1  0
 28 66  1  0
 29 30  1  0
 29 31  1  0
 29 67  1  1
 30 68  1  0
 31 32  1  6
 32 69  1  0
 32 70  1  0
 32 71  1  0
M  END
>  <i_m_ct_stereo_status>  (54) 
1

>  <s_m_source_file>  (54) 
/var/tmp/pbs.5076255.sched01/tmpr7id634h/0ay6m0hv_.sdf

>  <i_m_source_file_index>  (54) 
22

>  <i_lp_mmshare_version>  (54) 
48012

>  <i_f3d_flags>  (54) 
0

>  <s_epik_input>  (54) 
W0NIMl0xW0NAQEhdKFtDSDJdMilbQ0gyXVtDQEhdKFtDSDJdMylbQ0gyXVtDQEBIXTJbQ0BASF0oW0NAQEhdMTMpTihbQ0gyXTQpQyg9TylbQ0BASF0oW0NIM10pW0NASF0oW0NIMl1bQ0gyXTUpW0NASF00W0NASF0oW0NAQEhdNVtDQEBdNjdbQ0gzXSlPQyg9TylbQ0BIXTZbQ0gyXVtDSDJdW0NASF03W09IXQ==

>  <s_epik_cmdline>  (54) 
J2VwaWtfcHl0aG9uJywgJy1waHQnLCAnMi4wJywgJy1waCcsICc3LjAnLCAnLXRuJywgJzgnLCAnLW1hJywgJzIwMCcsICctaW1hZScsICc8aW5maWxlLm1hZT4nLCAnLW9tYWUnLCAnPG91dGZpbGUubWFlPic=

>  <r_lp_tautomer_probability>  (54) 
1

>  <r_epik_Ionization_Penalty>  (54) 
3.89243e-07

>  <r_epik_Ionization_Penalty_Charging>  (54) 
0

>  <r_epik_Ionization_Penalty_Neutral>  (54) 
3.89243e-07

>  <r_epik_State_Penalty>  (54) 
-0

>  <r_epik_Charging_Adjusted_Penalty>  (54) 
0

>  <i_epik_Tot_Q>  (54) 
0

>  <i_epik_Tot_abs_Q>  (54) 
0

>  <s_epik_Chemistry_Notes>  (54) 
This compound has an ester and may undergo hydrolysis at high or low pH.

>  <s_lp_Force_Field>  (54) 
OPLS3e

>  <r_lp_Energy>  (54) 
64.1372

>  <b_lp_Chiralities_Consistent>  (54) 
1

>  <s_lp_Variant>  (54) 
12:0-1

>  <s_i_glide_gridfile>  (54) 
pfpi4k_grid

>  <i_i_glide_lignum>  (54) 
22

>  <i_i_glide_rotatable_bonds>  (54) 
2

>  <r_i_docking_score>  (54) 
-3.07785

>  <r_i_glide_ligand_efficiency>  (54) 
-0.0961828

>  <r_i_glide_ligand_efficiency_sa>  (54) 
-0.305361

>  <r_i_glide_ligand_efficiency_ln>  (54) 
-0.689215

>  <r_i_glide_gscore>  (54) 
-3.07785

>  <r_i_glide_lipo>  (54) 
-0.769192

>  <r_i_glide_hbond>  (54) 
-0.144076

>  <r_i_glide_metal>  (54) 
-0

>  <r_i_glide_rewards>  (54) 
-0.417499

>  <r_i_glide_evdw>  (54) 
-32.0573

>  <r_i_glide_ecoul>  (54) 
-1.64155

>  <r_i_glide_erotb>  (54) 
0.102436

>  <r_i_glide_esite>  (54) 
-0.000417957

>  <r_i_glide_emodel>  (54) 
-39.9543

>  <r_i_glide_energy>  (54) 
-33.6989

>  <r_i_glide_einternal>  (54) 
0.178405

>  <r_i_glide_intrahb_reward>  (54) 
-0

>  <i_i_glide_confnum>  (54) 
1

>  <i_i_glide_posenum>  (54) 
15

>  <r_i_glide_eff_state_penalty>  (54) 
0

>  <ligand_id>  (54) 
12

>  <original_smiles>  (54) 
CC1C(=O)N(C2C3CC4CC(C3)CC2C4)CC2C1CCC1C2OC(=O)C2CCC(O)C21C

>  <smiles>  (54) 
[H]OC1([H])C([H])([H])C([H])([H])C2([H])C(=O)OC3([H])C4([H])C([H])([H])N(C5([H])C6([H])C([H])([H])C7([H])C([H])([H])C([H])(C6([H])[H])C([H])([H])C5([H])C7([H])[H])C(=O)C([H])(C([H])([H])[H])C4([H])C([H])([H])C([H])([H])C3([H])C12C([H])([H])[H]

$$$$
12:0:1
     RDKit          3D

 71 77  0  0  1  0  0  0  0  0999 V2000
    0.4238   -2.1063    6.0031 C   0  0  0  0  0  0  0  0  0  0  0  0
    0.6574   -3.1415    4.8847 C   0  0  2  0  0  0  0  0  0  0  0  0
    0.8275   -4.5501    5.5144 C   0  0  0  0  0  0  0  0  0  0  0  0
    0.1979   -4.7990    6.5441 O   0  0  0  0  0  0  0  0  0  0  0  0
    1.5969   -5.4734    4.8971 N   0  0  0  0  0  0  0  0  0  0  0  0
    1.5368   -6.9204    5.2898 C   0  0  2  0  0  0  0  0  0  0  0  0
    2.4262   -7.8754    4.4407 C   0  0  2  0  0  0  0  0  0  0  0  0
    1.8815   -7.9623    2.9813 C   0  0  0  0  0  0  0  0  0  0  0  0
    0.4422   -8.5068    2.9994 C   0  0  1  0  0  0  0  0  0  0  0  0
    0.4581   -9.9226    3.6075 C   0  0  0  0  0  0  0  0  0  0  0  0
    1.0002   -9.8676    5.0511 C   0  0  1  0  0  0  0  0  0  0  0  0
    2.4277   -9.2920    5.0591 C   0  0  0  0  0  0  0  0  0  0  0  0
    0.1159   -8.9474    5.9055 C   0  0  0  0  0  0  0  0  0  0  0  0
    0.0938   -7.5276    5.2894 C   0  0  2  0  0  0  0  0  0  0  0  0
   -0.4591   -7.5867    3.8518 C   0  0  0  0  0  0  0  0  0  0  0  0
    2.7205   -5.0011    4.0584 C   0  0  0  0  0  0  0  0  0  0  0  0
    2.2963   -3.8988    3.0835 C   0  0  1  0  0  0  0  0  0  0  0  0
    1.8226   -2.7297    3.9455 C   0  0  1  0  0  0  0  0  0  0  0  0
    1.4676   -1.5318    3.0448 C   0  0  0  0  0  0  0  0  0  0  0  0
    2.6710   -1.1122    2.1803 C   0  0  0  0  0  0  0  0  0  0  0  0
    3.1707   -2.2684    1.2852 C   0  0  2  0  0  0  0  0  0  0  0  0
    3.4623   -3.5084    2.1437 C   0  0  2  0  0  0  0  0  0  0  0  0
    3.7156   -4.5972    1.2639 O   0  0  0  0  0  0  0  0  0  0  0  0
    4.6783   -4.5319    0.3238 C   0  0  0  0  0  0  0  0  0  0  0  0
    5.0237   -5.5091   -0.3360 O   0  0  0  0  0  0  0  0  0  0  0  0
    5.3693   -3.1637    0.1899 C   0  0  1  0  0  0  0  0  0  0  0  0
    6.0699   -2.9607   -1.1803 C   0  0  0  0  0  0  0  0  0  0  0  0
    5.2828   -1.8719   -1.9218 C   0  0  0  0  0  0  0  0  0  0  0  0
    4.0179   -1.6303   -1.1064 C   0  0  1  0  0  0  0  0  0  0  0  0
    3.0058   -2.4509   -1.6438 O   0  0  0  0  0  0  0  0  0  0  0  0
    4.4031   -1.9553    0.3573 C   0  0  1  0  0  0  0  0  0  0  0  0
    5.2483   -0.7864    0.9284 C   0  0  0  0  0  0  0  0  0  0  0  0
   -0.4304   -2.3752    6.6231 H   0  0  0  0  0  0  0  0  0  0  0  0
    0.2292   -1.1078    5.6156 H   0  0  0  0  0  0  0  0  0  0  0  0
    1.2950   -2.0555    6.6594 H   0  0  0  0  0  0  0  0  0  0  0  0
   -0.2514   -3.2039    4.2845 H   0  0  0  0  0  0  0  0  0  0  0  0
    1.8996   -6.9498    6.3158 H   0  0  0  0  0  0  0  0  0  0  0  0
    3.4693   -7.5499    4.4742 H   0  0  0  0  0  0  0  0  0  0  0  0
    1.8418   -6.9968    2.4734 H   0  0  0  0  0  0  0  0  0  0  0  0
    2.5316   -8.6042    2.3811 H   0  0  0  0  0  0  0  0  0  0  0  0
    0.0575   -8.5458    1.9800 H   0  0  0  0  0  0  0  0  0  0  0  0
   -0.5534  -10.3322    3.5936 H   0  0  0  0  0  0  0  0  0  0  0  0
    1.0830  -10.5716    2.9938 H   0  0  0  0  0  0  0  0  0  0  0  0
    1.0084  -10.8739    5.4807 H   0  0  0  0  0  0  0  0  0  0  0  0
    3.0943   -9.9391    4.4890 H   0  0  0  0  0  0  0  0  0  0  0  0
    2.8249   -9.2717    6.0758 H   0  0  0  0  0  0  0  0  0  0  0  0
   -0.8936   -9.3515    5.9689 H   0  0  0  0  0  0  0  0  0  0  0  0
    0.4872   -8.9084    6.9307 H   0  0  0  0  0  0  0  0  0  0  0  0
   -0.5850   -6.9510    5.9099 H   0  0  0  0  0  0  0  0  0  0  0  0
   -0.4869   -6.5838    3.4289 H   0  0  0  0  0  0  0  0  0  0  0  0
   -1.4883   -7.9502    3.8493 H   0  0  0  0  0  0  0  0  0  0  0  0
    3.5010   -4.6303    4.7281 H   0  0  0  0  0  0  0  0  0  0  0  0
    3.1867   -5.7645    3.4480 H   0  0  0  0  0  0  0  0  0  0  0  0
    1.4676   -4.2386    2.4625 H   0  0  0  0  0  0  0  0  0  0  0  0
    2.6642   -2.4328    4.5722 H   0  0  0  0  0  0  0  0  0  0  0  0
    0.6231   -1.7883    2.3929 H   0  0  0  0  0  0  0  0  0  0  0  0
    1.1578   -0.6739    3.6515 H   0  0  0  0  0  0  0  0  0  0  0  0
    2.3858   -0.2575    1.5644 H   0  0  0  0  0  0  0  0  0  0  0  0
    3.4588   -0.7847    2.8610 H   0  0  0  0  0  0  0  0  0  0  0  0
    2.3172   -2.5424    0.6685 H   0  0  0  0  0  0  0  0  0  0  0  0
    4.3417   -3.3310    2.7654 H   0  0  0  0  0  0  0  0  0  0  0  0
    6.1192   -3.1595    0.9758 H   0  0  0  0  0  0  0  0  0  0  0  0
    7.1053   -2.6551   -1.0304 H   0  0  0  0  0  0  0  0  0  0  0  0
    6.1032   -3.8603   -1.7986 H   0  0  0  0  0  0  0  0  0  0  0  0
    5.8630   -0.9508   -1.9337 H   0  0  0  0  0  0  0  0  0  0  0  0
    5.0843   -2.1379   -2.9630 H   0  0  0  0  0  0  0  0  0  0  0  0
    3.6810   -0.6098   -1.2232 H   0  0  0  0  0  0  0  0  0  0  0  0
    2.1691   -2.0628   -1.4074 H   0  0  0  0  0  0  0  0  0  0  0  0
    6.1570   -0.6035    0.3532 H   0  0  0  0  0  0  0  0  0  0  0  0
    5.5729   -0.9810    1.9539 H   0  0  0  0  0  0  0  0  0  0  0  0
    4.6917    0.1536    0.9204 H   0  0  0  0  0  0  0  0  0  0  0  0
  1  2  1  0
  1 33  1  0
  1 34  1  0
  1 35  1  0
  2 18  1  0
  2  3  1  0
  2 36  1  6
  3  4  2  0
  3  5  1  0
  5  6  1  0
  5 16  1  0
  6 14  1  0
  6  7  1  0
  6 37  1  1
  7 12  1  0
  7  8  1  0
  7 38  1  6
  8  9  1  0
  8 39  1  0
  8 40  1  0
  9 15  1  0
  9 10  1  0
  9 41  1  6
 10 11  1  0
 10 42  1  0
 10 43  1  0
 11 12  1  0
 11 13  1  0
 11 44  1  1
 12 45  1  0
 12 46  1  0
 13 14  1  0
 13 47  1  0
 13 48  1  0
 14 15  1  0
 14 49  1  1
 15 50  1  0
 15 51  1  0
 16 17  1  0
 16 52  1  0
 16 53  1  0
 17 22  1  0
 17 18  1  0
 17 54  1  6
 18 19  1  0
 18 55  1  1
 19 20  1  0
 19 56  1  0
 19 57  1  0
 20 21  1  0
 20 58  1  0
 20 59  1  0
 21 31  1  0
 21 22  1  0
 21 60  1  6
 22 23  1  0
 22 61  1  1
 23 24  1  0
 24 25  2  0
 24 26  1  0
 26 31  1  0
 26 27  1  0
 26 62  1  1
 27 28  1  0
 27 63  1  0
 27 64  1  0
 28 29  1  0
 28 65  1  0
 28 66  1  0
 29 30  1  0
 29 31  1  0
 29 67  1  1
 30 68  1  0
 31 32  1  1
 32 69  1  0
 32 70  1  0
 32 71  1  0
M  END
>  <i_m_ct_stereo_status>  (55) 
1

>  <s_m_source_file>  (55) 
/var/tmp/pbs.5076255.sched01/tmpr7id634h/0ay6m0hv_.sdf

>  <i_m_source_file_index>  (55) 
22

>  <i_lp_mmshare_version>  (55) 
48012

>  <i_f3d_flags>  (55) 
0

>  <s_epik_input>  (55) 
W0NIMl0xW0NAQEhdKFtDSDJdMilbQ0gyXVtDQEhdKFtDSDJdMylbQ0gyXVtDQEBIXTJbQ0BASF0oW0NAQEhdMTMpTihbQ0gyXTQpQyg9TylbQ0BASF0oW0NIM10pW0NASF0oW0NIMl1bQ0gyXTUpW0NASF00W0NASF0oW0NAQEhdNVtDQEBdNjdbQ0gzXSlPQyg9TylbQ0BIXTZbQ0gyXVtDSDJdW0NASF03W09IXQ==

>  <s_epik_cmdline>  (55) 
J2VwaWtfcHl0aG9uJywgJy1waHQnLCAnMi4wJywgJy1waCcsICc3LjAnLCAnLXRuJywgJzgnLCAnLW1hJywgJzIwMCcsICctaW1hZScsICc8aW5maWxlLm1hZT4nLCAnLW9tYWUnLCAnPG91dGZpbGUubWFlPic=

>  <r_lp_tautomer_probability>  (55) 
1

>  <r_epik_Ionization_Penalty>  (55) 
3.89243e-07

>  <r_epik_Ionization_Penalty_Charging>  (55) 
0

>  <r_epik_Ionization_Penalty_Neutral>  (55) 
3.89243e-07

>  <r_epik_State_Penalty>  (55) 
-0

>  <r_epik_Charging_Adjusted_Penalty>  (55) 
0

>  <i_epik_Tot_Q>  (55) 
0

>  <i_epik_Tot_abs_Q>  (55) 
0

>  <s_epik_Chemistry_Notes>  (55) 
This compound has an ester and may undergo hydrolysis at high or low pH.

>  <s_lp_Force_Field>  (55) 
OPLS3e

>  <r_lp_Energy>  (55) 
64.1372

>  <b_lp_Chiralities_Consistent>  (55) 
1

>  <s_lp_Variant>  (55) 
12:0-1

>  <s_i_glide_gridfile>  (55) 
pfpi4k_grid

>  <i_i_glide_lignum>  (55) 
22

>  <i_i_glide_rotatable_bonds>  (55) 
2

>  <r_i_docking_score>  (55) 
-2.93043

>  <r_i_glide_ligand_efficiency>  (55) 
-0.0915761

>  <r_i_glide_ligand_efficiency_sa>  (55) 
-0.290736

>  <r_i_glide_ligand_efficiency_ln>  (55) 
-0.656204

>  <r_i_glide_gscore>  (55) 
-2.93043

>  <r_i_glide_lipo>  (55) 
-0.230409

>  <r_i_glide_hbond>  (55) 
-0.16

>  <r_i_glide_metal>  (55) 
-0

>  <r_i_glide_rewards>  (55) 
-0.45728

>  <r_i_glide_evdw>  (55) 
-34.5571

>  <r_i_glide_ecoul>  (55) 
-3.02854

>  <r_i_glide_erotb>  (55) 
0.102436

>  <r_i_glide_esite>  (55) 
-0.00304378

>  <r_i_glide_emodel>  (55) 
-43.5167

>  <r_i_glide_energy>  (55) 
-37.5857

>  <r_i_glide_einternal>  (55) 
0.714334

>  <r_i_glide_intrahb_reward>  (55) 
-0

>  <i_i_glide_confnum>  (55) 
3

>  <i_i_glide_posenum>  (55) 
40

>  <r_i_glide_eff_state_penalty>  (55) 
0

>  <ligand_id>  (55) 
12

>  <original_smiles>  (55) 
CC1C(=O)N(C2C3CC4CC(C3)CC2C4)CC2C1CCC1C2OC(=O)C2CCC(O)C21C

>  <smiles>  (55) 
[H]OC1([H])C([H])([H])C([H])([H])C2([H])C(=O)OC3([H])C4([H])C([H])([H])N(C5([H])C6([H])C([H])([H])C7([H])C([H])([H])C([H])(C6([H])[H])C([H])([H])C5([H])C7([H])[H])C(=O)C([H])(C([H])([H])[H])C4([H])C([H])([H])C([H])([H])C3([H])C12C([H])([H])[H]

$$$$
12:0:2
     RDKit          3D

 71 77  0  0  1  0  0  0  0  0999 V2000
    4.5612   -4.6000    7.3723 C   0  0  0  0  0  0  0  0  0  0  0  0
    3.6275   -4.6780    6.1464 C   0  0  2  0  0  0  0  0  0  0  0  0
    3.1435   -6.1520    5.9778 C   0  0  0  0  0  0  0  0  0  0  0  0
    2.9210   -6.7973    7.0014 O   0  0  0  0  0  0  0  0  0  0  0  0
    2.8586   -6.6407    4.7453 N   0  0  0  0  0  0  0  0  0  0  0  0
    2.0744   -7.8876    4.5616 C   0  0  2  0  0  0  0  0  0  0  0  0
    1.8508   -8.3235    3.0840 C   0  0  2  0  0  0  0  0  0  0  0  0
    0.8993   -7.3301    2.3733 C   0  0  0  0  0  0  0  0  0  0  0  0
   -0.4680   -7.3064    3.1018 C   0  0  1  0  0  0  0  0  0  0  0  0
   -1.0896   -8.7113    3.0407 C   0  0  0  0  0  0  0  0  0  0  0  0
   -0.1393   -9.7090    3.7283 C   0  0  1  0  0  0  0  0  0  0  0  0
    1.2299   -9.7298    3.0322 C   0  0  0  0  0  0  0  0  0  0  0  0
    0.0834   -9.3008    5.1982 C   0  0  0  0  0  0  0  0  0  0  0  0
    0.6765   -7.8824    5.2750 C   0  0  2  0  0  0  0  0  0  0  0  0
   -0.2763   -6.8900    4.5765 C   0  0  0  0  0  0  0  0  0  0  0  0
    3.5817   -6.0655    3.5878 C   0  0  0  0  0  0  0  0  0  0  0  0
    3.5689   -4.5391    3.6041 C   0  0  1  0  0  0  0  0  0  0  0  0
    4.2968   -4.0997    4.8743 C   0  0  1  0  0  0  0  0  0  0  0  0
    4.4178   -2.5637    4.9119 C   0  0  0  0  0  0  0  0  0  0  0  0
    5.1276   -2.0354    3.6561 C   0  0  0  0  0  0  0  0  0  0  0  0
    4.4090   -2.4382    2.3616 C   0  0  2  0  0  0  0  0  0  0  0  0
    4.2260   -3.9689    2.3216 C   0  0  2  0  0  0  0  0  0  0  0  0
    3.3671   -4.2637    1.2241 O   0  0  0  0  0  0  0  0  0  0  0  0
    3.6321   -3.7919   -0.0139 C   0  0  0  0  0  0  0  0  0  0  0  0
    2.8309   -3.9211   -0.9300 O   0  0  0  0  0  0  0  0  0  0  0  0
    4.9324   -2.9895   -0.1419 C   0  0  1  0  0  0  0  0  0  0  0  0
    4.9753   -2.1942   -1.4630 C   0  0  0  0  0  0  0  0  0  0  0  0
    4.8416   -0.7342   -1.0724 C   0  0  0  0  0  0  0  0  0  0  0  0
    4.4406   -0.6806    0.4078 C   0  0  1  0  0  0  0  0  0  0  0  0
    3.0309   -0.6373    0.4965 O   0  0  0  0  0  0  0  0  0  0  0  0
    5.0831   -1.9550    1.0112 C   0  0  1  0  0  0  0  0  0  0  0  0
    6.6032   -1.7236    1.1836 C   0  0  0  0  0  0  0  0  0  0  0  0
    4.0643   -4.9636    8.2785 H   0  0  0  0  0  0  0  0  0  0  0  0
    4.8883   -3.5826    7.5800 H   0  0  0  0  0  0  0  0  0  0  0  0
    5.4436   -5.2243    7.2208 H   0  0  0  0  0  0  0  0  0  0  0  0
    2.7254   -4.0950    6.3679 H   0  0  0  0  0  0  0  0  0  0  0  0
    2.6641   -8.6748    5.0317 H   0  0  0  0  0  0  0  0  0  0  0  0
    2.8035   -8.3942    2.5544 H   0  0  0  0  0  0  0  0  0  0  0  0
    1.3180   -6.3312    2.3786 H   0  0  0  0  0  0  0  0  0  0  0  0
    0.7360   -7.6304    1.3361 H   0  0  0  0  0  0  0  0  0  0  0  0
   -1.1707   -6.6351    2.6154 H   0  0  0  0  0  0  0  0  0  0  0  0
   -2.0740   -8.7304    3.5254 H   0  0  0  0  0  0  0  0  0  0  0  0
   -1.2400   -9.0014    1.9997 H   0  0  0  0  0  0  0  0  0  0  0  0
   -0.5808  -10.7026    3.6844 H   0  0  0  0  0  0  0  0  0  0  0  0
    1.1205  -10.0582    2.0041 H   0  0  0  0  0  0  0  0  0  0  0  0
    1.8778  -10.4638    3.5112 H   0  0  0  0  0  0  0  0  0  0  0  0
   -0.8662   -9.3160    5.7322 H   0  0  0  0  0  0  0  0  0  0  0  0
    0.7211  -10.0270    5.7022 H   0  0  0  0  0  0  0  0  0  0  0  0
    0.7247   -7.6492    6.3412 H   0  0  0  0  0  0  0  0  0  0  0  0
    0.1460   -5.8914    4.6394 H   0  0  0  0  0  0  0  0  0  0  0  0
   -1.2344   -6.8555    5.1072 H   0  0  0  0  0  0  0  0  0  0  0  0
    4.6243   -6.4191    3.6327 H   0  0  0  0  0  0  0  0  0  0  0  0
    3.1283   -6.3350    2.6606 H   0  0  0  0  0  0  0  0  0  0  0  0
    2.5492   -4.1587    3.6364 H   0  0  0  0  0  0  0  0  0  0  0  0
    5.3017   -4.5148    4.8125 H   0  0  0  0  0  0  0  0  0  0  0  0
    3.4231   -2.1064    4.9841 H   0  0  0  0  0  0  0  0  0  0  0  0
    5.0010   -2.2622    5.7870 H   0  0  0  0  0  0  0  0  0  0  0  0
    5.2333   -0.9529    3.7202 H   0  0  0  0  0  0  0  0  0  0  0  0
    6.1095   -2.4945    3.6310 H   0  0  0  0  0  0  0  0  0  0  0  0
    3.4081   -2.0139    2.4312 H   0  0  0  0  0  0  0  0  0  0  0  0
    5.1889   -4.4637    2.1959 H   0  0  0  0  0  0  0  0  0  0  0  0
    5.7520   -3.7097   -0.1343 H   0  0  0  0  0  0  0  0  0  0  0  0
    5.9272   -2.3383   -1.9680 H   0  0  0  0  0  0  0  0  0  0  0  0
    4.1961   -2.4445   -2.1884 H   0  0  0  0  0  0  0  0  0  0  0  0
    5.8325   -0.3166   -1.1875 H   0  0  0  0  0  0  0  0  0  0  0  0
    4.1866   -0.1836   -1.7445 H   0  0  0  0  0  0  0  0  0  0  0  0
    4.8234    0.2110    0.9104 H   0  0  0  0  0  0  0  0  0  0  0  0
    2.6304   -1.0460   -0.2726 H   0  0  0  0  0  0  0  0  0  0  0  0
    7.1002   -1.4650    0.2422 H   0  0  0  0  0  0  0  0  0  0  0  0
    7.0789   -2.6321    1.5582 H   0  0  0  0  0  0  0  0  0  0  0  0
    6.7920   -0.8962    1.8730 H   0  0  0  0  0  0  0  0  0  0  0  0
  1  2  1  0
  1 33  1  0
  1 34  1  0
  1 35  1  0
  2 18  1  0
  2  3  1  0
  2 36  1  1
  3  4  2  0
  3  5  1  0
  5  6  1  0
  5 16  1  0
  6 14  1  0
  6  7  1  0
  6 37  1  1
  7 12  1  0
  7  8  1  0
  7 38  1  6
  8  9  1  0
  8 39  1  0
  8 40  1  0
  9 15  1  0
  9 10  1  0
  9 41  1  6
 10 11  1  0
 10 42  1  0
 10 43  1  0
 11 12  1  0
 11 13  1  0
 11 44  1  1
 12 45  1  0
 12 46  1  0
 13 14  1  0
 13 47  1  0
 13 48  1  0
 14 15  1  0
 14 49  1  1
 15 50  1  0
 15 51  1  0
 16 17  1  0
 16 52  1  0
 16 53  1  0
 17 22  1  0
 17 18  1  0
 17 54  1  1
 18 19  1  0
 18 55  1  6
 19 20  1  0
 19 56  1  0
 19 57  1  0
 20 21  1  0
 20 58  1  0
 20 59  1  0
 21 31  1  0
 21 22  1  0
 21 60  1  1
 22 23  1  0
 22 61  1  6
 23 24  1  0
 24 25  2  0
 24 26  1  0
 26 31  1  0
 26 27  1  0
 26 62  1  6
 27 28  1  0
 27 63  1  0
 27 64  1  0
 28 29  1  0
 28 65  1  0
 28 66  1  0
 29 30  1  0
 29 31  1  0
 29 67  1  1
 30 68  1  0
 31 32  1  1
 32 69  1  0
 32 70  1  0
 32 71  1  0
M  END
>  <i_m_ct_stereo_status>  (56) 
1

>  <s_m_source_file>  (56) 
/var/tmp/pbs.5076255.sched01/tmpr7id634h/0ay6m0hv_.sdf

>  <i_m_source_file_index>  (56) 
22

>  <i_lp_mmshare_version>  (56) 
48012

>  <i_f3d_flags>  (56) 
0

>  <s_epik_input>  (56) 
W0NIMl0xW0NAQEhdKFtDSDJdMilbQ0gyXVtDQEhdKFtDSDJdMylbQ0gyXVtDQEBIXTJbQ0BASF0oW0NAQEhdMTMpTihbQ0gyXTQpQyg9TylbQ0BASF0oW0NIM10pW0NASF0oW0NIMl1bQ0gyXTUpW0NASF00W0NASF0oW0NAQEhdNVtDQEBdNjdbQ0gzXSlPQyg9TylbQ0BIXTZbQ0gyXVtDSDJdW0NASF03W09IXQ==

>  <s_epik_cmdline>  (56) 
J2VwaWtfcHl0aG9uJywgJy1waHQnLCAnMi4wJywgJy1waCcsICc3LjAnLCAnLXRuJywgJzgnLCAnLW1hJywgJzIwMCcsICctaW1hZScsICc8aW5maWxlLm1hZT4nLCAnLW9tYWUnLCAnPG91dGZpbGUubWFlPic=

>  <r_lp_tautomer_probability>  (56) 
1

>  <r_epik_Ionization_Penalty>  (56) 
3.89243e-07

>  <r_epik_Ionization_Penalty_Charging>  (56) 
0

>  <r_epik_Ionization_Penalty_Neutral>  (56) 
3.89243e-07

>  <r_epik_State_Penalty>  (56) 
-0

>  <r_epik_Charging_Adjusted_Penalty>  (56) 
0

>  <i_epik_Tot_Q>  (56) 
0

>  <i_epik_Tot_abs_Q>  (56) 
0

>  <s_epik_Chemistry_Notes>  (56) 
This compound has an ester and may undergo hydrolysis at high or low pH.

>  <s_lp_Force_Field>  (56) 
OPLS3e

>  <r_lp_Energy>  (56) 
64.1372

>  <b_lp_Chiralities_Consistent>  (56) 
1

>  <s_lp_Variant>  (56) 
12:0-1

>  <s_i_glide_gridfile>  (56) 
pfpi4k_grid

>  <i_i_glide_lignum>  (56) 
22

>  <i_i_glide_rotatable_bonds>  (56) 
2

>  <r_i_docking_score>  (56) 
-1.98894

>  <r_i_glide_ligand_efficiency>  (56) 
-0.0621543

>  <r_i_glide_ligand_efficiency_sa>  (56) 
-0.197328

>  <r_i_glide_ligand_efficiency_ln>  (56) 
-0.445377

>  <r_i_glide_gscore>  (56) 
-1.98894

>  <r_i_glide_lipo>  (56) 
-0.393473

>  <r_i_glide_hbond>  (56) 
-0.087002

>  <r_i_glide_metal>  (56) 
-0

>  <r_i_glide_rewards>  (56) 
-0.398162

>  <r_i_glide_evdw>  (56) 
-24.9801

>  <r_i_glide_ecoul>  (56) 
0.266519

>  <r_i_glide_erotb>  (56) 
0.102436

>  <r_i_glide_esite>  (56) 
-0.00370863

>  <r_i_glide_emodel>  (56) 
-27.7823

>  <r_i_glide_energy>  (56) 
-24.7136

>  <r_i_glide_einternal>  (56) 
1.38026

>  <r_i_glide_intrahb_reward>  (56) 
-0

>  <i_i_glide_confnum>  (56) 
3

>  <i_i_glide_posenum>  (56) 
6

>  <r_i_glide_eff_state_penalty>  (56) 
0

>  <ligand_id>  (56) 
12

>  <original_smiles>  (56) 
CC1C(=O)N(C2C3CC4CC(C3)CC2C4)CC2C1CCC1C2OC(=O)C2CCC(O)C21C

>  <smiles>  (56) 
[H]OC1([H])C([H])([H])C([H])([H])C2([H])C(=O)OC3([H])C4([H])C([H])([H])N(C5([H])C6([H])C([H])([H])C7([H])C([H])([H])C([H])(C6([H])[H])C([H])([H])C5([H])C7([H])[H])C(=O)C([H])(C([H])([H])[H])C4([H])C([H])([H])C([H])([H])C3([H])C12C([H])([H])[H]

$$$$
13:0:0
     RDKit          3D

 63 70  0  0  1  0  0  0  0  0999 V2000
    0.5768   -8.5985    8.1839 C   0  0  0  0  0  0  0  0  0  0  0  0
    0.3294   -7.5444    7.2427 O   0  0  0  0  0  0  0  0  0  0  0  0
    0.5074   -7.7824    5.8312 C   0  0  2  0  0  0  0  0  0  0  0  0
    0.1438   -9.2435    5.5003 C   0  0  0  0  0  0  0  0  0  0  0  0
   -0.0837   -9.6273    4.0713 C   0  0  1  0  0  0  0  0  0  0  0  0
   -1.0368   -8.8438    3.3592 O   0  0  0  0  0  0  0  0  0  0  0  0
    0.3003   -8.8331    2.8362 C   0  0  1  0  0  0  0  0  0  0  0  0
    0.9909   -7.4688    2.7907 C   0  0  2  0  0  0  0  0  0  0  0  0
    0.0192   -6.4760    3.0840 O   0  0  0  0  0  0  0  0  0  0  0  0
    1.2611   -7.2259    1.2790 C   0  0  0  0  0  0  0  0  0  0  0  0
    1.6035   -5.9287    0.7749 O   0  0  0  0  0  0  0  0  0  0  0  0
    2.3668   -4.9973    1.5452 C   0  0  1  0  0  0  0  0  0  0  0  0
    3.8328   -5.3734    1.8036 C   0  0  1  0  0  0  0  0  0  0  0  0
    4.2085   -6.8275    2.0412 C   0  0  0  0  0  0  0  0  0  0  0  0
    3.6777   -7.2774    3.3679 C   0  0  2  0  0  0  0  0  0  0  0  0
    3.0954   -8.5682    3.4723 O   0  0  0  0  0  0  0  0  0  0  0  0
    2.2063   -7.4785    3.7812 C   0  0  2  0  0  0  0  0  0  0  0  0
    1.8980   -7.2515    5.3149 C   0  0  0  0  0  0  0  0  0  0  0  0
    1.9770   -5.7268    5.5708 C   0  0  0  0  0  0  0  0  0  0  0  0
    3.0002   -7.8864    6.2230 C   0  0  0  0  0  0  0  0  0  0  0  0
    4.1937   -4.6802    0.5044 C   0  0  2  0  0  0  0  0  0  0  0  0
    5.4899   -3.9065    0.3927 C   0  0  0  0  0  0  0  0  0  0  0  0
    5.4858   -2.9089   -0.7379 C   0  0  2  0  0  0  0  0  0  0  0  0
    4.6616   -1.7589   -0.5707 O   0  0  0  0  0  0  0  0  0  0  0  0
    4.2969   -2.6051   -1.6587 C   0  0  1  0  0  0  0  0  0  0  0  0
    4.5597   -2.0854   -3.0532 C   0  0  0  0  0  0  0  0  0  0  0  0
    3.1933   -2.1112   -3.7782 C   0  0  0  0  0  0  0  0  0  0  0  0
    2.2968   -2.8202   -2.7970 C   0  0  0  0  0  0  0  0  0  0  0  0
    2.8949   -3.0816   -1.6387 C   0  0  0  0  0  0  0  0  0  0  0  0
    2.2549   -3.7198   -0.5897 O   0  0  0  0  0  0  0  0  0  0  0  0
    2.9157   -3.8705    0.6546 C   0  0  1  0  0  0  0  0  0  0  0  0
    0.4813   -8.2018    9.2011 H   0  0  0  0  0  0  0  0  0  0  0  0
    1.5778   -8.9961    8.0550 H   0  0  0  0  0  0  0  0  0  0  0  0
   -0.1817   -9.3943    8.1153 H   0  0  0  0  0  0  0  0  0  0  0  0
   -0.2762   -7.1633    5.4114 H   0  0  0  0  0  0  0  0  0  0  0  0
    0.8927   -9.9323    5.8968 H   0  0  0  0  0  0  0  0  0  0  0  0
   -0.8083   -9.4586    5.9822 H   0  0  0  0  0  0  0  0  0  0  0  0
   -0.2008  -10.6944    3.9284 H   0  0  0  0  0  0  0  0  0  0  0  0
    0.4680   -9.4889    1.9927 H   0  0  0  0  0  0  0  0  0  0  0  0
   -0.2614   -6.6201    3.9757 H   0  0  0  0  0  0  0  0  0  0  0  0
    1.9385   -7.9831    0.9057 H   0  0  0  0  0  0  0  0  0  0  0  0
    0.3377   -7.4548    0.7454 H   0  0  0  0  0  0  0  0  0  0  0  0
    1.8548   -4.6203    2.4272 H   0  0  0  0  0  0  0  0  0  0  0  0
    4.1774   -4.7534    2.6261 H   0  0  0  0  0  0  0  0  0  0  0  0
    3.8966   -7.4986    1.2332 H   0  0  0  0  0  0  0  0  0  0  0  0
    5.3000   -6.9350    2.0757 H   0  0  0  0  0  0  0  0  0  0  0  0
    4.3682   -7.0089    4.1389 H   0  0  0  0  0  0  0  0  0  0  0  0
    2.9518   -5.3341    5.2876 H   0  0  0  0  0  0  0  0  0  0  0  0
    1.8453   -5.4991    6.6301 H   0  0  0  0  0  0  0  0  0  0  0  0
    1.2283   -5.1647    5.0177 H   0  0  0  0  0  0  0  0  0  0  0  0
    4.0085   -7.5011    6.0428 H   0  0  0  0  0  0  0  0  0  0  0  0
    3.0480   -8.9633    6.0811 H   0  0  0  0  0  0  0  0  0  0  0  0
    2.7870   -7.7136    7.2675 H   0  0  0  0  0  0  0  0  0  0  0  0
    4.0700   -5.3739   -0.3215 H   0  0  0  0  0  0  0  0  0  0  0  0
    5.7234   -3.3606    1.3215 H   0  0  0  0  0  0  0  0  0  0  0  0
    6.3263   -4.5971    0.2297 H   0  0  0  0  0  0  0  0  0  0  0  0
    6.4699   -2.6735   -1.1209 H   0  0  0  0  0  0  0  0  0  0  0  0
    4.9944   -1.0858   -3.0483 H   0  0  0  0  0  0  0  0  0  0  0  0
    5.2537   -2.7703   -3.5531 H   0  0  0  0  0  0  0  0  0  0  0  0
    2.8088   -1.1018   -3.9636 H   0  0  0  0  0  0  0  0  0  0  0  0
    3.2252   -2.6622   -4.7226 H   0  0  0  0  0  0  0  0  0  0  0  0
    1.2784   -3.0719   -3.0277 H   0  0  0  0  0  0  0  0  0  0  0  0
    3.0597   -2.9401    1.2113 H   0  0  0  0  0  0  0  0  0  0  0  0
  1  2  1  0
  1 32  1  0
  1 33  1  0
  1 34  1  0
  2  3  1  0
  3 18  1  0
  3  4  1  0
  3 35  1  6
  4  5  1  0
  4 36  1  0
  4 37  1  0
  5  7  1  0
  5  6  1  0
  5 38  1  6
  6  7  1  0
  7  8  1  0
  7 39  1  6
  8 17  1  0
  8  9  1  1
  8 10  1  0
  9 40  1  0
 10 11  1  0
 10 41  1  0
 10 42  1  0
 11 12  1  0
 12 31  1  0
 12 13  1  0
 12 43  1  1
 13 14  1  0
 13 21  1  0
 13 44  1  1
 14 15  1  0
 14 45  1  0
 14 46  1  0
 15 17  1  0
 15 16  1  0
 15 47  1  1
 17 16  1  1
 17 18  1  0
 18 19  1  0
 18 20  1  0
 19 48  1  0
 19 49  1  0
 19 50  1  0
 20 51  1  0
 20 52  1  0
 20 53  1  0
 21 31  1  0
 21 22  1  0
 21 54  1  6
 22 23  1  0
 22 55  1  0
 22 56  1  0
 23 25  1  0
 23 24  1  0
 23 57  1  6
 25 24  1  1
 25 29  1  0
 25 26  1  0
 26 27  1  0
 26 58  1  0
 26 59  1  0
 27 28  1  0
 27 60  1  0
 27 61  1  0
 28 29  2  0
 28 62  1  0
 29 30  1  0
 30 31  1  0
 31 63  1  1
M  END
>  <i_m_ct_stereo_status>  (57) 
1

>  <s_m_source_file>  (57) 
/var/tmp/pbs.5076255.sched01/tmpr7id634h/0ay6m0hv_.sdf

>  <i_m_source_file_index>  (57) 
23

>  <i_lp_mmshare_version>  (57) 
48012

>  <i_f3d_flags>  (57) 
0

>  <s_epik_input>  (57) 
W0NIM11PW0NAQEhdKEMxKFtDSDNdKVtDSDNdKVtDSDJdW0NAQEhdKE8yKVtDQEBIXTJbQ0BdKFtDQF0xMzQpKFtPSF0pW0NIMl1PW0NASF01W0NAQEhdKFtDSDJdW0NAQEhdM080KVtDQEhdNltDQEhdNU9DN1tDQEBdOChbQ0BASF0oTzgpW0NIMl02KVtDSDJdW0NIMl1bQ0hdPTc=

>  <s_epik_cmdline>  (57) 
J2VwaWtfcHl0aG9uJywgJy1waHQnLCAnMi4wJywgJy1waCcsICc3LjAnLCAnLXRuJywgJzgnLCAnLW1hJywgJzIwMCcsICctaW1hZScsICc8aW5maWxlLm1hZT4nLCAnLW9tYWUnLCAnPG91dGZpbGUubWFlPic=

>  <r_lp_tautomer_probability>  (57) 
1

>  <r_epik_Ionization_Penalty>  (57) 
1.37435e-07

>  <r_epik_Ionization_Penalty_Charging>  (57) 
0

>  <r_epik_Ionization_Penalty_Neutral>  (57) 
1.37435e-07

>  <r_epik_State_Penalty>  (57) 
-0

>  <r_epik_Charging_Adjusted_Penalty>  (57) 
0

>  <i_epik_Tot_Q>  (57) 
0

>  <i_epik_Tot_abs_Q>  (57) 
0

>  <s_lp_Force_Field>  (57) 
OPLS3e

>  <r_lp_Energy>  (57) 
65.0184

>  <b_lp_Chiralities_Consistent>  (57) 
1

>  <s_lp_Variant>  (57) 
13:0-1

>  <s_i_glide_gridfile>  (57) 
pfpi4k_grid

>  <i_i_glide_lignum>  (57) 
23

>  <i_i_glide_rotatable_bonds>  (57) 
2

>  <r_i_docking_score>  (57) 
-3.01697

>  <r_i_glide_ligand_efficiency>  (57) 
-0.0973218

>  <r_i_glide_ligand_efficiency_sa>  (57) 
-0.305725

>  <r_i_glide_ligand_efficiency_ln>  (57) 
-0.68042

>  <r_i_glide_gscore>  (57) 
-3.01697

>  <r_i_glide_lipo>  (57) 
-0.459943

>  <r_i_glide_hbond>  (57) 
-0.122233

>  <r_i_glide_metal>  (57) 
-0

>  <r_i_glide_rewards>  (57) 
-0.460182

>  <r_i_glide_evdw>  (57) 
-26.8336

>  <r_i_glide_ecoul>  (57) 
-4.21956

>  <r_i_glide_erotb>  (57) 
0

>  <r_i_glide_esite>  (57) 
0

>  <r_i_glide_emodel>  (57) 
-32.9691

>  <r_i_glide_energy>  (57) 
-31.0532

>  <r_i_glide_einternal>  (57) 
7.17947

>  <r_i_glide_intrahb_reward>  (57) 
-0

>  <i_i_glide_confnum>  (57) 
1

>  <i_i_glide_posenum>  (57) 
25

>  <r_i_glide_eff_state_penalty>  (57) 
0

>  <ligand_id>  (57) 
13

>  <original_smiles>  (57) 
COC1CC2OC2C2(O)COC3C(CC4OC42C1(C)C)C1CC2OC24CCC=C4OC13

>  <smiles>  (57) 
[H]OC12C([H])([H])OC3([H])C4([H])OC5=C([H])C([H])([H])C([H])([H])C56OC6([H])C([H])([H])C4([H])C3([H])C([H])([H])C3([H])OC31C(C([H])([H])[H])(C([H])([H])[H])C([H])(OC([H])([H])[H])C([H])([H])C1([H])OC12[H]

$$$$
13:0:1
     RDKit          3D

 63 70  0  0  1  0  0  0  0  0999 V2000
   -0.0919   -5.9218    7.6535 C   0  0  0  0  0  0  0  0  0  0  0  0
    0.5342   -7.1395    7.2543 O   0  0  0  0  0  0  0  0  0  0  0  0
    0.6198   -7.4102    5.8469 C   0  0  2  0  0  0  0  0  0  0  0  0
    0.2458   -8.9011    5.6689 C   0  0  0  0  0  0  0  0  0  0  0  0
   -0.0385   -9.3618    4.2501 C   0  0  1  0  0  0  0  0  0  0  0  0
   -1.0127   -8.5848    3.5476 O   0  0  0  0  0  0  0  0  0  0  0  0
    0.2983   -8.6365    2.9617 C   0  0  1  0  0  0  0  0  0  0  0  0
    1.0373   -7.3001    2.8216 C   0  0  2  0  0  0  0  0  0  0  0  0
    0.1275   -6.2531    3.1068 O   0  0  0  0  0  0  0  0  0  0  0  0
    1.2515   -7.1126    1.2854 C   0  0  0  0  0  0  0  0  0  0  0  0
    1.6202   -5.8439    0.7199 O   0  0  0  0  0  0  0  0  0  0  0  0
    2.4377   -4.9102    1.4331 C   0  0  1  0  0  0  0  0  0  0  0  0
    3.9025   -5.3235    1.6510 C   0  0  1  0  0  0  0  0  0  0  0  0
    4.2385   -6.7800    1.9153 C   0  0  0  0  0  0  0  0  0  0  0  0
    3.7465   -7.1714    3.2869 C   0  0  2  0  0  0  0  0  0  0  0  0
    3.1385   -8.4494    3.4552 O   0  0  0  0  0  0  0  0  0  0  0  0
    2.2931   -7.3148    3.7563 C   0  0  2  0  0  0  0  0  0  0  0  0
    2.0414   -7.0128    5.2844 C   0  0  0  0  0  0  0  0  0  0  0  0
    2.2641   -5.4934    5.4744 C   0  0  0  0  0  0  0  0  0  0  0  0
    3.1035   -7.7211    6.1857 C   0  0  0  0  0  0  0  0  0  0  0  0
    4.2310   -4.6780    0.3037 C   0  0  2  0  0  0  0  0  0  0  0  0
    5.5446   -3.9498    0.1173 C   0  0  0  0  0  0  0  0  0  0  0  0
    5.5229   -2.9871   -1.0463 C   0  0  2  0  0  0  0  0  0  0  0  0
    4.7583   -1.7886   -0.8709 O   0  0  0  0  0  0  0  0  0  0  0  0
    4.3168   -2.6632   -1.9137 C   0  0  1  0  0  0  0  0  0  0  0  0
    4.5263   -2.2060   -3.3466 C   0  0  0  0  0  0  0  0  0  0  0  0
    3.1321   -2.1983   -3.9994 C   0  0  0  0  0  0  0  0  0  0  0  0
    2.2505   -2.8363   -2.9599 C   0  0  0  0  0  0  0  0  0  0  0  0
    2.8825   -3.0798   -1.8134 C   0  0  0  0  0  0  0  0  0  0  0  0
    2.2622   -3.6606   -0.7255 O   0  0  0  0  0  0  0  0  0  0  0  0
    2.9830   -3.8181    0.4844 C   0  0  1  0  0  0  0  0  0  0  0  0
   -0.0545   -5.8646    8.7425 H   0  0  0  0  0  0  0  0  0  0  0  0
   -1.1411   -5.8762    7.3590 H   0  0  0  0  0  0  0  0  0  0  0  0
    0.4009   -5.0408    7.2586 H   0  0  0  0  0  0  0  0  0  0  0  0
   -0.1795   -6.8294    5.3955 H   0  0  0  0  0  0  0  0  0  0  0  0
    1.0048   -9.5568    6.0976 H   0  0  0  0  0  0  0  0  0  0  0  0
   -0.6613   -9.1039    6.2399 H   0  0  0  0  0  0  0  0  0  0  0  0
   -0.1874  -10.4366    4.1585 H   0  0  0  0  0  0  0  0  0  0  0  0
    0.3880   -9.3086    2.1076 H   0  0  0  0  0  0  0  0  0  0  0  0
   -0.1153   -6.3386    4.0171 H   0  0  0  0  0  0  0  0  0  0  0  0
    1.8900   -7.9038    0.9027 H   0  0  0  0  0  0  0  0  0  0  0  0
    0.2985   -7.3222    0.7936 H   0  0  0  0  0  0  0  0  0  0  0  0
    1.9575   -4.4933    2.3189 H   0  0  0  0  0  0  0  0  0  0  0  0
    4.3110   -4.6899    2.4435 H   0  0  0  0  0  0  0  0  0  0  0  0
    3.8720   -7.4518    1.1417 H   0  0  0  0  0  0  0  0  0  0  0  0
    5.3191   -6.9190    1.8981 H   0  0  0  0  0  0  0  0  0  0  0  0
    4.4769   -6.9138    4.0425 H   0  0  0  0  0  0  0  0  0  0  0  0
    3.2167   -5.1676    5.0488 H   0  0  0  0  0  0  0  0  0  0  0  0
    2.2772   -5.2205    6.5286 H   0  0  0  0  0  0  0  0  0  0  0  0
    1.4835   -4.9134    4.9847 H   0  0  0  0  0  0  0  0  0  0  0  0
    4.1098   -7.3232    6.0645 H   0  0  0  0  0  0  0  0  0  0  0  0
    3.1553   -8.7954    6.0079 H   0  0  0  0  0  0  0  0  0  0  0  0
    2.8903   -7.5930    7.2480 H   0  0  0  0  0  0  0  0  0  0  0  0
    4.0572   -5.4058   -0.4945 H   0  0  0  0  0  0  0  0  0  0  0  0
    5.8274   -3.3921    1.0153 H   0  0  0  0  0  0  0  0  0  0  0  0
    6.3405   -4.6736   -0.0535 H   0  0  0  0  0  0  0  0  0  0  0  0
    6.5060   -2.7976   -1.4733 H   0  0  0  0  0  0  0  0  0  0  0  0
    5.0050   -1.2296   -3.3902 H   0  0  0  0  0  0  0  0  0  0  0  0
    5.1683   -2.9339   -3.8469 H   0  0  0  0  0  0  0  0  0  0  0  0
    2.7831   -1.1857   -4.2122 H   0  0  0  0  0  0  0  0  0  0  0  0
    3.1108   -2.7880   -4.9136 H   0  0  0  0  0  0  0  0  0  0  0  0
    1.2096   -3.0516   -3.1500 H   0  0  0  0  0  0  0  0  0  0  0  0
    3.1782   -2.8745    1.0028 H   0  0  0  0  0  0  0  0  0  0  0  0
  1  2  1  0
  1 32  1  0
  1 33  1  0
  1 34  1  0
  2  3  1  0
  3 18  1  0
  3  4  1  0
  3 35  1  6
  4  5  1  0
  4 36  1  0
  4 37  1  0
  5  7  1  0
  5  6  1  0
  5 38  1  6
  6  7  1  0
  7  8  1  0
  7 39  1  6
  8 17  1  0
  8  9  1  1
  8 10  1  0
  9 40  1  0
 10 11  1  0
 10 41  1  0
 10 42  1  0
 11 12  1  0
 12 31  1  0
 12 13  1  0
 12 43  1  1
 13 14  1  0
 13 21  1  0
 13 44  1  1
 14 15  1  0
 14 45  1  0
 14 46  1  0
 15 17  1  0
 15 16  1  0
 15 47  1  1
 17 16  1  1
 17 18  1  0
 18 19  1  0
 18 20  1  0
 19 48  1  0
 19 49  1  0
 19 50  1  0
 20 51  1  0
 20 52  1  0
 20 53  1  0
 21 31  1  0
 21 22  1  0
 21 54  1  6
 22 23  1  0
 22 55  1  0
 22 56  1  0
 23 25  1  0
 23 24  1  0
 23 57  1  6
 25 24  1  1
 25 29  1  0
 25 26  1  0
 26 27  1  0
 26 58  1  0
 26 59  1  0
 27 28  1  0
 27 60  1  0
 27 61  1  0
 28 29  2  0
 28 62  1  0
 29 30  1  0
 30 31  1  0
 31 63  1  1
M  END
>  <i_m_ct_stereo_status>  (58) 
1

>  <s_m_source_file>  (58) 
/var/tmp/pbs.5076255.sched01/tmpr7id634h/0ay6m0hv_.sdf

>  <i_m_source_file_index>  (58) 
23

>  <i_lp_mmshare_version>  (58) 
48012

>  <i_f3d_flags>  (58) 
0

>  <s_epik_input>  (58) 
W0NIM11PW0NAQEhdKEMxKFtDSDNdKVtDSDNdKVtDSDJdW0NAQEhdKE8yKVtDQEBIXTJbQ0BdKFtDQF0xMzQpKFtPSF0pW0NIMl1PW0NASF01W0NAQEhdKFtDSDJdW0NAQEhdM080KVtDQEhdNltDQEhdNU9DN1tDQEBdOChbQ0BASF0oTzgpW0NIMl02KVtDSDJdW0NIMl1bQ0hdPTc=

>  <s_epik_cmdline>  (58) 
J2VwaWtfcHl0aG9uJywgJy1waHQnLCAnMi4wJywgJy1waCcsICc3LjAnLCAnLXRuJywgJzgnLCAnLW1hJywgJzIwMCcsICctaW1hZScsICc8aW5maWxlLm1hZT4nLCAnLW9tYWUnLCAnPG91dGZpbGUubWFlPic=

>  <r_lp_tautomer_probability>  (58) 
1

>  <r_epik_Ionization_Penalty>  (58) 
1.37435e-07

>  <r_epik_Ionization_Penalty_Charging>  (58) 
0

>  <r_epik_Ionization_Penalty_Neutral>  (58) 
1.37435e-07

>  <r_epik_State_Penalty>  (58) 
-0

>  <r_epik_Charging_Adjusted_Penalty>  (58) 
0

>  <i_epik_Tot_Q>  (58) 
0

>  <i_epik_Tot_abs_Q>  (58) 
0

>  <s_lp_Force_Field>  (58) 
OPLS3e

>  <r_lp_Energy>  (58) 
65.0184

>  <b_lp_Chiralities_Consistent>  (58) 
1

>  <s_lp_Variant>  (58) 
13:0-1

>  <s_i_glide_gridfile>  (58) 
pfpi4k_grid

>  <i_i_glide_lignum>  (58) 
23

>  <i_i_glide_rotatable_bonds>  (58) 
2

>  <r_i_docking_score>  (58) 
-2.87439

>  <r_i_glide_ligand_efficiency>  (58) 
-0.0927222

>  <r_i_glide_ligand_efficiency_sa>  (58) 
-0.291276

>  <r_i_glide_ligand_efficiency_ln>  (58) 
-0.648263

>  <r_i_glide_gscore>  (58) 
-2.87439

>  <r_i_glide_lipo>  (58) 
-0.429428

>  <r_i_glide_hbond>  (58) 
-0.131026

>  <r_i_glide_metal>  (58) 
-0

>  <r_i_glide_rewards>  (58) 
-0.460182

>  <r_i_glide_evdw>  (58) 
-26.2035

>  <r_i_glide_ecoul>  (58) 
-3.62387

>  <r_i_glide_erotb>  (58) 
0

>  <r_i_glide_esite>  (58) 
0

>  <r_i_glide_emodel>  (58) 
-34.794

>  <r_i_glide_energy>  (58) 
-29.8273

>  <r_i_glide_einternal>  (58) 
1.2141

>  <r_i_glide_intrahb_reward>  (58) 
-0

>  <i_i_glide_confnum>  (58) 
1

>  <i_i_glide_posenum>  (58) 
11

>  <r_i_glide_eff_state_penalty>  (58) 
0

>  <ligand_id>  (58) 
13

>  <original_smiles>  (58) 
COC1CC2OC2C2(O)COC3C(CC4OC42C1(C)C)C1CC2OC24CCC=C4OC13

>  <smiles>  (58) 
[H]OC12C([H])([H])OC3([H])C4([H])OC5=C([H])C([H])([H])C([H])([H])C56OC6([H])C([H])([H])C4([H])C3([H])C([H])([H])C3([H])OC31C(C([H])([H])[H])(C([H])([H])[H])C([H])(OC([H])([H])[H])C([H])([H])C1([H])OC12[H]

$$$$
13:0:2
     RDKit          3D

 63 70  0  0  1  0  0  0  0  0999 V2000
    3.2505   -0.2871   -3.2506 C   0  0  0  0  0  0  0  0  0  0  0  0
    3.9168   -1.4985   -2.9158 O   0  0  0  0  0  0  0  0  0  0  0  0
    4.2702   -1.6581   -1.5379 C   0  0  2  0  0  0  0  0  0  0  0  0
    5.6725   -1.0700   -1.3739 C   0  0  0  0  0  0  0  0  0  0  0  0
    6.1556   -0.8913    0.0502 C   0  0  1  0  0  0  0  0  0  0  0  0
    5.2585   -0.1691    0.9025 O   0  0  0  0  0  0  0  0  0  0  0  0
    5.5834   -1.5147    1.3004 C   0  0  1  0  0  0  0  0  0  0  0  0
    4.4047   -2.4889    1.3839 C   0  0  2  0  0  0  0  0  0  0  0  0
    3.1907   -1.7642    1.2986 O   0  0  0  0  0  0  0  0  0  0  0  0
    4.3692   -2.9321    2.8858 C   0  0  0  0  0  0  0  0  0  0  0  0
    3.2532   -3.6368    3.4661 O   0  0  0  0  0  0  0  0  0  0  0  0
    2.4120   -4.4781    2.6831 C   0  0  1  0  0  0  0  0  0  0  0  0
    3.0722   -5.7906    2.2402 C   0  0  1  0  0  0  0  0  0  0  0  0
    4.5433   -5.8205    1.8599 C   0  0  0  0  0  0  0  0  0  0  0  0
    4.7309   -5.0860    0.5580 C   0  0  2  0  0  0  0  0  0  0  0  0
    5.8723   -4.2325    0.4223 O   0  0  0  0  0  0  0  0  0  0  0  0
    4.5745   -3.5899    0.2909 C   0  0  2  0  0  0  0  0  0  0  0  0
    4.1561   -3.1774   -1.1667 C   0  0  0  0  0  0  0  0  0  0  0  0
    2.6761   -3.5755   -1.3339 C   0  0  0  0  0  0  0  0  0  0  0  0
    4.9875   -3.9605   -2.2308 C   0  0  0  0  0  0  0  0  0  0  0  0
    2.5732   -6.4171    3.5438 C   0  0  2  0  0  0  0  0  0  0  0  0
    2.1041   -7.8508    3.5809 C   0  0  0  0  0  0  0  0  0  0  0  0
    1.2338   -8.1409    4.7763 C   0  0  2  0  0  0  0  0  0  0  0  0
   -0.0894   -7.5658    4.7623 O   0  0  0  0  0  0  0  0  0  0  0  0
    0.7830   -7.1408    5.8301 C   0  0  1  0  0  0  0  0  0  0  0  0
    0.4515   -7.6248    7.2405 C   0  0  0  0  0  0  0  0  0  0  0  0
    0.2330   -6.3434    8.0818 C   0  0  0  0  0  0  0  0  0  0  0  0
    0.6344   -5.2317    7.1458 C   0  0  0  0  0  0  0  0  0  0  0  0
    0.9155   -5.6604    5.9076 C   0  0  0  0  0  0  0  0  0  0  0  0
    1.2904   -4.7953    4.8978 O   0  0  0  0  0  0  0  0  0  0  0  0
    1.4988   -5.3325    3.5922 C   0  0  1  0  0  0  0  0  0  0  0  0
    3.0162   -0.2718   -4.3127 H   0  0  0  0  0  0  0  0  0  0  0  0
    3.8654    0.5837   -3.0384 H   0  0  0  0  0  0  0  0  0  0  0  0
    2.3048   -0.2009   -2.7179 H   0  0  0  0  0  0  0  0  0  0  0  0
    3.5540   -1.0676   -0.9707 H   0  0  0  0  0  0  0  0  0  0  0  0
    6.4073   -1.6628   -1.9174 H   0  0  0  0  0  0  0  0  0  0  0  0
    5.6753   -0.0975   -1.8529 H   0  0  0  0  0  0  0  0  0  0  0  0
    7.1851   -0.5557    0.1364 H   0  0  0  0  0  0  0  0  0  0  0  0
    6.3141   -1.5812    2.1093 H   0  0  0  0  0  0  0  0  0  0  0  0
    3.1053   -1.4235    0.4223 H   0  0  0  0  0  0  0  0  0  0  0  0
    5.2924   -3.4503    3.1517 H   0  0  0  0  0  0  0  0  0  0  0  0
    4.4284   -2.0269    3.4963 H   0  0  0  0  0  0  0  0  0  0  0  0
    1.8551   -3.9717    1.8850 H   0  0  0  0  0  0  0  0  0  0  0  0
    2.4483   -6.1962    1.4436 H   0  0  0  0  0  0  0  0  0  0  0  0
    5.1861   -5.4376    2.6429 H   0  0  0  0  0  0  0  0  0  0  0  0
    4.8665   -6.8487    1.7193 H   0  0  0  0  0  0  0  0  0  0  0  0
    4.5629   -5.7454   -0.2802 H   0  0  0  0  0  0  0  0  0  0  0  0
    2.5240   -4.6205   -1.0928 H   0  0  0  0  0  0  0  0  0  0  0  0
    2.3268   -3.4315   -2.3587 H   0  0  0  0  0  0  0  0  0  0  0  0
    2.0152   -3.0166   -0.6763 H   0  0  0  0  0  0  0  0  0  0  0  0
    4.8194   -5.0353   -2.2093 H   0  0  0  0  0  0  0  0  0  0  0  0
    6.0636   -3.8283   -2.1179 H   0  0  0  0  0  0  0  0  0  0  0  0
    4.7395   -3.6751   -3.2544 H   0  0  0  0  0  0  0  0  0  0  0  0
    3.2915   -6.1944    4.3319 H   0  0  0  0  0  0  0  0  0  0  0  0
    1.5524   -8.1215    2.6812 H   0  0  0  0  0  0  0  0  0  0  0  0
    2.9663   -8.5173    3.6209 H   0  0  0  0  0  0  0  0  0  0  0  0
    1.2346   -9.1797    5.0735 H   0  0  0  0  0  0  0  0  0  0  0  0
   -0.3925   -8.3140    7.2500 H   0  0  0  0  0  0  0  0  0  0  0  0
    1.3156   -8.1771    7.6120 H   0  0  0  0  0  0  0  0  0  0  0  0
   -0.8119   -6.2149    8.3690 H   0  0  0  0  0  0  0  0  0  0  0  0
    0.8529   -6.3393    8.9799 H   0  0  0  0  0  0  0  0  0  0  0  0
    0.6721   -4.2056    7.4580 H   0  0  0  0  0  0  0  0  0  0  0  0
    0.5885   -5.6293    3.0662 H   0  0  0  0  0  0  0  0  0  0  0  0
  1  2  1  0
  1 32  1  0
  1 33  1  0
  1 34  1  0
  2  3  1  0
  3 18  1  0
  3  4  1  0
  3 35  1  1
  4  5  1  0
  4 36  1  0
  4 37  1  0
  5  7  1  0
  5  6  1  0
  5 38  1  6
  6  7  1  0
  7  8  1  0
  7 39  1  1
  8 17  1  0
  8  9  1  6
  8 10  1  0
  9 40  1  0
 10 11  1  0
 10 41  1  0
 10 42  1  0
 11 12  1  0
 12 31  1  0
 12 13  1  0
 12 43  1  6
 13 14  1  0
 13 21  1  0
 13 44  1  6
 14 15  1  0
 14 45  1  0
 14 46  1  0
 15 17  1  0
 15 16  1  0
 15 47  1  6
 17 16  1  6
 17 18  1  0
 18 19  1  0
 18 20  1  0
 19 48  1  0
 19 49  1  0
 19 50  1  0
 20 51  1  0
 20 52  1  0
 20 53  1  0
 21 31  1  0
 21 22  1  0
 21 54  1  1
 22 23  1  0
 22 55  1  0
 22 56  1  0
 23 25  1  0
 23 24  1  0
 23 57  1  1
 25 24  1  6
 25 29  1  0
 25 26  1  0
 26 27  1  0
 26 58  1  0
 26 59  1  0
 27 28  1  0
 27 60  1  0
 27 61  1  0
 28 29  2  0
 28 62  1  0
 29 30  1  0
 30 31  1  0
 31 63  1  6
M  END
>  <i_m_ct_stereo_status>  (59) 
1

>  <s_m_source_file>  (59) 
/var/tmp/pbs.5076255.sched01/tmpr7id634h/0ay6m0hv_.sdf

>  <i_m_source_file_index>  (59) 
23

>  <i_lp_mmshare_version>  (59) 
48012

>  <i_f3d_flags>  (59) 
0

>  <s_epik_input>  (59) 
W0NIM11PW0NAQEhdKEMxKFtDSDNdKVtDSDNdKVtDSDJdW0NAQEhdKE8yKVtDQEBIXTJbQ0BdKFtDQF0xMzQpKFtPSF0pW0NIMl1PW0NASF01W0NAQEhdKFtDSDJdW0NAQEhdM080KVtDQEhdNltDQEhdNU9DN1tDQEBdOChbQ0BASF0oTzgpW0NIMl02KVtDSDJdW0NIMl1bQ0hdPTc=

>  <s_epik_cmdline>  (59) 
J2VwaWtfcHl0aG9uJywgJy1waHQnLCAnMi4wJywgJy1waCcsICc3LjAnLCAnLXRuJywgJzgnLCAnLW1hJywgJzIwMCcsICctaW1hZScsICc8aW5maWxlLm1hZT4nLCAnLW9tYWUnLCAnPG91dGZpbGUubWFlPic=

>  <r_lp_tautomer_probability>  (59) 
1

>  <r_epik_Ionization_Penalty>  (59) 
1.37435e-07

>  <r_epik_Ionization_Penalty_Charging>  (59) 
0

>  <r_epik_Ionization_Penalty_Neutral>  (59) 
1.37435e-07

>  <r_epik_State_Penalty>  (59) 
-0

>  <r_epik_Charging_Adjusted_Penalty>  (59) 
0

>  <i_epik_Tot_Q>  (59) 
0

>  <i_epik_Tot_abs_Q>  (59) 
0

>  <s_lp_Force_Field>  (59) 
OPLS3e

>  <r_lp_Energy>  (59) 
65.0184

>  <b_lp_Chiralities_Consistent>  (59) 
1

>  <s_lp_Variant>  (59) 
13:0-1

>  <s_i_glide_gridfile>  (59) 
pfpi4k_grid

>  <i_i_glide_lignum>  (59) 
23

>  <i_i_glide_rotatable_bonds>  (59) 
2

>  <r_i_docking_score>  (59) 
-2.28004

>  <r_i_glide_ligand_efficiency>  (59) 
-0.0735496

>  <r_i_glide_ligand_efficiency_sa>  (59) 
-0.231047

>  <r_i_glide_ligand_efficiency_ln>  (59) 
-0.514218

>  <r_i_glide_gscore>  (59) 
-2.28004

>  <r_i_glide_lipo>  (59) 
-0.414789

>  <r_i_glide_hbond>  (59) 
-0.0860202

>  <r_i_glide_metal>  (59) 
-0

>  <r_i_glide_rewards>  (59) 
-0.460182

>  <r_i_glide_evdw>  (59) 
-23.328

>  <r_i_glide_ecoul>  (59) 
-1.01762

>  <r_i_glide_erotb>  (59) 
0

>  <r_i_glide_esite>  (59) 
0

>  <r_i_glide_emodel>  (59) 
-28.6891

>  <r_i_glide_energy>  (59) 
-24.3457

>  <r_i_glide_einternal>  (59) 
0.200958

>  <r_i_glide_intrahb_reward>  (59) 
-0

>  <i_i_glide_confnum>  (59) 
2

>  <i_i_glide_posenum>  (59) 
2

>  <r_i_glide_eff_state_penalty>  (59) 
0

>  <ligand_id>  (59) 
13

>  <original_smiles>  (59) 
COC1CC2OC2C2(O)COC3C(CC4OC42C1(C)C)C1CC2OC24CCC=C4OC13

>  <smiles>  (59) 
[H]OC12C([H])([H])OC3([H])C4([H])OC5=C([H])C([H])([H])C([H])([H])C56OC6([H])C([H])([H])C4([H])C3([H])C([H])([H])C3([H])OC31C(C([H])([H])[H])(C([H])([H])[H])C([H])(OC([H])([H])[H])C([H])([H])C1([H])OC12[H]

$$$$
14:0:0
     RDKit          3D

 75 83  0  0  1  0  0  0  0  0999 V2000
    2.3277   -8.0196    6.8078 C   0  0  0  0  0  0  0  0  0  0  0  0
    2.5995   -6.7047    6.8980 C   0  0  0  0  0  0  0  0  0  0  0  0
    3.6653   -6.1669    7.8599 C   0  0  0  0  0  0  0  0  0  0  0  0
    4.6820   -5.1972    7.1591 C   0  0  1  0  0  0  0  0  0  0  0  0
    5.9057   -6.0262    6.7199 C   0  0  0  0  0  0  0  0  0  0  0  0
    5.5584   -6.5013    5.3060 C   0  0  0  0  0  0  0  0  0  0  0  0
    4.7318   -5.3562    4.7213 C   0  0  1  0  0  0  0  0  0  0  0  0
    5.7150   -4.2974    4.6468 O   0  0  0  0  0  0  0  0  0  0  0  0
    4.6795   -3.3752    5.0549 C   0  0  1  0  0  0  0  0  0  0  0  0
    4.2648   -2.7535    3.6415 C   0  0  1  0  0  0  0  0  0  0  0  0
    4.9979   -1.5479    3.7780 O   0  0  0  0  0  0  0  0  0  0  0  0
    4.7203   -3.5723    2.4977 C   0  0  2  0  0  0  0  0  0  0  0  0
    3.5629   -4.2688    1.3030 C   0  0  2  0  0  0  0  0  0  0  0  0
    3.1907   -5.4936    0.4111 C   0  0  0  0  0  0  0  0  0  0  0  0
    2.9340   -3.1109    0.5684 C   0  0  0  0  0  0  0  0  0  0  0  0
    3.3904   -1.9207    1.3017 C   0  0  2  0  0  0  0  0  0  0  0  0
    2.6188   -0.8013    0.9001 O   0  0  0  0  0  0  0  0  0  0  0  0
    4.9280   -1.8906    0.5110 C   0  0  0  0  0  0  0  0  0  0  0  0
    4.7544   -1.1898   -0.8833 C   0  0  0  0  0  0  0  0  0  0  0  0
    5.9089   -0.8936    1.1894 C   0  0  0  0  0  0  0  0  0  0  0  0
    5.7464   -3.3533    0.1304 C   0  0  1  0  0  0  0  0  0  0  0  0
    7.0478   -3.0386   -0.3387 O   0  0  0  0  0  0  0  0  0  0  0  0
    5.8322   -4.7866    1.0538 C   0  0  1  0  0  0  0  0  0  0  0  0
    7.1001   -4.9842    1.6573 O   0  0  0  0  0  0  0  0  0  0  0  0
    4.6564   -4.7825    2.1040 C   0  0  1  0  0  0  0  0  0  0  0  0
    4.0451   -5.6018    3.3212 C   0  0  1  0  0  0  0  0  0  0  0  0
    4.1308   -7.0393    3.0026 C   0  0  0  0  0  0  0  0  0  0  0  0
    4.1968   -8.1666    2.7505 N   0  0  0  0  0  0  0  0  0  0  0  0
    2.4717   -5.1436    3.5015 C   0  0  1  0  0  0  0  0  0  0  0  0
    1.6627   -5.9478    4.5748 C   0  0  0  0  0  0  0  0  0  0  0  0
    1.8707   -5.6292    6.0793 C   0  0  2  0  0  0  0  0  0  0  0  0
    2.6147   -4.3214    6.2371 C   0  0  0  0  0  0  0  0  0  0  0  0
    4.0716   -4.5390    5.8704 C   0  0  2  0  0  0  0  0  0  0  0  0
    1.9616   -3.5849    3.2812 C   0  0  0  0  0  0  0  0  0  0  0  0
    2.9674   -2.3232    2.9583 C   0  0  1  0  0  0  0  0  0  0  0  0
    2.3240   -1.0908    3.6561 C   0  0  0  0  0  0  0  0  0  0  0  0
    1.5632   -8.4019    6.1486 H   0  0  0  0  0  0  0  0  0  0  0  0
    2.8612   -8.7405    7.4101 H   0  0  0  0  0  0  0  0  0  0  0  0
    3.1414   -5.6245    8.6476 H   0  0  0  0  0  0  0  0  0  0  0  0
    4.1686   -6.9853    8.3714 H   0  0  0  0  0  0  0  0  0  0  0  0
    5.0050   -4.4431    7.8778 H   0  0  0  0  0  0  0  0  0  0  0  0
    6.7878   -5.3808    6.6870 H   0  0  0  0  0  0  0  0  0  0  0  0
    6.1467   -6.8491    7.3930 H   0  0  0  0  0  0  0  0  0  0  0  0
    6.4548   -6.7288    4.7235 H   0  0  0  0  0  0  0  0  0  0  0  0
    4.9602   -7.4109    5.3907 H   0  0  0  0  0  0  0  0  0  0  0  0
    5.0395   -2.6456    5.7783 H   0  0  0  0  0  0  0  0  0  0  0  0
    4.9399   -1.0685    2.9645 H   0  0  0  0  0  0  0  0  0  0  0  0
    5.7452   -3.2113    2.4562 H   0  0  0  0  0  0  0  0  0  0  0  0
    2.2259   -5.3331   -0.0757 H   0  0  0  0  0  0  0  0  0  0  0  0
    3.0730   -6.4290    0.9480 H   0  0  0  0  0  0  0  0  0  0  0  0
    3.8817   -5.6583   -0.4131 H   0  0  0  0  0  0  0  0  0  0  0  0
    3.1386   -3.1685   -0.4992 H   0  0  0  0  0  0  0  0  0  0  0  0
    1.8511   -3.1854    0.5979 H   0  0  0  0  0  0  0  0  0  0  0  0
    1.9734   -1.0383    0.2228 H   0  0  0  0  0  0  0  0  0  0  0  0
    5.6983   -1.1331   -1.4284 H   0  0  0  0  0  0  0  0  0  0  0  0
    4.4206   -0.1625   -0.7653 H   0  0  0  0  0  0  0  0  0  0  0  0
    4.0572   -1.6707   -1.5648 H   0  0  0  0  0  0  0  0  0  0  0  0
    6.5979   -0.4350    0.4804 H   0  0  0  0  0  0  0  0  0  0  0  0
    6.5772   -1.3497    1.9173 H   0  0  0  0  0  0  0  0  0  0  0  0
    5.3754   -0.0674    1.6546 H   0  0  0  0  0  0  0  0  0  0  0  0
    5.2681   -3.7008   -0.7855 H   0  0  0  0  0  0  0  0  0  0  0  0
    7.4550   -3.8420   -0.6293 H   0  0  0  0  0  0  0  0  0  0  0  0
    5.7651   -5.6558    0.4045 H   0  0  0  0  0  0  0  0  0  0  0  0
    7.1004   -5.8271    2.0901 H   0  0  0  0  0  0  0  0  0  0  0  0
    1.9958   -5.6249    2.6525 H   0  0  0  0  0  0  0  0  0  0  0  0
    0.6057   -5.7775    4.3650 H   0  0  0  0  0  0  0  0  0  0  0  0
    1.7983   -7.0134    4.3896 H   0  0  0  0  0  0  0  0  0  0  0  0
    0.8896   -5.5125    6.5425 H   0  0  0  0  0  0  0  0  0  0  0  0
    2.1798   -3.4723    5.7475 H   0  0  0  0  0  0  0  0  0  0  0  0
    2.5298   -3.9799    7.2693 H   0  0  0  0  0  0  0  0  0  0  0  0
    1.2256   -3.6308    2.4867 H   0  0  0  0  0  0  0  0  0  0  0  0
    1.2463   -3.3044    4.0468 H   0  0  0  0  0  0  0  0  0  0  0  0
    1.3183   -0.9071    3.2785 H   0  0  0  0  0  0  0  0  0  0  0  0
    2.8913   -0.1762    3.4854 H   0  0  0  0  0  0  0  0  0  0  0  0
    2.2527   -1.2276    4.7348 H   0  0  0  0  0  0  0  0  0  0  0  0
  1  2  2  0
  1 37  1  0
  1 38  1  0
  2 31  1  0
  2  3  1  0
  3  4  1  0
  3 39  1  0
  3 40  1  0
  4 33  1  0
  4  5  1  0
  4 41  1  1
  5  6  1  0
  5 42  1  0
  5 43  1  0
  6  7  1  0
  6 44  1  0
  6 45  1  0
  7 26  1  0
  7 33  1  0
  7  8  1  6
  8  9  1  0
  9 33  1  0
  9 10  1  0
  9 46  1  1
 10 35  1  0
 10 11  1  6
 10 12  1  0
 11 47  1  0
 12 25  1  0
 12 13  1  0
 12 48  1  6
 25 13  1  6
 13 14  1  6
 13 15  1  0
 14 49  1  0
 14 50  1  0
 14 51  1  0
 15 16  1  0
 15 52  1  0
 15 53  1  0
 16 35  1  0
 16 17  1  6
 16 18  1  0
 17 54  1  0
 18 19  1  0
 18 20  1  0
 18 21  1  0
 19 55  1  0
 19 56  1  0
 19 57  1  0
 20 58  1  0
 20 59  1  0
 20 60  1  0
 21 22  1  0
 21 23  1  0
 21 61  1  6
 22 62  1  0
 23 24  1  0
 23 25  1  0
 23 63  1  6
 24 64  1  0
 25 26  1  0
 26 27  1  6
 26 29  1  0
 27 28  3  0
 29 30  1  0
 29 34  1  0
 29 65  1  6
 30 31  1  0
 30 66  1  0
 30 67  1  0
 31 32  1  0
 31 68  1  1
 33 32  1  1
 32 69  1  0
 32 70  1  0
 34 35  1  0
 34 71  1  0
 34 72  1  0
 35 36  1  1
 36 73  1  0
 36 74  1  0
 36 75  1  0
M  END
>  <i_m_ct_stereo_status>  (60) 
1

>  <s_m_source_file>  (60) 
/var/tmp/pbs.5076255.sched01/tmpr7id634h/0ay6m0hv_.sdf

>  <i_m_source_file_index>  (60) 
24

>  <i_lp_mmshare_version>  (60) 
48012

>  <i_f3d_flags>  (60) 
0

>  <s_epik_input>  (60) 
W0NIMl0xW0NIMl1bQ0BASF0oW0NAXTIzW0NAXTE0NSlbQ0gyXUMoPVtDSDJdKVtDQEBIXShbQ0gyXTMpW0NIMl1bQ0BASF02W0NAQF01KEMjTilDNzhbQ0BASF05W0NAQF0oW0NAQEhdMk80KShbT0hdKVtDQEBdKFtDSDJdNikoW0NIM10pW0NAXShbT0hdKShbQ0gyXVtDQEBdNzlbQ0gzXSlDKFtDSDNdKShbQ0gzXSlbQ0BASF0oW09IXSlbQ0BIXThbT0hd

>  <s_epik_cmdline>  (60) 
J2VwaWtfcHl0aG9uJywgJy1waHQnLCAnMi4wJywgJy1waCcsICc3LjAnLCAnLXRuJywgJzgnLCAnLW1hJywgJzIwMCcsICctaW1hZScsICc8aW5maWxlLm1hZT4nLCAnLW9tYWUnLCAnPG91dGZpbGUubWFlPic=

>  <r_lp_tautomer_probability>  (60) 
1

>  <r_epik_Ionization_Penalty>  (60) 
8.08073e-07

>  <r_epik_Ionization_Penalty_Charging>  (60) 
0

>  <r_epik_Ionization_Penalty_Neutral>  (60) 
8.08073e-07

>  <r_epik_State_Penalty>  (60) 
-0

>  <r_epik_Charging_Adjusted_Penalty>  (60) 
0

>  <i_epik_Tot_Q>  (60) 
0

>  <i_epik_Tot_abs_Q>  (60) 
0

>  <s_lp_Force_Field>  (60) 
OPLS3e

>  <r_lp_Energy>  (60) 
449.916

>  <b_lp_Chiralities_Consistent>  (60) 
1

>  <s_lp_Variant>  (60) 
14:0-1

>  <s_i_glide_gridfile>  (60) 
pfpi4k_grid

>  <i_i_glide_lignum>  (60) 
24

>  <i_i_glide_rotatable_bonds>  (60) 
5

>  <r_i_docking_score>  (60) 
-2.69616

>  <r_i_glide_ligand_efficiency>  (60) 
-0.0748932

>  <r_i_glide_ligand_efficiency_sa>  (60) 
-0.247292

>  <r_i_glide_ligand_efficiency_ln>  (60) 
-0.588228

>  <r_i_glide_gscore>  (60) 
-2.69616

>  <r_i_glide_lipo>  (60) 
-0.355634

>  <r_i_glide_hbond>  (60) 
-0.16

>  <r_i_glide_metal>  (60) 
-0

>  <r_i_glide_rewards>  (60) 
-0.0434021

>  <r_i_glide_evdw>  (60) 
-23.2176

>  <r_i_glide_ecoul>  (60) 
-6.50825

>  <r_i_glide_erotb>  (60) 
0

>  <r_i_glide_esite>  (60) 
0

>  <r_i_glide_emodel>  (60) 
-33.1999

>  <r_i_glide_energy>  (60) 
-29.7259

>  <r_i_glide_einternal>  (60) 
1.98858

>  <r_i_glide_intrahb_reward>  (60) 
-0

>  <i_i_glide_confnum>  (60) 
2

>  <i_i_glide_posenum>  (60) 
16

>  <r_i_glide_eff_state_penalty>  (60) 
0

>  <ligand_id>  (60) 
14

>  <original_smiles>  (60) 
C=C1CC2CCC34OC5C6(O)C7C8(C)CC9(O)C(C)(C)C(O)C(O)C78C3(C#N)C(CC1CC254)CC69C

>  <smiles>  (60) 
[H]OC1([H])C([H])(O[H])C23C4([H])C5(O[H])C6([H])OC78C([H])([H])C([H])([H])C9([H])C([H])([H])C(=C([H])[H])C([H])(C([H])([H])C([H])(C([H])([H])C5(C([H])([H])[H])C(O[H])(C([H])([H])C42C([H])([H])[H])C1(C([H])([H])[H])C([H])([H])[H])C73C#N)C([H])([H])C698

$$$$
14:0:1
     RDKit          3D

 75 83  0  0  1  0  0  0  0  0999 V2000
    1.2343   -7.2705    5.5910 C   0  0  0  0  0  0  0  0  0  0  0  0
    2.1708   -6.3116    5.7197 C   0  0  0  0  0  0  0  0  0  0  0  0
    3.5320   -6.5948    6.3684 C   0  0  0  0  0  0  0  0  0  0  0  0
    4.7392   -6.1016    5.5001 C   0  0  1  0  0  0  0  0  0  0  0  0
    5.2205   -7.2897    4.6453 C   0  0  0  0  0  0  0  0  0  0  0  0
    4.4108   -7.1970    3.3592 C   0  0  0  0  0  0  0  0  0  0  0  0
    4.2180   -5.6964    3.1713 C   0  0  1  0  0  0  0  0  0  0  0  0
    5.5666   -5.2446    2.9044 O   0  0  0  0  0  0  0  0  0  0  0  0
    5.2520   -4.0667    3.6769 C   0  0  1  0  0  0  0  0  0  0  0  0
    4.9479   -2.9927    2.5418 C   0  0  1  0  0  0  0  0  0  0  0  0
    6.1792   -2.3170    2.4865 O   0  0  0  0  0  0  0  0  0  0  0  0
    4.6722   -3.6390    1.2567 C   0  0  2  0  0  0  0  0  0  0  0  0
    3.1239   -3.4123    0.3722 C   0  0  2  0  0  0  0  0  0  0  0  0
    2.0750   -4.0615   -0.5626 C   0  0  0  0  0  0  0  0  0  0  0  0
    3.0691   -1.9683    0.0244 C   0  0  0  0  0  0  0  0  0  0  0  0
    4.2190   -1.3378    0.6639 C   0  0  2  0  0  0  0  0  0  0  0  0
    4.1542    0.0459    0.6079 O   0  0  0  0  0  0  0  0  0  0  0  0
    5.3203   -1.8732   -0.5253 C   0  0  0  0  0  0  0  0  0  0  0  0
    5.1937   -0.9170   -1.7527 C   0  0  0  0  0  0  0  0  0  0  0  0
    6.8122   -1.6923   -0.1008 C   0  0  0  0  0  0  0  0  0  0  0  0
    5.1463   -3.3935   -1.2475 C   0  0  1  0  0  0  0  0  0  0  0  0
    6.2152   -3.5836   -2.1172 O   0  0  0  0  0  0  0  0  0  0  0  0
    4.7198   -4.8776   -0.5210 C   0  0  1  0  0  0  0  0  0  0  0  0
    5.8052   -5.6911   -0.2204 O   0  0  0  0  0  0  0  0  0  0  0  0
    3.8970   -4.5458    0.7873 C   0  0  1  0  0  0  0  0  0  0  0  0
    3.2239   -5.2360    2.0522 C   0  0  1  0  0  0  0  0  0  0  0  0
    2.4295   -6.3928    1.6674 C   0  0  0  0  0  0  0  0  0  0  0  0
    1.7795   -7.3205    1.3655 N   0  0  0  0  0  0  0  0  0  0  0  0
    2.2135   -4.1327    2.7054 C   0  0  1  0  0  0  0  0  0  0  0  0
    1.3373   -4.6745    3.8675 C   0  0  0  0  0  0  0  0  0  0  0  0
    1.9729   -4.8617    5.2670 C   0  0  2  0  0  0  0  0  0  0  0  0
    3.3056   -4.1540    5.3216 C   0  0  0  0  0  0  0  0  0  0  0  0
    4.3235   -4.9583    4.5241 C   0  0  2  0  0  0  0  0  0  0  0  0
    2.5480   -2.5223    2.7806 C   0  0  0  0  0  0  0  0  0  0  0  0
    3.9659   -1.8615    2.3123 C   0  0  1  0  0  0  0  0  0  0  0  0
    4.2385   -0.6733    3.2700 C   0  0  0  0  0  0  0  0  0  0  0  0
    0.2677   -7.0703    5.1525 H   0  0  0  0  0  0  0  0  0  0  0  0
    1.4206   -8.2769    5.9363 H   0  0  0  0  0  0  0  0  0  0  0  0
    3.5411   -6.0697    7.3233 H   0  0  0  0  0  0  0  0  0  0  0  0
    3.6149   -7.6466    6.6276 H   0  0  0  0  0  0  0  0  0  0  0  0
    5.5510   -5.7903    6.1607 H   0  0  0  0  0  0  0  0  0  0  0  0
    6.2762   -7.1642    4.4096 H   0  0  0  0  0  0  0  0  0  0  0  0
    5.1186   -8.2570    5.1293 H   0  0  0  0  0  0  0  0  0  0  0  0
    4.8998   -7.6762    2.5094 H   0  0  0  0  0  0  0  0  0  0  0  0
    3.4504   -7.6864    3.5260 H   0  0  0  0  0  0  0  0  0  0  0  0
    6.0656   -3.7608    4.3252 H   0  0  0  0  0  0  0  0  0  0  0  0
    6.3800   -2.2014    1.5711 H   0  0  0  0  0  0  0  0  0  0  0  0
    5.7176   -3.7818    0.9955 H   0  0  0  0  0  0  0  0  0  0  0  0
    1.2931   -3.3297   -0.7562 H   0  0  0  0  0  0  0  0  0  0  0  0
    1.5778   -4.9224   -0.1165 H   0  0  0  0  0  0  0  0  0  0  0  0
    2.4245   -4.3112   -1.5493 H   0  0  0  0  0  0  0  0  0  0  0  0
    2.9611   -1.8341   -1.0484 H   0  0  0  0  0  0  0  0  0  0  0  0
    2.2258   -1.5171    0.4434 H   0  0  0  0  0  0  0  0  0  0  0  0
    3.2748    0.2668    0.8831 H   0  0  0  0  0  0  0  0  0  0  0  0
    5.7757   -1.3037   -2.5703 H   0  0  0  0  0  0  0  0  0  0  0  0
    5.5686    0.0786   -1.5369 H   0  0  0  0  0  0  0  0  0  0  0  0
    4.2219   -0.7989   -2.2194 H   0  0  0  0  0  0  0  0  0  0  0  0
    7.4652   -1.5286   -0.9531 H   0  0  0  0  0  0  0  0  0  0  0  0
    7.2794   -2.5803    0.3492 H   0  0  0  0  0  0  0  0  0  0  0  0
    6.9314   -0.8232    0.5495 H   0  0  0  0  0  0  0  0  0  0  0  0
    4.3757   -3.2662   -1.9920 H   0  0  0  0  0  0  0  0  0  0  0  0
    6.7053   -4.2870   -1.7288 H   0  0  0  0  0  0  0  0  0  0  0  0
    4.2146   -5.5111   -1.2219 H   0  0  0  0  0  0  0  0  0  0  0  0
    5.8978   -6.2945   -0.9619 H   0  0  0  0  0  0  0  0  0  0  0  0
    1.4208   -4.1289    1.9597 H   0  0  0  0  0  0  0  0  0  0  0  0
    0.5172   -3.9726    3.9807 H   0  0  0  0  0  0  0  0  0  0  0  0
    0.8491   -5.5903    3.5423 H   0  0  0  0  0  0  0  0  0  0  0  0
    1.3144   -4.3993    6.0014 H   0  0  0  0  0  0  0  0  0  0  0  0
    3.2909   -3.1151    5.0570 H   0  0  0  0  0  0  0  0  0  0  0  0
    3.6263   -4.0680    6.3624 H   0  0  0  0  0  0  0  0  0  0  0  0
    1.7272   -2.0432    2.2618 H   0  0  0  0  0  0  0  0  0  0  0  0
    2.2761   -2.1145    3.7390 H   0  0  0  0  0  0  0  0  0  0  0  0
    3.4304    0.0540    3.2164 H   0  0  0  0  0  0  0  0  0  0  0  0
    5.1553   -0.1401    3.0189 H   0  0  0  0  0  0  0  0  0  0  0  0
    4.3320   -1.0144    4.2999 H   0  0  0  0  0  0  0  0  0  0  0  0
  1  2  2  0
  1 37  1  0
  1 38  1  0
  2 31  1  0
  2  3  1  0
  3  4  1  0
  3 39  1  0
  3 40  1  0
  4 33  1  0
  4  5  1  0
  4 41  1  1
  5  6  1  0
  5 42  1  0
  5 43  1  0
  6  7  1  0
  6 44  1  0
  6 45  1  0
  7 26  1  0
  7 33  1  0
  7  8  1  6
  8  9  1  0
  9 33  1  0
  9 10  1  0
  9 46  1  1
 10 35  1  0
 10 11  1  6
 10 12  1  0
 11 47  1  0
 12 25  1  0
 12 13  1  0
 12 48  1  6
 25 13  1  6
 13 14  1  6
 13 15  1  0
 14 49  1  0
 14 50  1  0
 14 51  1  0
 15 16  1  0
 15 52  1  0
 15 53  1  0
 16 35  1  0
 16 17  1  1
 16 18  1  0
 17 54  1  0
 18 19  1  0
 18 20  1  0
 18 21  1  0
 19 55  1  0
 19 56  1  0
 19 57  1  0
 20 58  1  0
 20 59  1  0
 20 60  1  0
 21 22  1  0
 21 23  1  0
 21 61  1  6
 22 62  1  0
 23 24  1  0
 23 25  1  0
 23 63  1  6
 24 64  1  0
 25 26  1  0
 26 27  1  6
 26 29  1  0
 27 28  3  0
 29 30  1  0
 29 34  1  0
 29 65  1  6
 30 31  1  0
 30 66  1  0
 30 67  1  0
 31 32  1  0
 31 68  1  1
 33 32  1  1
 32 69  1  0
 32 70  1  0
 34 35  1  0
 34 71  1  0
 34 72  1  0
 35 36  1  1
 36 73  1  0
 36 74  1  0
 36 75  1  0
M  END
>  <i_m_ct_stereo_status>  (61) 
1

>  <s_m_source_file>  (61) 
/var/tmp/pbs.5076255.sched01/tmpr7id634h/0ay6m0hv_.sdf

>  <i_m_source_file_index>  (61) 
24

>  <i_lp_mmshare_version>  (61) 
48012

>  <i_f3d_flags>  (61) 
0

>  <s_epik_input>  (61) 
W0NIMl0xW0NIMl1bQ0BASF0oW0NAXTIzW0NAXTE0NSlbQ0gyXUMoPVtDSDJdKVtDQEBIXShbQ0gyXTMpW0NIMl1bQ0BASF02W0NAQF01KEMjTilDNzhbQ0BASF05W0NAQF0oW0NAQEhdMk80KShbT0hdKVtDQEBdKFtDSDJdNikoW0NIM10pW0NAXShbT0hdKShbQ0gyXVtDQEBdNzlbQ0gzXSlDKFtDSDNdKShbQ0gzXSlbQ0BASF0oW09IXSlbQ0BIXThbT0hd

>  <s_epik_cmdline>  (61) 
J2VwaWtfcHl0aG9uJywgJy1waHQnLCAnMi4wJywgJy1waCcsICc3LjAnLCAnLXRuJywgJzgnLCAnLW1hJywgJzIwMCcsICctaW1hZScsICc8aW5maWxlLm1hZT4nLCAnLW9tYWUnLCAnPG91dGZpbGUubWFlPic=

>  <r_lp_tautomer_probability>  (61) 
1

>  <r_epik_Ionization_Penalty>  (61) 
8.08073e-07

>  <r_epik_Ionization_Penalty_Charging>  (61) 
0

>  <r_epik_Ionization_Penalty_Neutral>  (61) 
8.08073e-07

>  <r_epik_State_Penalty>  (61) 
-0

>  <r_epik_Charging_Adjusted_Penalty>  (61) 
0

>  <i_epik_Tot_Q>  (61) 
0

>  <i_epik_Tot_abs_Q>  (61) 
0

>  <s_lp_Force_Field>  (61) 
OPLS3e

>  <r_lp_Energy>  (61) 
449.916

>  <b_lp_Chiralities_Consistent>  (61) 
1

>  <s_lp_Variant>  (61) 
14:0-1

>  <s_i_glide_gridfile>  (61) 
pfpi4k_grid

>  <i_i_glide_lignum>  (61) 
24

>  <i_i_glide_rotatable_bonds>  (61) 
5

>  <r_i_docking_score>  (61) 
-0.454722

>  <r_i_glide_ligand_efficiency>  (61) 
-0.0126312

>  <r_i_glide_ligand_efficiency_sa>  (61) 
-0.0417072

>  <r_i_glide_ligand_efficiency_ln>  (61) 
-0.099208

>  <r_i_glide_gscore>  (61) 
-0.454722

>  <r_i_glide_lipo>  (61) 
-0.215635

>  <r_i_glide_hbond>  (61) 
0

>  <r_i_glide_metal>  (61) 
-0

>  <r_i_glide_rewards>  (61) 
-0.0434021

>  <r_i_glide_evdw>  (61) 
1.25813

>  <r_i_glide_ecoul>  (61) 
-1.65411

>  <r_i_glide_erotb>  (61) 
0

>  <r_i_glide_esite>  (61) 
-0.010474

>  <r_i_glide_emodel>  (61) 
3.35685

>  <r_i_glide_energy>  (61) 
-0.395982

>  <r_i_glide_einternal>  (61) 
2.81138

>  <r_i_glide_intrahb_reward>  (61) 
-0

>  <i_i_glide_confnum>  (61) 
2

>  <i_i_glide_posenum>  (61) 
5

>  <r_i_glide_eff_state_penalty>  (61) 
0

>  <ligand_id>  (61) 
14

>  <original_smiles>  (61) 
C=C1CC2CCC34OC5C6(O)C7C8(C)CC9(O)C(C)(C)C(O)C(O)C78C3(C#N)C(CC1CC254)CC69C

>  <smiles>  (61) 
[H]OC1([H])C([H])(O[H])C23C4([H])C5(O[H])C6([H])OC78C([H])([H])C([H])([H])C9([H])C([H])([H])C(=C([H])[H])C([H])(C([H])([H])C([H])(C([H])([H])C5(C([H])([H])[H])C(O[H])(C([H])([H])C42C([H])([H])[H])C1(C([H])([H])[H])C([H])([H])[H])C73C#N)C([H])([H])C698

$$$$
15:0:0
     RDKit          3D

 46 49  0  0  1  0  0  0  0  0999 V2000
    5.0374   -3.6149   -2.8645 C   0  0  0  0  0  0  0  0  0  0  0  0
    4.6835   -2.9176   -1.5418 C   0  0  2  0  0  0  0  0  0  0  0  0
    5.4545   -1.5965   -1.4550 C   0  0  0  0  0  0  0  0  0  0  0  0
    5.0777   -0.7809   -0.2110 C   0  0  0  0  0  0  0  0  0  0  0  0
    5.2669   -1.5909    1.0856 C   0  0  1  0  0  0  0  0  0  0  0  0
    6.6509   -1.7825    1.2696 O   0  0  0  0  0  0  0  0  0  0  0  0
    4.7705   -0.7776    2.0972 O   0  0  0  0  0  0  0  0  0  0  0  0
    3.5241   -1.1337    2.6624 C   0  0  2  0  0  0  0  0  0  0  0  0
    2.8877    0.1851    3.1229 C   0  0  0  0  0  0  0  0  0  0  0  0
    3.7514   -2.0624    3.8641 C   0  0  0  0  0  0  0  0  0  0  0  0
    4.8237   -3.1296    3.6304 C   0  0  0  0  0  0  0  0  0  0  0  0
    4.6589   -3.8928    2.3100 C   0  0  2  0  0  0  0  0  0  0  0  0
    5.6652   -5.0645    2.1118 C   0  0  1  0  0  0  0  0  0  0  0  0
    5.9066   -5.9501    3.3476 C   0  0  0  0  0  0  0  0  0  0  0  0
    5.2482   -5.9547    0.9174 C   0  0  0  0  0  0  0  0  0  0  0  0
    4.5840   -5.1838   -0.2365 C   0  0  0  0  0  0  0  0  0  0  0  0
    5.0397   -3.7188   -0.2596 C   0  0  2  0  0  0  0  0  0  0  0  0
    4.5349   -2.9848    1.0255 C   0  0  2  0  0  0  0  0  0  0  0  0
    3.1364   -2.7734    0.8506 O   0  0  0  0  0  0  0  0  0  0  0  0
    2.5848   -1.6558    1.7240 O   0  0  0  0  0  0  0  0  0  0  0  0
    6.0789   -3.9363   -2.8723 H   0  0  0  0  0  0  0  0  0  0  0  0
    4.8841   -2.9521   -3.7178 H   0  0  0  0  0  0  0  0  0  0  0  0
    4.4102   -4.4868   -3.0328 H   0  0  0  0  0  0  0  0  0  0  0  0
    3.6149   -2.6983   -1.5667 H   0  0  0  0  0  0  0  0  0  0  0  0
    6.5251   -1.8149   -1.4539 H   0  0  0  0  0  0  0  0  0  0  0  0
    5.2618   -0.9904   -2.3382 H   0  0  0  0  0  0  0  0  0  0  0  0
    5.6985    0.1145   -0.1304 H   0  0  0  0  0  0  0  0  0  0  0  0
    4.0397   -0.4558   -0.2820 H   0  0  0  0  0  0  0  0  0  0  0  0
    7.0410   -0.9218    1.3469 H   0  0  0  0  0  0  0  0  0  0  0  0
    2.7182    0.8415    2.2663 H   0  0  0  0  0  0  0  0  0  0  0  0
    3.5269    0.7209    3.8295 H   0  0  0  0  0  0  0  0  0  0  0  0
    1.9242    0.0071    3.6050 H   0  0  0  0  0  0  0  0  0  0  0  0
    4.0834   -1.4664    4.7162 H   0  0  0  0  0  0  0  0  0  0  0  0
    2.8059   -2.5118    4.1656 H   0  0  0  0  0  0  0  0  0  0  0  0
    5.8129   -2.6726    3.6716 H   0  0  0  0  0  0  0  0  0  0  0  0
    4.7746   -3.8168    4.4719 H   0  0  0  0  0  0  0  0  0  0  0  0
    3.6966   -4.3957    2.4093 H   0  0  0  0  0  0  0  0  0  0  0  0
    6.6302   -4.6214    1.8649 H   0  0  0  0  0  0  0  0  0  0  0  0
    4.9733   -6.3845    3.7109 H   0  0  0  0  0  0  0  0  0  0  0  0
    6.3749   -5.3956    4.1626 H   0  0  0  0  0  0  0  0  0  0  0  0
    6.5777   -6.7740    3.0983 H   0  0  0  0  0  0  0  0  0  0  0  0
    6.1472   -6.4410    0.5389 H   0  0  0  0  0  0  0  0  0  0  0  0
    4.5849   -6.7609    1.2487 H   0  0  0  0  0  0  0  0  0  0  0  0
    4.8466   -5.6949   -1.1594 H   0  0  0  0  0  0  0  0  0  0  0  0
    3.5003   -5.2233   -0.1358 H   0  0  0  0  0  0  0  0  0  0  0  0
    6.1326   -3.7589   -0.2254 H   0  0  0  0  0  0  0  0  0  0  0  0
  1  2  1  0
  1 21  1  0
  1 22  1  0
  1 23  1  0
  2 17  1  0
  2  3  1  0
  2 24  1  6
  3  4  1  0
  3 25  1  0
  3 26  1  0
  4  5  1  0
  4 27  1  0
  4 28  1  0
  5 18  1  0
  5  6  1  1
  5  7  1  0
  6 29  1  0
  7  8  1  0
  8 20  1  0
  8  9  1  1
  8 10  1  0
  9 30  1  0
  9 31  1  0
  9 32  1  0
 10 11  1  0
 10 33  1  0
 10 34  1  0
 11 12  1  0
 11 35  1  0
 11 36  1  0
 12 18  1  0
 12 13  1  0
 12 37  1  1
 13 14  1  0
 13 15  1  0
 13 38  1  6
 14 39  1  0
 14 40  1  0
 14 41  1  0
 15 16  1  0
 15 42  1  0
 15 43  1  0
 16 17  1  0
 16 44  1  0
 16 45  1  0
 17 18  1  0
 17 46  1  1
 18 19  1  6
 19 20  1  0
M  END
>  <i_m_ct_stereo_status>  (62) 
1

>  <s_m_source_file>  (62) 
/var/tmp/pbs.5076255.sched01/tmpr7id634h/0ay6m0hv_.sdf

>  <i_m_source_file_index>  (62) 
25

>  <i_lp_mmshare_version>  (62) 
48012

>  <i_f3d_flags>  (62) 
0

>  <s_epik_input>  (62) 
W09IXVtDQF0xKFtDQF0yMzQpW0NIMl1bQ0gyXVtDQEBIXShbQ0gzXSlbQ0BASF0zW0NIMl1bQ0gyXVtDQEhdKFtDSDNdKVtDQEhdMltDSDJdW0NIMl1bQ0BdKE8xKShbQ0gzXSlPTzQ=

>  <s_epik_cmdline>  (62) 
J2VwaWtfcHl0aG9uJywgJy1waHQnLCAnMi4wJywgJy1waCcsICc3LjAnLCAnLXRuJywgJzgnLCAnLW1hJywgJzIwMCcsICctaW1hZScsICc8aW5maWxlLm1hZT4nLCAnLW9tYWUnLCAnPG91dGZpbGUubWFlPic=

>  <r_lp_tautomer_probability>  (62) 
1

>  <r_epik_Ionization_Penalty>  (62) 
5.58898e-06

>  <r_epik_Ionization_Penalty_Charging>  (62) 
0

>  <r_epik_Ionization_Penalty_Neutral>  (62) 
5.58898e-06

>  <r_epik_State_Penalty>  (62) 
-0

>  <r_epik_Charging_Adjusted_Penalty>  (62) 
0

>  <i_epik_Tot_Q>  (62) 
0

>  <i_epik_Tot_abs_Q>  (62) 
0

>  <s_lp_Force_Field>  (62) 
OPLS3e

>  <r_lp_Energy>  (62) 
44.5381

>  <b_lp_Chiralities_Consistent>  (62) 
1

>  <s_lp_Variant>  (62) 
15:0-1

>  <s_i_glide_gridfile>  (62) 
pfpi4k_grid

>  <i_i_glide_lignum>  (62) 
25

>  <i_i_glide_rotatable_bonds>  (62) 
1

>  <r_i_docking_score>  (62) 
-3.04706

>  <r_i_glide_ligand_efficiency>  (62) 
-0.152353

>  <r_i_glide_ligand_efficiency_sa>  (62) 
-0.41355

>  <r_i_glide_ligand_efficiency_ln>  (62) 
-0.762579

>  <r_i_glide_gscore>  (62) 
-3.04706

>  <r_i_glide_lipo>  (62) 
-0.369408

>  <r_i_glide_hbond>  (62) 
0

>  <r_i_glide_metal>  (62) 
-0

>  <r_i_glide_rewards>  (62) 
-1.6003

>  <r_i_glide_evdw>  (62) 
-20.0766

>  <r_i_glide_ecoul>  (62) 
-0.488106

>  <r_i_glide_erotb>  (62) 
0

>  <r_i_glide_esite>  (62) 
-0.000310952

>  <r_i_glide_emodel>  (62) 
-24.3419

>  <r_i_glide_energy>  (62) 
-20.5647

>  <r_i_glide_einternal>  (62) 
0.136379

>  <r_i_glide_intrahb_reward>  (62) 
-0

>  <i_i_glide_confnum>  (62) 
1

>  <i_i_glide_posenum>  (62) 
39

>  <r_i_glide_eff_state_penalty>  (62) 
0

>  <ligand_id>  (62) 
15

>  <original_smiles>  (62) 
CC1CCC2(O)OC3(C)CCC4C(C)CCC1C42OO3

>  <smiles>  (62) 
[H]OC12OC3(C([H])([H])[H])OOC14C([H])(C([H])([H])C3([H])[H])C([H])(C([H])([H])[H])C([H])([H])C([H])([H])C4([H])C([H])(C([H])([H])[H])C([H])([H])C2([H])[H]

$$$$
15:0:1
     RDKit          3D

 46 49  0  0  1  0  0  0  0  0999 V2000
    3.5307   -2.1398   -2.5291 C   0  0  0  0  0  0  0  0  0  0  0  0
    3.8874   -1.8092   -1.0701 C   0  0  2  0  0  0  0  0  0  0  0  0
    5.2646   -1.1337   -1.0052 C   0  0  0  0  0  0  0  0  0  0  0  0
    5.6204   -0.6848    0.4207 C   0  0  0  0  0  0  0  0  0  0  0  0
    5.5521   -1.8499    1.4387 C   0  0  1  0  0  0  0  0  0  0  0  0
    6.6031   -2.7516    1.1631 O   0  0  0  0  0  0  0  0  0  0  0  0
    5.7599   -1.2477    2.6772 O   0  0  0  0  0  0  0  0  0  0  0  0
    4.6468   -1.1307    3.5432 C   0  0  2  0  0  0  0  0  0  0  0  0
    4.9351    0.0999    4.4122 C   0  0  0  0  0  0  0  0  0  0  0  0
    4.5301   -2.3878    4.4200 C   0  0  0  0  0  0  0  0  0  0  0  0
    4.7592   -3.7030    3.6717 C   0  0  0  0  0  0  0  0  0  0  0  0
    3.9764   -3.8141    2.3579 C   0  0  2  0  0  0  0  0  0  0  0  0
    4.1117   -5.1928    1.6463 C   0  0  1  0  0  0  0  0  0  0  0  0
    4.0363   -6.4283    2.5638 C   0  0  0  0  0  0  0  0  0  0  0  0
    3.0764   -5.3298    0.5035 C   0  0  0  0  0  0  0  0  0  0  0  0
    2.7553   -4.0056   -0.2178 C   0  0  0  0  0  0  0  0  0  0  0  0
    3.9454   -3.0365   -0.1240 C   0  0  2  0  0  0  0  0  0  0  0  0
    4.1672   -2.6029    1.3645 C   0  0  2  0  0  0  0  0  0  0  0  0
    3.1208   -1.6874    1.6796 O   0  0  0  0  0  0  0  0  0  0  0  0
    3.4308   -0.8007    2.8750 O   0  0  0  0  0  0  0  0  0  0  0  0
    4.1744   -2.9217   -2.9359 H   0  0  0  0  0  0  0  0  0  0  0  0
    3.6265   -1.2557   -3.1625 H   0  0  0  0  0  0  0  0  0  0  0  0
    2.4931   -2.4683   -2.6121 H   0  0  0  0  0  0  0  0  0  0  0  0
    3.1376   -1.1002   -0.7161 H   0  0  0  0  0  0  0  0  0  0  0  0
    6.0293   -1.8145   -1.3821 H   0  0  0  0  0  0  0  0  0  0  0  0
    5.2771   -0.2602   -1.6582 H   0  0  0  0  0  0  0  0  0  0  0  0
    6.6256   -0.2639    0.4457 H   0  0  0  0  0  0  0  0  0  0  0  0
    4.9369    0.1047    0.7370 H   0  0  0  0  0  0  0  0  0  0  0  0
    7.4127   -2.2592    1.1876 H   0  0  0  0  0  0  0  0  0  0  0  0
    5.0070    0.9888    3.7843 H   0  0  0  0  0  0  0  0  0  0  0  0
    5.8754    0.0045    4.9606 H   0  0  0  0  0  0  0  0  0  0  0  0
    4.1355    0.2690    5.1375 H   0  0  0  0  0  0  0  0  0  0  0  0
    5.2767   -2.3378    5.2146 H   0  0  0  0  0  0  0  0  0  0  0  0
    3.5633   -2.3901    4.9232 H   0  0  0  0  0  0  0  0  0  0  0  0
    5.8176   -3.8403    3.4703 H   0  0  0  0  0  0  0  0  0  0  0  0
    4.4832   -4.5059    4.3511 H   0  0  0  0  0  0  0  0  0  0  0  0
    2.9309   -3.7851    2.6678 H   0  0  0  0  0  0  0  0  0  0  0  0
    5.1034   -5.2202    1.1905 H   0  0  0  0  0  0  0  0  0  0  0  0
    3.1022   -6.4507    3.1268 H   0  0  0  0  0  0  0  0  0  0  0  0
    4.8661   -6.4636    3.2706 H   0  0  0  0  0  0  0  0  0  0  0  0
    4.0875   -7.3450    1.9755 H   0  0  0  0  0  0  0  0  0  0  0  0
    3.4759   -6.0397   -0.2207 H   0  0  0  0  0  0  0  0  0  0  0  0
    2.1498   -5.7732    0.8791 H   0  0  0  0  0  0  0  0  0  0  0  0
    2.5148   -4.2448   -1.2518 H   0  0  0  0  0  0  0  0  0  0  0  0
    1.8709   -3.5380    0.2130 H   0  0  0  0  0  0  0  0  0  0  0  0
    4.8175   -3.6131   -0.4468 H   0  0  0  0  0  0  0  0  0  0  0  0
  1  2  1  0
  1 21  1  0
  1 22  1  0
  1 23  1  0
  2 17  1  0
  2  3  1  0
  2 24  1  1
  3  4  1  0
  3 25  1  0
  3 26  1  0
  4  5  1  0
  4 27  1  0
  4 28  1  0
  5 18  1  0
  5  6  1  6
  5  7  1  0
  6 29  1  0
  7  8  1  0
  8 20  1  0
  8  9  1  1
  8 10  1  0
  9 30  1  0
  9 31  1  0
  9 32  1  0
 10 11  1  0
 10 33  1  0
 10 34  1  0
 11 12  1  0
 11 35  1  0
 11 36  1  0
 12 18  1  0
 12 13  1  0
 12 37  1  1
 13 14  1  0
 13 15  1  0
 13 38  1  6
 14 39  1  0
 14 40  1  0
 14 41  1  0
 15 16  1  0
 15 42  1  0
 15 43  1  0
 16 17  1  0
 16 44  1  0
 16 45  1  0
 17 18  1  0
 17 46  1  6
 18 19  1  1
 19 20  1  0
M  END
>  <i_m_ct_stereo_status>  (63) 
1

>  <s_m_source_file>  (63) 
/var/tmp/pbs.5076255.sched01/tmpr7id634h/0ay6m0hv_.sdf

>  <i_m_source_file_index>  (63) 
25

>  <i_lp_mmshare_version>  (63) 
48012

>  <i_f3d_flags>  (63) 
0

>  <s_epik_input>  (63) 
W09IXVtDQF0xKFtDQF0yMzQpW0NIMl1bQ0gyXVtDQEBIXShbQ0gzXSlbQ0BASF0zW0NIMl1bQ0gyXVtDQEhdKFtDSDNdKVtDQEhdMltDSDJdW0NIMl1bQ0BdKE8xKShbQ0gzXSlPTzQ=

>  <s_epik_cmdline>  (63) 
J2VwaWtfcHl0aG9uJywgJy1waHQnLCAnMi4wJywgJy1waCcsICc3LjAnLCAnLXRuJywgJzgnLCAnLW1hJywgJzIwMCcsICctaW1hZScsICc8aW5maWxlLm1hZT4nLCAnLW9tYWUnLCAnPG91dGZpbGUubWFlPic=

>  <r_lp_tautomer_probability>  (63) 
1

>  <r_epik_Ionization_Penalty>  (63) 
5.58898e-06

>  <r_epik_Ionization_Penalty_Charging>  (63) 
0

>  <r_epik_Ionization_Penalty_Neutral>  (63) 
5.58898e-06

>  <r_epik_State_Penalty>  (63) 
-0

>  <r_epik_Charging_Adjusted_Penalty>  (63) 
0

>  <i_epik_Tot_Q>  (63) 
0

>  <i_epik_Tot_abs_Q>  (63) 
0

>  <s_lp_Force_Field>  (63) 
OPLS3e

>  <r_lp_Energy>  (63) 
44.5381

>  <b_lp_Chiralities_Consistent>  (63) 
1

>  <s_lp_Variant>  (63) 
15:0-1

>  <s_i_glide_gridfile>  (63) 
pfpi4k_grid

>  <i_i_glide_lignum>  (63) 
25

>  <i_i_glide_rotatable_bonds>  (63) 
1

>  <r_i_docking_score>  (63) 
-2.97634

>  <r_i_glide_ligand_efficiency>  (63) 
-0.148817

>  <r_i_glide_ligand_efficiency_sa>  (63) 
-0.403952

>  <r_i_glide_ligand_efficiency_ln>  (63) 
-0.74488

>  <r_i_glide_gscore>  (63) 
-2.97634

>  <r_i_glide_lipo>  (63) 
-0.276657

>  <r_i_glide_hbond>  (63) 
0

>  <r_i_glide_metal>  (63) 
-0

>  <r_i_glide_rewards>  (63) 
-1.70947

>  <r_i_glide_evdw>  (63) 
-21.2409

>  <r_i_glide_ecoul>  (63) 
0.478846

>  <r_i_glide_erotb>  (63) 
0

>  <r_i_glide_esite>  (63) 
0

>  <r_i_glide_emodel>  (63) 
-24.4825

>  <r_i_glide_energy>  (63) 
-20.7621

>  <r_i_glide_einternal>  (63) 
0.112818

>  <r_i_glide_intrahb_reward>  (63) 
-0

>  <i_i_glide_confnum>  (63) 
1

>  <i_i_glide_posenum>  (63) 
17

>  <r_i_glide_eff_state_penalty>  (63) 
0

>  <ligand_id>  (63) 
15

>  <original_smiles>  (63) 
CC1CCC2(O)OC3(C)CCC4C(C)CCC1C42OO3

>  <smiles>  (63) 
[H]OC12OC3(C([H])([H])[H])OOC14C([H])(C([H])([H])C3([H])[H])C([H])(C([H])([H])[H])C([H])([H])C([H])([H])C4([H])C([H])(C([H])([H])[H])C([H])([H])C2([H])[H]

$$$$
15:0:2
     RDKit          3D

 46 49  0  0  1  0  0  0  0  0999 V2000
    4.7140   -3.1594   -2.7324 C   0  0  0  0  0  0  0  0  0  0  0  0
    4.2606   -2.6937   -1.3370 C   0  0  2  0  0  0  0  0  0  0  0  0
    4.7160   -1.2457   -1.0938 C   0  0  0  0  0  0  0  0  0  0  0  0
    4.2030   -0.6976    0.2463 C   0  0  0  0  0  0  0  0  0  0  0  0
    4.6094   -1.5890    1.4452 C   0  0  1  0  0  0  0  0  0  0  0  0
    6.0109   -1.4929    1.6246 O   0  0  0  0  0  0  0  0  0  0  0  0
    3.9552   -1.0328    2.5416 O   0  0  0  0  0  0  0  0  0  0  0  0
    2.8446   -1.7369    3.0638 C   0  0  2  0  0  0  0  0  0  0  0  0
    1.9323   -0.6691    3.6850 C   0  0  0  0  0  0  0  0  0  0  0  0
    3.3198   -2.7275    4.1398 C   0  0  0  0  0  0  0  0  0  0  0  0
    4.5988   -3.4847    3.7728 C   0  0  0  0  0  0  0  0  0  0  0  0
    4.5652   -4.1020    2.3692 C   0  0  2  0  0  0  0  0  0  0  0  0
    5.8011   -4.9835    2.0225 C   0  0  1  0  0  0  0  0  0  0  0  0
    6.2770   -5.9330    3.1397 C   0  0  0  0  0  0  0  0  0  0  0  0
    5.5556   -5.7947    0.7288 C   0  0  0  0  0  0  0  0  0  0  0  0
    4.6902   -5.0651   -0.3165 C   0  0  0  0  0  0  0  0  0  0  0  0
    4.8142   -3.5402   -0.1593 C   0  0  2  0  0  0  0  0  0  0  0  0
    4.2009   -3.0951    1.2094 C   0  0  2  0  0  0  0  0  0  0  0  0
    2.7867   -3.1837    1.0616 O   0  0  0  0  0  0  0  0  0  0  0  0
    2.0205   -2.3417    2.0724 O   0  0  0  0  0  0  0  0  0  0  0  0
    5.7988   -3.2586   -2.7968 H   0  0  0  0  0  0  0  0  0  0  0  0
    4.3927   -2.4543   -3.5019 H   0  0  0  0  0  0  0  0  0  0  0  0
    4.2679   -4.1217   -2.9893 H   0  0  0  0  0  0  0  0  0  0  0  0
    3.1698   -2.7162   -1.3345 H   0  0  0  0  0  0  0  0  0  0  0  0
    5.8045   -1.1854   -1.1233 H   0  0  0  0  0  0  0  0  0  0  0  0
    4.3522   -0.6010   -1.8936 H   0  0  0  0  0  0  0  0  0  0  0  0
    4.5877    0.3085    0.4182 H   0  0  0  0  0  0  0  0  0  0  0  0
    3.1140   -0.6269    0.2154 H   0  0  0  0  0  0  0  0  0  0  0  0
    6.2314   -0.5765    1.6963 H   0  0  0  0  0  0  0  0  0  0  0  0
    1.5896    0.0271    2.9162 H   0  0  0  0  0  0  0  0  0  0  0  0
    2.4507   -0.0870    4.4506 H   0  0  0  0  0  0  0  0  0  0  0  0
    1.0489   -1.1201    4.1424 H   0  0  0  0  0  0  0  0  0  0  0  0
    3.5291   -2.1802    5.0601 H   0  0  0  0  0  0  0  0  0  0  0  0
    2.5119   -3.4180    4.3831 H   0  0  0  0  0  0  0  0  0  0  0  0
    5.4643   -2.8310    3.8689 H   0  0  0  0  0  0  0  0  0  0  0  0
    4.7296   -4.2629    4.5209 H   0  0  0  0  0  0  0  0  0  0  0  0
    3.7436   -4.8187    2.4080 H   0  0  0  0  0  0  0  0  0  0  0  0
    6.6330   -4.3044    1.8311 H   0  0  0  0  0  0  0  0  0  0  0  0
    5.4815   -6.6121    3.4506 H   0  0  0  0  0  0  0  0  0  0  0  0
    6.6301   -5.3889    4.0165 H   0  0  0  0  0  0  0  0  0  0  0  0
    7.1120   -6.5424    2.7907 H   0  0  0  0  0  0  0  0  0  0  0  0
    6.5298   -6.0109    0.2901 H   0  0  0  0  0  0  0  0  0  0  0  0
    5.1100   -6.7670    0.9589 H   0  0  0  0  0  0  0  0  0  0  0  0
    5.0109   -5.3946   -1.3045 H   0  0  0  0  0  0  0  0  0  0  0  0
    3.6488   -5.3643   -0.2092 H   0  0  0  0  0  0  0  0  0  0  0  0
    5.8881   -3.3371   -0.1346 H   0  0  0  0  0  0  0  0  0  0  0  0
  1  2  1  0
  1 21  1  0
  1 22  1  0
  1 23  1  0
  2 17  1  0
  2  3  1  0
  2 24  1  6
  3  4  1  0
  3 25  1  0
  3 26  1  0
  4  5  1  0
  4 27  1  0
  4 28  1  0
  5 18  1  0
  5  6  1  1
  5  7  1  0
  6 29  1  0
  7  8  1  0
  8 20  1  0
  8  9  1  1
  8 10  1  0
  9 30  1  0
  9 31  1  0
  9 32  1  0
 10 11  1  0
 10 33  1  0
 10 34  1  0
 11 12  1  0
 11 35  1  0
 11 36  1  0
 12 18  1  0
 12 13  1  0
 12 37  1  1
 13 14  1  0
 13 15  1  0
 13 38  1  6
 14 39  1  0
 14 40  1  0
 14 41  1  0
 15 16  1  0
 15 42  1  0
 15 43  1  0
 16 17  1  0
 16 44  1  0
 16 45  1  0
 17 18  1  0
 17 46  1  1
 18 19  1  6
 19 20  1  0
M  END
>  <i_m_ct_stereo_status>  (64) 
1

>  <s_m_source_file>  (64) 
/var/tmp/pbs.5076255.sched01/tmpr7id634h/0ay6m0hv_.sdf

>  <i_m_source_file_index>  (64) 
25

>  <i_lp_mmshare_version>  (64) 
48012

>  <i_f3d_flags>  (64) 
0

>  <s_epik_input>  (64) 
W09IXVtDQF0xKFtDQF0yMzQpW0NIMl1bQ0gyXVtDQEBIXShbQ0gzXSlbQ0BASF0zW0NIMl1bQ0gyXVtDQEhdKFtDSDNdKVtDQEhdMltDSDJdW0NIMl1bQ0BdKE8xKShbQ0gzXSlPTzQ=

>  <s_epik_cmdline>  (64) 
J2VwaWtfcHl0aG9uJywgJy1waHQnLCAnMi4wJywgJy1waCcsICc3LjAnLCAnLXRuJywgJzgnLCAnLW1hJywgJzIwMCcsICctaW1hZScsICc8aW5maWxlLm1hZT4nLCAnLW9tYWUnLCAnPG91dGZpbGUubWFlPic=

>  <r_lp_tautomer_probability>  (64) 
1

>  <r_epik_Ionization_Penalty>  (64) 
5.58898e-06

>  <r_epik_Ionization_Penalty_Charging>  (64) 
0

>  <r_epik_Ionization_Penalty_Neutral>  (64) 
5.58898e-06

>  <r_epik_State_Penalty>  (64) 
-0

>  <r_epik_Charging_Adjusted_Penalty>  (64) 
0

>  <i_epik_Tot_Q>  (64) 
0

>  <i_epik_Tot_abs_Q>  (64) 
0

>  <s_lp_Force_Field>  (64) 
OPLS3e

>  <r_lp_Energy>  (64) 
44.5381

>  <b_lp_Chiralities_Consistent>  (64) 
1

>  <s_lp_Variant>  (64) 
15:0-1

>  <s_i_glide_gridfile>  (64) 
pfpi4k_grid

>  <i_i_glide_lignum>  (64) 
25

>  <i_i_glide_rotatable_bonds>  (64) 
1

>  <r_i_docking_score>  (64) 
-2.93109

>  <r_i_glide_ligand_efficiency>  (64) 
-0.146554

>  <r_i_glide_ligand_efficiency_sa>  (64) 
-0.39781

>  <r_i_glide_ligand_efficiency_ln>  (64) 
-0.733554

>  <r_i_glide_gscore>  (64) 
-2.93109

>  <r_i_glide_lipo>  (64) 
-0.378377

>  <r_i_glide_hbond>  (64) 
0

>  <r_i_glide_metal>  (64) 
-0

>  <r_i_glide_rewards>  (64) 
-1.52541

>  <r_i_glide_evdw>  (64) 
-21.4265

>  <r_i_glide_ecoul>  (64) 
0.308104

>  <r_i_glide_erotb>  (64) 
0

>  <r_i_glide_esite>  (64) 
-0.0021828

>  <r_i_glide_emodel>  (64) 
-24.8024

>  <r_i_glide_energy>  (64) 
-21.1184

>  <r_i_glide_einternal>  (64) 
0.0983189

>  <r_i_glide_intrahb_reward>  (64) 
-0

>  <i_i_glide_confnum>  (64) 
1

>  <i_i_glide_posenum>  (64) 
35

>  <r_i_glide_eff_state_penalty>  (64) 
0

>  <ligand_id>  (64) 
15

>  <original_smiles>  (64) 
CC1CCC2(O)OC3(C)CCC4C(C)CCC1C42OO3

>  <smiles>  (64) 
[H]OC12OC3(C([H])([H])[H])OOC14C([H])(C([H])([H])C3([H])[H])C([H])(C([H])([H])[H])C([H])([H])C([H])([H])C4([H])C([H])(C([H])([H])[H])C([H])([H])C2([H])[H]

$$$$
16:0:0
     RDKit          3D

 31 34  0  0  1  0  0  0  0  0999 V2000
   -0.2552   -6.2592    3.7610 O   0  0  0  0  0  0  0  0  0  0  0  0
    0.1375   -7.2155    4.4336 C   0  0  0  0  0  0  0  0  0  0  0  0
    0.2163   -7.0969    5.9263 C   0  0  0  0  0  0  0  0  0  0  0  0
   -0.1212   -5.9071    6.6058 C   0  0  0  0  0  0  0  0  0  0  0  0
   -0.0432   -5.9005    8.0097 C   0  0  0  0  0  0  0  0  0  0  0  0
    0.3216   -6.9806    8.7343 N   0  0  0  0  0  0  0  0  0  0  0  0
    0.6651   -8.1097    8.0721 C   0  0  0  0  0  0  0  0  0  0  0  0
    0.6216   -8.2264    6.6673 C   0  0  0  0  0  0  0  0  0  0  0  0
    0.9652   -9.4328    6.0374 N   0  0  0  0  0  0  0  0  0  0  0  0
    0.9005   -9.4957    4.7389 C   0  0  0  0  0  0  0  0  0  0  0  0
    0.5177   -8.4164    3.9100 N   0  0  0  0  0  0  0  0  0  0  0  0
    0.4642   -8.6917    2.4557 C   0  0  0  0  0  0  0  0  0  0  0  0
    1.1890   -7.6360    1.6788 C   0  0  0  0  0  0  0  0  0  0  0  0
    2.4965   -7.3930    1.6926 N   0  0  0  0  0  0  0  0  0  0  0  0
    2.5663   -6.2929    0.8925 C   0  0  0  0  0  0  0  0  0  0  0  0
    3.8683   -5.6267    0.5866 C   0  0  0  0  0  0  0  0  0  0  0  0
    4.7177   -5.1153    1.7260 C   0  0  0  0  0  0  0  0  0  0  0  0
    4.0377   -4.1408    0.7967 C   0  0  0  0  0  0  0  0  0  0  0  0
    1.4160   -5.8678    0.3811 N   0  0  0  0  0  0  0  0  0  0  0  0
    0.4814   -6.7760    0.9000 O   0  0  0  0  0  0  0  0  0  0  0  0
   -0.4434   -5.0294    6.0646 H   0  0  0  0  0  0  0  0  0  0  0  0
   -0.2984   -5.0112    8.5677 H   0  0  0  0  0  0  0  0  0  0  0  0
    0.9734   -8.9460    8.6814 H   0  0  0  0  0  0  0  0  0  0  0  0
    1.1419  -10.4173    4.2044 H   0  0  0  0  0  0  0  0  0  0  0  0
    0.9166   -9.6468    2.1827 H   0  0  0  0  0  0  0  0  0  0  0  0
   -0.5745   -8.7397    2.1259 H   0  0  0  0  0  0  0  0  0  0  0  0
    4.3603   -6.1007   -0.2589 H   0  0  0  0  0  0  0  0  0  0  0  0
    4.3118   -5.2324    2.7304 H   0  0  0  0  0  0  0  0  0  0  0  0
    5.7973   -5.2270    1.6431 H   0  0  0  0  0  0  0  0  0  0  0  0
    4.6625   -3.5993    0.0893 H   0  0  0  0  0  0  0  0  0  0  0  0
    3.1719   -3.5926    1.1674 H   0  0  0  0  0  0  0  0  0  0  0  0
  1  2  2  0
  2 11  1  0
  2  3  1  0
  3  8  2  0
  3  4  1  0
  4  5  2  0
  4 21  1  0
  5  6  1  0
  5 22  1  0
  6  7  2  0
  7  8  1  0
  7 23  1  0
  8  9  1  0
  9 10  2  0
 10 11  1  0
 10 24  1  0
 11 12  1  0
 12 13  1  0
 12 25  1  0
 12 26  1  0
 13 20  1  0
 13 14  2  0
 14 15  1  0
 15 16  1  0
 15 19  2  0
 16 18  1  0
 16 17  1  0
 16 27  1  0
 17 18  1  0
 17 28  1  0
 17 29  1  0
 18 30  1  0
 18 31  1  0
 19 20  1  0
M  END
>  <i_m_ct_stereo_status>  (65) 
1

>  <s_m_source_file>  (65) 
/var/tmp/pbs.5076255.sched01/tmpr7id634h/0ay6m0hv_.sdf

>  <i_m_source_file_index>  (65) 
26

>  <i_lp_mmshare_version>  (65) 
48012

>  <i_f3d_flags>  (65) 
0

>  <s_epik_input>  (65) 
W0NIMl0xW0NIMl1bQ0hdMWMobm8yKW5jMltDSDJdbihjMz1PKVtjSF1uYyhjMzQpW2NIXW5bY0hdW2NIXTQ=

>  <s_epik_cmdline>  (65) 
J2VwaWtfcHl0aG9uJywgJy1waHQnLCAnMi4wJywgJy1waCcsICc3LjAnLCAnLXRuJywgJzgnLCAnLW1hJywgJzIwMCcsICctaW1hZScsICc8aW5maWxlLm1hZT4nLCAnLW9tYWUnLCAnPG91dGZpbGUubWFlPic=

>  <r_lp_tautomer_probability>  (65) 
1

>  <r_epik_Ionization_Penalty>  (65) 
8.4241e-06

>  <r_epik_Ionization_Penalty_Charging>  (65) 
7.16036e-11

>  <r_epik_Ionization_Penalty_Neutral>  (65) 
8.42403e-06

>  <r_epik_State_Penalty>  (65) 
-0

>  <r_epik_Charging_Adjusted_Penalty>  (65) 
7.16036e-11

>  <i_epik_Tot_Q>  (65) 
0

>  <i_epik_Tot_abs_Q>  (65) 
0

>  <s_lp_Force_Field>  (65) 
OPLS3e

>  <r_lp_Energy>  (65) 
48.6785

>  <b_lp_Chiralities_Consistent>  (65) 
1

>  <s_lp_Variant>  (65) 
16:0-1

>  <s_i_glide_gridfile>  (65) 
pfpi4k_grid

>  <i_i_glide_lignum>  (65) 
26

>  <i_i_glide_rotatable_bonds>  (65) 
3

>  <r_i_docking_score>  (65) 
-3.46231

>  <r_i_glide_ligand_efficiency>  (65) 
-0.173115

>  <r_i_glide_ligand_efficiency_sa>  (65) 
-0.469907

>  <r_i_glide_ligand_efficiency_ln>  (65) 
-0.866501

>  <r_i_glide_gscore>  (65) 
-3.46231

>  <r_i_glide_lipo>  (65) 
-0.0781976

>  <r_i_glide_hbond>  (65) 
-0.136139

>  <r_i_glide_metal>  (65) 
-0

>  <r_i_glide_rewards>  (65) 
-1.57324

>  <r_i_glide_evdw>  (65) 
-20.901

>  <r_i_glide_ecoul>  (65) 
-7.24475

>  <r_i_glide_erotb>  (65) 
0.739242

>  <r_i_glide_esite>  (65) 
-0.282214

>  <r_i_glide_emodel>  (65) 
-34.0325

>  <r_i_glide_energy>  (65) 
-28.1457

>  <r_i_glide_einternal>  (65) 
1.94924

>  <r_i_glide_intrahb_reward>  (65) 
-0

>  <i_i_glide_confnum>  (65) 
4

>  <i_i_glide_posenum>  (65) 
1

>  <r_i_glide_eff_state_penalty>  (65) 
0

>  <ligand_id>  (65) 
16

>  <original_smiles>  (65) 
O=c1c2ccncc2ncn1Cc1nc(C2CC2)no1

>  <smiles>  (65) 
[H]c1nc([H])c2nc([H])n(C([H])([H])c3nc(C4([H])C([H])([H])C4([H])[H])no3)c(=O)c2c1[H]

$$$$
16:0:1
     RDKit          3D

 31 34  0  0  1  0  0  0  0  0999 V2000
    2.6595   -3.1696    1.7503 O   0  0  0  0  0  0  0  0  0  0  0  0
    3.6819   -3.6497    1.2541 C   0  0  0  0  0  0  0  0  0  0  0  0
    4.3947   -2.9451    0.1442 C   0  0  0  0  0  0  0  0  0  0  0  0
    3.9207   -1.7378   -0.4026 C   0  0  0  0  0  0  0  0  0  0  0  0
    4.6640   -1.1422   -1.4338 C   0  0  0  0  0  0  0  0  0  0  0  0
    5.8125   -1.6694   -1.9148 N   0  0  0  0  0  0  0  0  0  0  0  0
    6.2506   -2.8338   -1.3924 C   0  0  0  0  0  0  0  0  0  0  0  0
    5.5872   -3.5155   -0.3530 C   0  0  0  0  0  0  0  0  0  0  0  0
    6.1017   -4.7169    0.1568 N   0  0  0  0  0  0  0  0  0  0  0  0
    5.4337   -5.3186    1.0972 C   0  0  0  0  0  0  0  0  0  0  0  0
    4.2309   -4.8313    1.6467 N   0  0  0  0  0  0  0  0  0  0  0  0
    3.6312   -5.6281    2.7298 C   0  0  0  0  0  0  0  0  0  0  0  0
    2.3573   -6.2974    2.3092 C   0  0  0  0  0  0  0  0  0  0  0  0
    1.7577   -7.2885    2.9539 N   0  0  0  0  0  0  0  0  0  0  0  0
    0.6557   -7.4736    2.1809 C   0  0  0  0  0  0  0  0  0  0  0  0
   -0.3690   -8.5007    2.5011 C   0  0  0  0  0  0  0  0  0  0  0  0
   -1.8251   -8.1155    2.6341 C   0  0  0  0  0  0  0  0  0  0  0  0
   -1.0226   -8.4740    3.8578 C   0  0  0  0  0  0  0  0  0  0  0  0
    0.5365   -6.6859    1.1197 N   0  0  0  0  0  0  0  0  0  0  0  0
    1.6928   -5.8987    1.1922 O   0  0  0  0  0  0  0  0  0  0  0  0
    3.0069   -1.2787   -0.0483 H   0  0  0  0  0  0  0  0  0  0  0  0
    4.3369   -0.2163   -1.8839 H   0  0  0  0  0  0  0  0  0  0  0  0
    7.1681   -3.2262   -1.8071 H   0  0  0  0  0  0  0  0  0  0  0  0
    5.7818   -6.2570    1.5318 H   0  0  0  0  0  0  0  0  0  0  0  0
    4.2982   -6.4073    3.1034 H   0  0  0  0  0  0  0  0  0  0  0  0
    3.4320   -4.9894    3.5898 H   0  0  0  0  0  0  0  0  0  0  0  0
   -0.1067   -9.4720    2.0821 H   0  0  0  0  0  0  0  0  0  0  0  0
   -2.0831   -7.0679    2.4872 H   0  0  0  0  0  0  0  0  0  0  0  0
   -2.5672   -8.8317    2.2910 H   0  0  0  0  0  0  0  0  0  0  0  0
   -1.1766   -9.4441    4.3142 H   0  0  0  0  0  0  0  0  0  0  0  0
   -0.7277   -7.6748    4.5383 H   0  0  0  0  0  0  0  0  0  0  0  0
  1  2  2  0
  2 11  1  0
  2  3  1  0
  3  8  2  0
  3  4  1  0
  4  5  2  0
  4 21  1  0
  5  6  1  0
  5 22  1  0
  6  7  2  0
  7  8  1  0
  7 23  1  0
  8  9  1  0
  9 10  2  0
 10 11  1  0
 10 24  1  0
 11 12  1  0
 12 13  1  0
 12 25  1  0
 12 26  1  0
 13 20  1  0
 13 14  2  0
 14 15  1  0
 15 16  1  0
 15 19  2  0
 16 18  1  0
 16 17  1  0
 16 27  1  0
 17 18  1  0
 17 28  1  0
 17 29  1  0
 18 30  1  0
 18 31  1  0
 19 20  1  0
M  END
>  <i_m_ct_stereo_status>  (66) 
1

>  <s_m_source_file>  (66) 
/var/tmp/pbs.5076255.sched01/tmpr7id634h/0ay6m0hv_.sdf

>  <i_m_source_file_index>  (66) 
26

>  <i_lp_mmshare_version>  (66) 
48012

>  <i_f3d_flags>  (66) 
0

>  <s_epik_input>  (66) 
W0NIMl0xW0NIMl1bQ0hdMWMobm8yKW5jMltDSDJdbihjMz1PKVtjSF1uYyhjMzQpW2NIXW5bY0hdW2NIXTQ=

>  <s_epik_cmdline>  (66) 
J2VwaWtfcHl0aG9uJywgJy1waHQnLCAnMi4wJywgJy1waCcsICc3LjAnLCAnLXRuJywgJzgnLCAnLW1hJywgJzIwMCcsICctaW1hZScsICc8aW5maWxlLm1hZT4nLCAnLW9tYWUnLCAnPG91dGZpbGUubWFlPic=

>  <r_lp_tautomer_probability>  (66) 
1

>  <r_epik_Ionization_Penalty>  (66) 
8.4241e-06

>  <r_epik_Ionization_Penalty_Charging>  (66) 
7.16036e-11

>  <r_epik_Ionization_Penalty_Neutral>  (66) 
8.42403e-06

>  <r_epik_State_Penalty>  (66) 
-0

>  <r_epik_Charging_Adjusted_Penalty>  (66) 
7.16036e-11

>  <i_epik_Tot_Q>  (66) 
0

>  <i_epik_Tot_abs_Q>  (66) 
0

>  <s_lp_Force_Field>  (66) 
OPLS3e

>  <r_lp_Energy>  (66) 
48.6785

>  <b_lp_Chiralities_Consistent>  (66) 
1

>  <s_lp_Variant>  (66) 
16:0-1

>  <s_i_glide_gridfile>  (66) 
pfpi4k_grid

>  <i_i_glide_lignum>  (66) 
26

>  <i_i_glide_rotatable_bonds>  (66) 
3

>  <r_i_docking_score>  (66) 
-3.1203

>  <r_i_glide_ligand_efficiency>  (66) 
-0.156015

>  <r_i_glide_ligand_efficiency_sa>  (66) 
-0.42349

>  <r_i_glide_ligand_efficiency_ln>  (66) 
-0.780908

>  <r_i_glide_gscore>  (66) 
-3.1203

>  <r_i_glide_lipo>  (66) 
-0.0751771

>  <r_i_glide_hbond>  (66) 
-0.0558996

>  <r_i_glide_metal>  (66) 
-0

>  <r_i_glide_rewards>  (66) 
-1.69534

>  <r_i_glide_evdw>  (66) 
-23.3369

>  <r_i_glide_ecoul>  (66) 
-4.3168

>  <r_i_glide_erotb>  (66) 
0.739242

>  <r_i_glide_esite>  (66) 
-0.218765

>  <r_i_glide_emodel>  (66) 
-33.5379

>  <r_i_glide_energy>  (66) 
-27.6537

>  <r_i_glide_einternal>  (66) 
0.552678

>  <r_i_glide_intrahb_reward>  (66) 
-0

>  <i_i_glide_confnum>  (66) 
1

>  <i_i_glide_posenum>  (66) 
2

>  <r_i_glide_eff_state_penalty>  (66) 
0

>  <ligand_id>  (66) 
16

>  <original_smiles>  (66) 
O=c1c2ccncc2ncn1Cc1nc(C2CC2)no1

>  <smiles>  (66) 
[H]c1nc([H])c2nc([H])n(C([H])([H])c3nc(C4([H])C([H])([H])C4([H])[H])no3)c(=O)c2c1[H]

$$$$
16:0:2
     RDKit          3D

 31 34  0  0  1  0  0  0  0  0999 V2000
    4.5763   -5.9482   -0.0013 O   0  0  0  0  0  0  0  0  0  0  0  0
    4.3701   -4.8165    0.4395 C   0  0  0  0  0  0  0  0  0  0  0  0
    4.5498   -3.6033   -0.4233 C   0  0  0  0  0  0  0  0  0  0  0  0
    4.9191   -3.6909   -1.7794 C   0  0  0  0  0  0  0  0  0  0  0  0
    5.0699   -2.4956   -2.5022 C   0  0  0  0  0  0  0  0  0  0  0  0
    4.9004   -1.2709   -1.9595 N   0  0  0  0  0  0  0  0  0  0  0  0
    4.5278   -1.1994   -0.6633 C   0  0  0  0  0  0  0  0  0  0  0  0
    4.3480   -2.3324    0.1590 C   0  0  0  0  0  0  0  0  0  0  0  0
    3.9789   -2.1865    1.5058 N   0  0  0  0  0  0  0  0  0  0  0  0
    3.8147   -3.2654    2.2154 C   0  0  0  0  0  0  0  0  0  0  0  0
    3.9878   -4.5719    1.7187 N   0  0  0  0  0  0  0  0  0  0  0  0
    3.8031   -5.6810    2.6689 C   0  0  0  0  0  0  0  0  0  0  0  0
    2.4903   -6.3762    2.4691 C   0  0  0  0  0  0  0  0  0  0  0  0
    2.1599   -7.5569    2.9746 N   0  0  0  0  0  0  0  0  0  0  0  0
    0.8873   -7.6950    2.5190 C   0  0  0  0  0  0  0  0  0  0  0  0
    0.0543   -8.8878    2.8562 C   0  0  0  0  0  0  0  0  0  0  0  0
   -1.3099   -8.7189    3.4877 C   0  0  0  0  0  0  0  0  0  0  0  0
   -0.1619   -9.2443    4.3100 C   0  0  0  0  0  0  0  0  0  0  0  0
    0.4258   -6.7068    1.7586 N   0  0  0  0  0  0  0  0  0  0  0  0
    1.4994   -5.8027    1.7376 O   0  0  0  0  0  0  0  0  0  0  0  0
    5.0672   -4.6490   -2.2591 H   0  0  0  0  0  0  0  0  0  0  0  0
    5.3471   -2.5174   -3.5449 H   0  0  0  0  0  0  0  0  0  0  0  0
    4.3817   -0.2068   -0.2640 H   0  0  0  0  0  0  0  0  0  0  0  0
    3.5340   -3.2222    3.2678 H   0  0  0  0  0  0  0  0  0  0  0  0
    4.5919   -6.4215    2.5361 H   0  0  0  0  0  0  0  0  0  0  0  0
    3.8784   -5.3627    3.7096 H   0  0  0  0  0  0  0  0  0  0  0  0
    0.2137   -9.6979    2.1456 H   0  0  0  0  0  0  0  0  0  0  0  0
   -1.6507   -7.7036    3.6812 H   0  0  0  0  0  0  0  0  0  0  0  0
   -2.0872   -9.4279    3.2126 H   0  0  0  0  0  0  0  0  0  0  0  0
   -0.1725  -10.2989    4.5744 H   0  0  0  0  0  0  0  0  0  0  0  0
    0.2777   -8.5849    5.0575 H   0  0  0  0  0  0  0  0  0  0  0  0
  1  2  2  0
  2 11  1  0
  2  3  1  0
  3  8  2  0
  3  4  1  0
  4  5  2  0
  4 21  1  0
  5  6  1  0
  5 22  1  0
  6  7  2  0
  7  8  1  0
  7 23  1  0
  8  9  1  0
  9 10  2  0
 10 11  1  0
 10 24  1  0
 11 12  1  0
 12 13  1  0
 12 25  1  0
 12 26  1  0
 13 20  1  0
 13 14  2  0
 14 15  1  0
 15 16  1  0
 15 19  2  0
 16 18  1  0
 16 17  1  0
 16 27  1  0
 17 18  1  0
 17 28  1  0
 17 29  1  0
 18 30  1  0
 18 31  1  0
 19 20  1  0
M  END
>  <i_m_ct_stereo_status>  (67) 
1

>  <s_m_source_file>  (67) 
/var/tmp/pbs.5076255.sched01/tmpr7id634h/0ay6m0hv_.sdf

>  <i_m_source_file_index>  (67) 
26

>  <i_lp_mmshare_version>  (67) 
48012

>  <i_f3d_flags>  (67) 
0

>  <s_epik_input>  (67) 
W0NIMl0xW0NIMl1bQ0hdMWMobm8yKW5jMltDSDJdbihjMz1PKVtjSF1uYyhjMzQpW2NIXW5bY0hdW2NIXTQ=

>  <s_epik_cmdline>  (67) 
J2VwaWtfcHl0aG9uJywgJy1waHQnLCAnMi4wJywgJy1waCcsICc3LjAnLCAnLXRuJywgJzgnLCAnLW1hJywgJzIwMCcsICctaW1hZScsICc8aW5maWxlLm1hZT4nLCAnLW9tYWUnLCAnPG91dGZpbGUubWFlPic=

>  <r_lp_tautomer_probability>  (67) 
1

>  <r_epik_Ionization_Penalty>  (67) 
8.4241e-06

>  <r_epik_Ionization_Penalty_Charging>  (67) 
7.16036e-11

>  <r_epik_Ionization_Penalty_Neutral>  (67) 
8.42403e-06

>  <r_epik_State_Penalty>  (67) 
-0

>  <r_epik_Charging_Adjusted_Penalty>  (67) 
7.16036e-11

>  <i_epik_Tot_Q>  (67) 
0

>  <i_epik_Tot_abs_Q>  (67) 
0

>  <s_lp_Force_Field>  (67) 
OPLS3e

>  <r_lp_Energy>  (67) 
48.6785

>  <b_lp_Chiralities_Consistent>  (67) 
1

>  <s_lp_Variant>  (67) 
16:0-1

>  <s_i_glide_gridfile>  (67) 
pfpi4k_grid

>  <i_i_glide_lignum>  (67) 
26

>  <i_i_glide_rotatable_bonds>  (67) 
3

>  <r_i_docking_score>  (67) 
-2.96836

>  <r_i_glide_ligand_efficiency>  (67) 
-0.148418

>  <r_i_glide_ligand_efficiency_sa>  (67) 
-0.402868

>  <r_i_glide_ligand_efficiency_ln>  (67) 
-0.742882

>  <r_i_glide_gscore>  (67) 
-2.96836

>  <r_i_glide_lipo>  (67) 
-0.2306

>  <r_i_glide_hbond>  (67) 
0

>  <r_i_glide_metal>  (67) 
-0

>  <r_i_glide_rewards>  (67) 
-1.59112

>  <r_i_glide_evdw>  (67) 
-24.7256

>  <r_i_glide_ecoul>  (67) 
-2.97456

>  <r_i_glide_erotb>  (67) 
0.739242

>  <r_i_glide_esite>  (67) 
-0.20341

>  <r_i_glide_emodel>  (67) 
-33.2361

>  <r_i_glide_energy>  (67) 
-27.7002

>  <r_i_glide_einternal>  (67) 
0.858382

>  <r_i_glide_intrahb_reward>  (67) 
-0

>  <i_i_glide_confnum>  (67) 
2

>  <i_i_glide_posenum>  (67) 
23

>  <r_i_glide_eff_state_penalty>  (67) 
0

>  <ligand_id>  (67) 
16

>  <original_smiles>  (67) 
O=c1c2ccncc2ncn1Cc1nc(C2CC2)no1

>  <smiles>  (67) 
[H]c1nc([H])c2nc([H])n(C([H])([H])c3nc(C4([H])C([H])([H])C4([H])[H])no3)c(=O)c2c1[H]

$$$$
17:0:0
     RDKit          3D

 20 21  0  0  1  0  0  0  0  0999 V2000
    5.4583   -4.6593   -0.2840 C   0  0  0  0  0  0  0  0  0  0  0  0
    5.1659   -3.5960   -1.0436 C   0  0  0  0  0  0  0  0  0  0  0  0
    4.1377   -3.6598   -1.9809 N   0  0  0  0  0  0  0  0  0  0  0  0
    3.7618   -2.5937   -2.7952 C   0  0  0  0  0  0  0  0  0  0  0  0
    2.9825   -2.4687   -3.9025 C   0  0  0  0  0  0  0  0  0  0  0  0
    3.0501   -1.0496   -4.1742 C   0  0  0  0  0  0  0  0  0  0  0  0
    3.8920   -0.4239   -3.3604 N   0  0  0  0  0  0  0  0  0  0  0  0
    4.2970   -1.3797   -2.5157 N   0  0  0  0  0  0  0  0  0  0  0  0
    5.1541   -1.0991   -1.4303 N   0  0  0  0  0  0  0  0  0  0  0  0
    5.9349   -2.2519   -0.9916 C   0  0  1  0  0  0  0  0  0  0  0  0
    6.4854   -1.9756    0.3853 N   0  0  0  0  0  0  0  0  0  0  0  0
    7.6575   -1.6124    0.4678 O   0  0  0  0  0  0  0  0  0  0  0  0
    5.7384   -2.0731    1.3583 O   0  0  0  0  0  0  0  0  0  0  0  0
    6.2634   -4.6332    0.4442 H   0  0  0  0  0  0  0  0  0  0  0  0
    4.9051   -5.5785   -0.3769 H   0  0  0  0  0  0  0  0  0  0  0  0
    2.4464   -3.2580   -4.4042 H   0  0  0  0  0  0  0  0  0  0  0  0
    2.5594   -0.4606   -4.9244 H   0  0  0  0  0  0  0  0  0  0  0  0
    5.7181   -0.2976   -1.6653 H   0  0  0  0  0  0  0  0  0  0  0  0
    6.8385   -2.3698   -1.6219 H   0  0  0  0  0  0  0  0  0  0  0  0
    3.7082   -4.5727   -2.1811 H   0  0  0  0  0  0  0  0  0  0  0  0
  1  2  2  0
  1 14  1  0
  1 15  1  0
  2 10  1  0
  2  3  1  0
  3  4  1  0
  3 20  1  0
  4  8  1  0
  4  5  2  0
  5  6  1  0
  5 16  1  0
  6  7  2  0
  6 17  1  0
  7  8  1  0
  8  9  1  0
  9 10  1  0
  9 18  1  0
 10 11  1  0
 10 19  1  6
 11 12  2  0
 11 13  1  0
M  CHG  2  11   1  13  -1
M  END
>  <i_m_ct_stereo_status>  (68) 
1

>  <s_m_source_file>  (68) 
/var/tmp/pbs.5076255.sched01/tmpr7id634h/0ay6m0hv_.sdf

>  <i_m_source_file_index>  (68) 
27

>  <i_lp_mmshare_version>  (68) 
48012

>  <i_f3d_flags>  (68) 
0

>  <s_epik_input>  (68) 
W0NIM11DKD1OMSlbQ0BIXShbTitdKD1PKVtPLV0pW05IXW4oYzEyKW5bY0hdW2NIXTI=

>  <s_epik_cmdline>  (68) 
J2VwaWtfcHl0aG9uJywgJy1waHQnLCAnMi4wJywgJy1waCcsICc3LjAnLCAnLXRuJywgJzgnLCAnLW1hJywgJzIwMCcsICctaW1hZScsICc8aW5maWxlLm1hZT4nLCAnLW9tYWUnLCAnPG91dGZpbGUubWFlPic=

>  <r_epik_Ionization_Penalty>  (68) 
0.380798

>  <r_epik_Ionization_Penalty_Charging>  (68) 
3.59998e-06

>  <r_epik_Ionization_Penalty_Neutral>  (68) 
0.380795

>  <r_epik_State_Penalty>  (68) 
0.378768

>  <r_epik_Charging_Adjusted_Penalty>  (68) 
0.378772

>  <i_epik_Tot_Q>  (68) 
0

>  <i_epik_Tot_abs_Q>  (68) 
2

>  <s_epik_Chemistry_Notes>  (68) 
This compound has an imine and may undergo hydrolysis. This compound contains an acetal/aminal-like group ( X-CH(R)-Y where X, Y are N, S, or O) that may be acid/base labile, releasing an aldehyde.

>  <s_lp_Force_Field>  (68) 
OPLS3e

>  <r_lp_Energy>  (68) 
8.99297

>  <b_lp_Chiralities_Consistent>  (68) 
1

>  <s_lp_Variant>  (68) 
17:0-1

>  <s_i_glide_gridfile>  (68) 
pfpi4k_grid

>  <i_i_glide_lignum>  (68) 
27

>  <i_i_glide_rotatable_bonds>  (68) 
1

>  <r_i_docking_score>  (68) 
-4.70375

>  <r_i_glide_ligand_efficiency>  (68) 
-0.361827

>  <r_i_glide_ligand_efficiency_sa>  (68) 
-0.850776

>  <r_i_glide_ligand_efficiency_ln>  (68) 
-1.31944

>  <r_i_glide_gscore>  (68) 
-4.70375

>  <r_i_glide_lipo>  (68) 
-0.339214

>  <r_i_glide_hbond>  (68) 
-0.366279

>  <r_i_glide_metal>  (68) 
-0

>  <r_i_glide_rewards>  (68) 
-2.25

>  <r_i_glide_evdw>  (68) 
-21.8509

>  <r_i_glide_ecoul>  (68) 
-3.13844

>  <r_i_glide_erotb>  (68) 
0

>  <r_i_glide_esite>  (68) 
-0.184951

>  <r_i_glide_emodel>  (68) 
-31.2762

>  <r_i_glide_energy>  (68) 
-24.9894

>  <r_i_glide_einternal>  (68) 
0.0399628

>  <r_i_glide_intrahb_reward>  (68) 
-0

>  <i_i_glide_confnum>  (68) 
1

>  <i_i_glide_posenum>  (68) 
8

>  <r_i_glide_eff_state_penalty>  (68) 
0

>  <ligand_id>  (68) 
17

>  <original_smiles>  (68) 
CC1=Nc2ccnn2NC1[N+](=O)[O-]

>  <smiles>  (68) 
[H]C([H])=C1N([H])c2c([H])c([H])nn2N([H])C1([H])[N+](=O)[O-]

$$$$
17:0:1
     RDKit          3D

 20 21  0  0  1  0  0  0  0  0999 V2000
    5.0586   -4.6503    0.1837 C   0  0  0  0  0  0  0  0  0  0  0  0
    4.8761   -3.5958   -0.6283 C   0  0  0  0  0  0  0  0  0  0  0  0
    4.1531   -3.7458   -1.8071 N   0  0  0  0  0  0  0  0  0  0  0  0
    3.8991   -2.6883   -2.6699 C   0  0  0  0  0  0  0  0  0  0  0  0
    3.4053   -2.5872   -3.9308 C   0  0  0  0  0  0  0  0  0  0  0  0
    3.4038   -1.1756   -4.1745 C   0  0  0  0  0  0  0  0  0  0  0  0
    3.9184   -0.4831   -3.1689 N   0  0  0  0  0  0  0  0  0  0  0  0
    4.1959   -1.4213   -2.2458 N   0  0  0  0  0  0  0  0  0  0  0  0
    4.7096   -1.0862   -0.9851 N   0  0  0  0  0  0  0  0  0  0  0  0
    5.4532   -2.1822   -0.3590 C   0  0  1  0  0  0  0  0  0  0  0  0
    5.5642   -1.9018    1.1125 N   0  0  0  0  0  0  0  0  0  0  0  0
    6.6164   -1.4210    1.5034 O   0  0  0  0  0  0  0  0  0  0  0  0
    4.6024   -2.1532    1.8400 O   0  0  0  0  0  0  0  0  0  0  0  0
    5.6274   -4.5701    1.1098 H   0  0  0  0  0  0  0  0  0  0  0  0
    4.6457   -5.6195   -0.0482 H   0  0  0  0  0  0  0  0  0  0  0  0
    3.0953   -3.3976   -4.5714 H   0  0  0  0  0  0  0  0  0  0  0  0
    3.0677   -0.6297   -5.0463 H   0  0  0  0  0  0  0  0  0  0  0  0
    5.2576   -0.2419   -1.0670 H   0  0  0  0  0  0  0  0  0  0  0  0
    6.4839   -2.1764   -0.7254 H   0  0  0  0  0  0  0  0  0  0  0  0
    3.7824   -4.6643   -2.0558 H   0  0  0  0  0  0  0  0  0  0  0  0
  1  2  2  0
  1 14  1  0
  1 15  1  0
  2 10  1  0
  2  3  1  0
  3  4  1  0
  3 20  1  0
  4  8  1  0
  4  5  2  0
  5  6  1  0
  5 16  1  0
  6  7  2  0
  6 17  1  0
  7  8  1  0
  8  9  1  0
  9 10  1  0
  9 18  1  0
 10 11  1  0
 10 19  1  6
 11 12  2  0
 11 13  1  0
M  CHG  2  11   1  13  -1
M  END
>  <i_m_ct_stereo_status>  (69) 
1

>  <s_m_source_file>  (69) 
/var/tmp/pbs.5076255.sched01/tmpr7id634h/0ay6m0hv_.sdf

>  <i_m_source_file_index>  (69) 
27

>  <i_lp_mmshare_version>  (69) 
48012

>  <i_f3d_flags>  (69) 
0

>  <s_epik_input>  (69) 
W0NIM11DKD1OMSlbQ0BIXShbTitdKD1PKVtPLV0pW05IXW4oYzEyKW5bY0hdW2NIXTI=

>  <s_epik_cmdline>  (69) 
J2VwaWtfcHl0aG9uJywgJy1waHQnLCAnMi4wJywgJy1waCcsICc3LjAnLCAnLXRuJywgJzgnLCAnLW1hJywgJzIwMCcsICctaW1hZScsICc8aW5maWxlLm1hZT4nLCAnLW9tYWUnLCAnPG91dGZpbGUubWFlPic=

>  <r_epik_Ionization_Penalty>  (69) 
0.380798

>  <r_epik_Ionization_Penalty_Charging>  (69) 
3.59998e-06

>  <r_epik_Ionization_Penalty_Neutral>  (69) 
0.380795

>  <r_epik_State_Penalty>  (69) 
0.378768

>  <r_epik_Charging_Adjusted_Penalty>  (69) 
0.378772

>  <i_epik_Tot_Q>  (69) 
0

>  <i_epik_Tot_abs_Q>  (69) 
2

>  <s_epik_Chemistry_Notes>  (69) 
This compound has an imine and may undergo hydrolysis. This compound contains an acetal/aminal-like group ( X-CH(R)-Y where X, Y are N, S, or O) that may be acid/base labile, releasing an aldehyde.

>  <s_lp_Force_Field>  (69) 
OPLS3e

>  <r_lp_Energy>  (69) 
8.99297

>  <b_lp_Chiralities_Consistent>  (69) 
1

>  <s_lp_Variant>  (69) 
17:0-1

>  <s_i_glide_gridfile>  (69) 
pfpi4k_grid

>  <i_i_glide_lignum>  (69) 
27

>  <i_i_glide_rotatable_bonds>  (69) 
1

>  <r_i_docking_score>  (69) 
-4.57746

>  <r_i_glide_ligand_efficiency>  (69) 
-0.352112

>  <r_i_glide_ligand_efficiency_sa>  (69) 
-0.827934

>  <r_i_glide_ligand_efficiency_ln>  (69) 
-1.28402

>  <r_i_glide_gscore>  (69) 
-4.57746

>  <r_i_glide_lipo>  (69) 
-0.23179

>  <r_i_glide_hbond>  (69) 
-0.472116

>  <r_i_glide_metal>  (69) 
-0

>  <r_i_glide_rewards>  (69) 
-2.30539

>  <r_i_glide_evdw>  (69) 
-20.8357

>  <r_i_glide_ecoul>  (69) 
-2.61733

>  <r_i_glide_erotb>  (69) 
0

>  <r_i_glide_esite>  (69) 
-0.133782

>  <r_i_glide_emodel>  (69) 
-29.5609

>  <r_i_glide_energy>  (69) 
-23.453

>  <r_i_glide_einternal>  (69) 
0.0601524

>  <r_i_glide_intrahb_reward>  (69) 
-0

>  <i_i_glide_confnum>  (69) 
2

>  <i_i_glide_posenum>  (69) 
32

>  <r_i_glide_eff_state_penalty>  (69) 
0

>  <ligand_id>  (69) 
17

>  <original_smiles>  (69) 
CC1=Nc2ccnn2NC1[N+](=O)[O-]

>  <smiles>  (69) 
[H]C([H])=C1N([H])c2c([H])c([H])nn2N([H])C1([H])[N+](=O)[O-]

$$$$
17:0:2
     RDKit          3D

 20 21  0  0  1  0  0  0  0  0999 V2000
    3.6389   -4.3051    0.5573 C   0  0  0  0  0  0  0  0  0  0  0  0
    3.8860   -3.3478   -0.3508 C   0  0  0  0  0  0  0  0  0  0  0  0
    3.2710   -3.4025   -1.5996 N   0  0  0  0  0  0  0  0  0  0  0  0
    3.4742   -2.4391   -2.5782 C   0  0  0  0  0  0  0  0  0  0  0  0
    3.1954   -2.3430   -3.9088 C   0  0  0  0  0  0  0  0  0  0  0  0
    3.6473   -1.0300   -4.2508 C   0  0  0  0  0  0  0  0  0  0  0  0
    4.2094   -0.3991   -3.2265 N   0  0  0  0  0  0  0  0  0  0  0  0
    4.1099   -1.2821   -2.2145 N   0  0  0  0  0  0  0  0  0  0  0  0
    4.5736   -0.9851   -0.9169 N   0  0  0  0  0  0  0  0  0  0  0  0
    4.8572   -2.1633   -0.1109 C   0  0  1  0  0  0  0  0  0  0  0  0
    4.8884   -1.7585    1.3376 N   0  0  0  0  0  0  0  0  0  0  0  0
    5.9862   -1.5990    1.8529 O   0  0  0  0  0  0  0  0  0  0  0  0
    3.8258   -1.5905    1.9275 O   0  0  0  0  0  0  0  0  0  0  0  0
    4.1045   -4.2896    1.5437 H   0  0  0  0  0  0  0  0  0  0  0  0
    2.9731   -5.1244    0.3488 H   0  0  0  0  0  0  0  0  0  0  0  0
    2.7301   -3.0929   -4.5313 H   0  0  0  0  0  0  0  0  0  0  0  0
    3.6033   -0.5011   -5.1933 H   0  0  0  0  0  0  0  0  0  0  0  0
    5.3619   -0.3582   -0.9850 H   0  0  0  0  0  0  0  0  0  0  0  0
    5.8712   -2.5086   -0.3289 H   0  0  0  0  0  0  0  0  0  0  0  0
    2.7070   -4.2156   -1.8430 H   0  0  0  0  0  0  0  0  0  0  0  0
  1  2  2  0
  1 14  1  0
  1 15  1  0
  2 10  1  0
  2  3  1  0
  3  4  1  0
  3 20  1  0
  4  8  1  0
  4  5  2  0
  5  6  1  0
  5 16  1  0
  6  7  2  0
  6 17  1  0
  7  8  1  0
  8  9  1  0
  9 10  1  0
  9 18  1  0
 10 11  1  0
 10 19  1  6
 11 12  2  0
 11 13  1  0
M  CHG  2  11   1  13  -1
M  END
>  <i_m_ct_stereo_status>  (70) 
1

>  <s_m_source_file>  (70) 
/var/tmp/pbs.5076255.sched01/tmpr7id634h/0ay6m0hv_.sdf

>  <i_m_source_file_index>  (70) 
27

>  <i_lp_mmshare_version>  (70) 
48012

>  <i_f3d_flags>  (70) 
0

>  <s_epik_input>  (70) 
W0NIM11DKD1OMSlbQ0BIXShbTitdKD1PKVtPLV0pW05IXW4oYzEyKW5bY0hdW2NIXTI=

>  <s_epik_cmdline>  (70) 
J2VwaWtfcHl0aG9uJywgJy1waHQnLCAnMi4wJywgJy1waCcsICc3LjAnLCAnLXRuJywgJzgnLCAnLW1hJywgJzIwMCcsICctaW1hZScsICc8aW5maWxlLm1hZT4nLCAnLW9tYWUnLCAnPG91dGZpbGUubWFlPic=

>  <r_epik_Ionization_Penalty>  (70) 
0.380798

>  <r_epik_Ionization_Penalty_Charging>  (70) 
3.59998e-06

>  <r_epik_Ionization_Penalty_Neutral>  (70) 
0.380795

>  <r_epik_State_Penalty>  (70) 
0.378768

>  <r_epik_Charging_Adjusted_Penalty>  (70) 
0.378772

>  <i_epik_Tot_Q>  (70) 
0

>  <i_epik_Tot_abs_Q>  (70) 
2

>  <s_epik_Chemistry_Notes>  (70) 
This compound has an imine and may undergo hydrolysis. This compound contains an acetal/aminal-like group ( X-CH(R)-Y where X, Y are N, S, or O) that may be acid/base labile, releasing an aldehyde.

>  <s_lp_Force_Field>  (70) 
OPLS3e

>  <r_lp_Energy>  (70) 
8.99297

>  <b_lp_Chiralities_Consistent>  (70) 
1

>  <s_lp_Variant>  (70) 
17:0-1

>  <s_i_glide_gridfile>  (70) 
pfpi4k_grid

>  <i_i_glide_lignum>  (70) 
27

>  <i_i_glide_rotatable_bonds>  (70) 
1

>  <r_i_docking_score>  (70) 
-4.10509

>  <r_i_glide_ligand_efficiency>  (70) 
-0.315776

>  <r_i_glide_ligand_efficiency_sa>  (70) 
-0.742495

>  <r_i_glide_ligand_efficiency_ln>  (70) 
-1.15151

>  <r_i_glide_gscore>  (70) 
-4.10509

>  <r_i_glide_lipo>  (70) 
-0.20844

>  <r_i_glide_hbond>  (70) 
-0.283505

>  <r_i_glide_metal>  (70) 
-0

>  <r_i_glide_rewards>  (70) 
-2.24079

>  <r_i_glide_evdw>  (70) 
-21.1483

>  <r_i_glide_ecoul>  (70) 
-1.48021

>  <r_i_glide_erotb>  (70) 
0

>  <r_i_glide_esite>  (70) 
-0.0929031

>  <r_i_glide_emodel>  (70) 
-28.1061

>  <r_i_glide_energy>  (70) 
-22.6285

>  <r_i_glide_einternal>  (70) 
0.0283328

>  <r_i_glide_intrahb_reward>  (70) 
-0

>  <i_i_glide_confnum>  (70) 
2

>  <i_i_glide_posenum>  (70) 
28

>  <r_i_glide_eff_state_penalty>  (70) 
0

>  <ligand_id>  (70) 
17

>  <original_smiles>  (70) 
CC1=Nc2ccnn2NC1[N+](=O)[O-]

>  <smiles>  (70) 
[H]C([H])=C1N([H])c2c([H])c([H])nn2N([H])C1([H])[N+](=O)[O-]

$$$$
17:1:0
     RDKit          3D

 19 20  0  0  1  0  0  0  0  0999 V2000
    4.9783   -4.4358    0.0743 C   0  0  0  0  0  0  0  0  0  0  0  0
    4.5835   -3.3273   -0.5760 C   0  0  0  0  0  0  0  0  0  0  0  0
    3.6973   -3.4615   -1.6395 N   0  0  0  0  0  0  0  0  0  0  0  0
    3.5200   -2.4425   -2.5661 C   0  0  0  0  0  0  0  0  0  0  0  0
    2.7482   -2.2716   -3.6784 C   0  0  0  0  0  0  0  0  0  0  0  0
    3.1623   -0.9923   -4.1637 C   0  0  0  0  0  0  0  0  0  0  0  0
    4.0926   -0.4194   -3.4104 N   0  0  0  0  0  0  0  0  0  0  0  0
    4.2779   -1.3049   -2.4159 N   0  0  0  0  0  0  0  0  0  0  0  0
    5.1793   -1.0536   -1.3576 N   0  0  0  0  0  0  0  0  0  0  0  0
    5.1487   -1.9899   -0.3174 C   0  0  0  0  0  0  0  0  0  0  0  0
    5.3652   -1.4869    1.0284 N   0  0  0  0  0  0  0  0  0  0  0  0
    5.4194   -0.2713    1.1808 O   0  0  0  0  0  0  0  0  0  0  0  0
    5.4987   -2.2625    1.9672 O   0  0  0  0  0  0  0  0  0  0  0  0
    5.7339   -4.4152    0.8487 H   0  0  0  0  0  0  0  0  0  0  0  0
    4.5630   -5.4039   -0.1703 H   0  0  0  0  0  0  0  0  0  0  0  0
    2.0063   -2.9526   -4.0712 H   0  0  0  0  0  0  0  0  0  0  0  0
    2.8178   -0.4542   -5.0358 H   0  0  0  0  0  0  0  0  0  0  0  0
    5.0796   -0.1024   -1.0167 H   0  0  0  0  0  0  0  0  0  0  0  0
    3.3502   -4.3916   -1.8496 H   0  0  0  0  0  0  0  0  0  0  0  0
  1  2  2  0
  1 14  1  0
  1 15  1  0
  2 10  1  0
  2  3  1  0
  3  4  1  0
  3 19  1  0
  4  8  1  0
  4  5  2  0
  5  6  1  0
  5 16  1  0
  6  7  2  0
  6 17  1  0
  7  8  1  0
  8  9  1  0
  9 10  1  0
  9 18  1  0
 10 11  1  0
 11 12  2  0
 11 13  1  0
M  CHG  3  10  -1  11   1  13  -1
M  END
>  <i_m_ct_stereo_status>  (71) 
1

>  <s_m_source_file>  (71) 
/var/tmp/pbs.5076255.sched01/tmpr7id634h/0ay6m0hv_.sdf

>  <i_m_source_file_index>  (71) 
28

>  <i_lp_mmshare_version>  (71) 
48012

>  <i_f3d_flags>  (71) 
0

>  <s_epik_input>  (71) 
W0NIM11DKD1OMSlbQ0BIXShbTitdKD1PKVtPLV0pW05IXW4oYzEyKW5bY0hdW2NIXTI=

>  <s_epik_cmdline>  (71) 
J2VwaWtfcHl0aG9uJywgJy1waHQnLCAnMi4wJywgJy1waCcsICc3LjAnLCAnLXRuJywgJzgnLCAnLW1hJywgJzIwMCcsICctaW1hZScsICc8aW5maWxlLm1hZT4nLCAnLW9tYWUnLCAnPG91dGZpbGUubWFlPic=

>  <r_epik_Ionization_Penalty>  (71) 
0.442305

>  <r_epik_Ionization_Penalty_Charging>  (71) 
0.442235

>  <r_epik_Ionization_Penalty_Neutral>  (71) 
6.98344e-05

>  <r_epik_State_Penalty>  (71) 
0.444409

>  <r_epik_Charging_Adjusted_Penalty>  (71) 
0.886643

>  <i_epik_Tot_Q>  (71) 
-1

>  <i_epik_Tot_abs_Q>  (71) 
3

>  <s_epik_Chemistry_Notes>  (71) 
This compound has an imine and may undergo hydrolysis.

>  <s_lp_Force_Field>  (71) 
OPLS3e

>  <r_lp_Energy>  (71) 
14.7474

>  <b_lp_Chiralities_Consistent>  (71) 
1

>  <s_lp_Variant>  (71) 
17:0-2

>  <s_i_glide_gridfile>  (71) 
pfpi4k_grid

>  <i_i_glide_lignum>  (71) 
28

>  <i_i_glide_rotatable_bonds>  (71) 
1

>  <r_i_docking_score>  (71) 
-4.0847

>  <r_i_glide_ligand_efficiency>  (71) 
-0.314207

>  <r_i_glide_ligand_efficiency_sa>  (71) 
-0.738807

>  <r_i_glide_ligand_efficiency_ln>  (71) 
-1.14579

>  <r_i_glide_gscore>  (71) 
-4.0847

>  <r_i_glide_lipo>  (71) 
-0.458653

>  <r_i_glide_hbond>  (71) 
-0.32

>  <r_i_glide_metal>  (71) 
-0

>  <r_i_glide_rewards>  (71) 
-2.31489

>  <r_i_glide_evdw>  (71) 
-19.5004

>  <r_i_glide_ecoul>  (71) 
0.597386

>  <r_i_glide_erotb>  (71) 
0

>  <r_i_glide_esite>  (71) 
-0.105742

>  <r_i_glide_emodel>  (71) 
-25.749

>  <r_i_glide_energy>  (71) 
-18.903

>  <r_i_glide_einternal>  (71) 
0.412869

>  <r_i_glide_intrahb_reward>  (71) 
-0

>  <i_i_glide_confnum>  (71) 
2

>  <i_i_glide_posenum>  (71) 
9

>  <r_i_glide_eff_state_penalty>  (71) 
0

>  <ligand_id>  (71) 
17

>  <original_smiles>  (71) 
CC1=Nc2ccnn2NC1[N+](=O)[O-]

>  <smiles>  (71) 
[H]C([H])=c1[c-]([N+](=O)[O-])n([H])n2nc([H])c([H])c2n1[H]

$$$$
17:1:1
     RDKit          3D

 19 20  0  0  1  0  0  0  0  0999 V2000
   -0.5834    0.1544    7.3891 C   0  0  0  0  0  0  0  0  0  0  0  0
   -1.1640    1.1294    6.6698 C   0  0  0  0  0  0  0  0  0  0  0  0
   -1.2978    0.9608    5.2963 N   0  0  0  0  0  0  0  0  0  0  0  0
   -1.5466    2.0453    4.4607 C   0  0  0  0  0  0  0  0  0  0  0  0
   -1.7148    2.2079    3.1172 C   0  0  0  0  0  0  0  0  0  0  0  0
   -1.8569    3.6222    2.9779 C   0  0  0  0  0  0  0  0  0  0  0  0
   -1.8147    4.2748    4.1335 N   0  0  0  0  0  0  0  0  0  0  0  0
   -1.6549    3.2918    5.0376 N   0  0  0  0  0  0  0  0  0  0  0  0
   -1.5976    3.5660    6.4234 N   0  0  0  0  0  0  0  0  0  0  0  0
   -1.5523    2.4330    7.2387 C   0  0  0  0  0  0  0  0  0  0  0  0
   -2.2440    2.5203    8.4940 N   0  0  0  0  0  0  0  0  0  0  0  0
   -3.3647    3.0197    8.4935 O   0  0  0  0  0  0  0  0  0  0  0  0
   -1.6740    2.1456    9.5079 O   0  0  0  0  0  0  0  0  0  0  0  0
   -0.3771    0.2665    8.4474 H   0  0  0  0  0  0  0  0  0  0  0  0
   -0.2627   -0.7696    6.9262 H   0  0  0  0  0  0  0  0  0  0  0  0
   -1.7314    1.4420    2.3550 H   0  0  0  0  0  0  0  0  0  0  0  0
   -2.0027    4.2035    2.0783 H   0  0  0  0  0  0  0  0  0  0  0  0
   -2.3113    4.2183    6.7110 H   0  0  0  0  0  0  0  0  0  0  0  0
   -0.9609    0.1015    4.8918 H   0  0  0  0  0  0  0  0  0  0  0  0
  1  2  2  0
  1 14  1  0
  1 15  1  0
  2 10  1  0
  2  3  1  0
  3  4  1  0
  3 19  1  0
  4  8  1  0
  4  5  2  0
  5  6  1  0
  5 16  1  0
  6  7  2  0
  6 17  1  0
  7  8  1  0
  8  9  1  0
  9 10  1  0
  9 18  1  0
 10 11  1  0
 11 12  2  0
 11 13  1  0
M  CHG  3  10  -1  11   1  13  -1
M  END
>  <i_m_ct_stereo_status>  (72) 
1

>  <s_m_source_file>  (72) 
/var/tmp/pbs.5076255.sched01/tmpr7id634h/0ay6m0hv_.sdf

>  <i_m_source_file_index>  (72) 
28

>  <i_lp_mmshare_version>  (72) 
48012

>  <i_f3d_flags>  (72) 
0

>  <s_epik_input>  (72) 
W0NIM11DKD1OMSlbQ0BIXShbTitdKD1PKVtPLV0pW05IXW4oYzEyKW5bY0hdW2NIXTI=

>  <s_epik_cmdline>  (72) 
J2VwaWtfcHl0aG9uJywgJy1waHQnLCAnMi4wJywgJy1waCcsICc3LjAnLCAnLXRuJywgJzgnLCAnLW1hJywgJzIwMCcsICctaW1hZScsICc8aW5maWxlLm1hZT4nLCAnLW9tYWUnLCAnPG91dGZpbGUubWFlPic=

>  <r_epik_Ionization_Penalty>  (72) 
0.442305

>  <r_epik_Ionization_Penalty_Charging>  (72) 
0.442235

>  <r_epik_Ionization_Penalty_Neutral>  (72) 
6.98344e-05

>  <r_epik_State_Penalty>  (72) 
0.444409

>  <r_epik_Charging_Adjusted_Penalty>  (72) 
0.886643

>  <i_epik_Tot_Q>  (72) 
-1

>  <i_epik_Tot_abs_Q>  (72) 
3

>  <s_epik_Chemistry_Notes>  (72) 
This compound has an imine and may undergo hydrolysis.

>  <s_lp_Force_Field>  (72) 
OPLS3e

>  <r_lp_Energy>  (72) 
14.7474

>  <b_lp_Chiralities_Consistent>  (72) 
1

>  <s_lp_Variant>  (72) 
17:0-2

>  <s_i_glide_gridfile>  (72) 
pfpi4k_grid

>  <i_i_glide_lignum>  (72) 
28

>  <i_i_glide_rotatable_bonds>  (72) 
1

>  <r_i_docking_score>  (72) 
-3.92117

>  <r_i_glide_ligand_efficiency>  (72) 
-0.301628

>  <r_i_glide_ligand_efficiency_sa>  (72) 
-0.709229

>  <r_i_glide_ligand_efficiency_ln>  (72) 
-1.09992

>  <r_i_glide_gscore>  (72) 
-3.92117

>  <r_i_glide_lipo>  (72) 
0

>  <r_i_glide_hbond>  (72) 
-0.0901826

>  <r_i_glide_metal>  (72) 
-0

>  <r_i_glide_rewards>  (72) 
-2.18084

>  <r_i_glide_evdw>  (72) 
-11.9795

>  <r_i_glide_ecoul>  (72) 
-6.18673

>  <r_i_glide_erotb>  (72) 
0

>  <r_i_glide_esite>  (72) 
-0.123167

>  <r_i_glide_emodel>  (72) 
-23.9211

>  <r_i_glide_energy>  (72) 
-18.1662

>  <r_i_glide_einternal>  (72) 
1.97526

>  <r_i_glide_intrahb_reward>  (72) 
-0

>  <i_i_glide_confnum>  (72) 
2

>  <i_i_glide_posenum>  (72) 
10

>  <r_i_glide_eff_state_penalty>  (72) 
0

>  <ligand_id>  (72) 
17

>  <original_smiles>  (72) 
CC1=Nc2ccnn2NC1[N+](=O)[O-]

>  <smiles>  (72) 
[H]C([H])=c1[c-]([N+](=O)[O-])n([H])n2nc([H])c([H])c2n1[H]

$$$$
17:1:2
     RDKit          3D

 19 20  0  0  1  0  0  0  0  0999 V2000
    5.8526   -1.5739    1.4410 C   0  0  0  0  0  0  0  0  0  0  0  0
    5.7429   -1.7524    0.1135 C   0  0  0  0  0  0  0  0  0  0  0  0
    4.7112   -1.1227   -0.5667 N   0  0  0  0  0  0  0  0  0  0  0  0
    4.3406   -1.5384   -1.8450 C   0  0  0  0  0  0  0  0  0  0  0  0
    3.4148   -1.1294   -2.7565 C   0  0  0  0  0  0  0  0  0  0  0  0
    3.5556   -2.0807   -3.8089 C   0  0  0  0  0  0  0  0  0  0  0  0
    4.5404   -2.9475   -3.6082 N   0  0  0  0  0  0  0  0  0  0  0  0
    5.0177   -2.6030   -2.3957 N   0  0  0  0  0  0  0  0  0  0  0  0
    6.1069   -3.2896   -1.8007 N   0  0  0  0  0  0  0  0  0  0  0  0
    6.5893   -2.6950   -0.6308 C   0  0  0  0  0  0  0  0  0  0  0  0
    8.0044   -2.8039   -0.3657 N   0  0  0  0  0  0  0  0  0  0  0  0
    8.5947   -1.8508    0.1245 O   0  0  0  0  0  0  0  0  0  0  0  0
    8.5691   -3.8423   -0.6805 O   0  0  0  0  0  0  0  0  0  0  0  0
    6.5869   -2.1028    2.0343 H   0  0  0  0  0  0  0  0  0  0  0  0
    5.1891   -0.9067    1.9691 H   0  0  0  0  0  0  0  0  0  0  0  0
    2.7307   -0.2924   -2.6679 H   0  0  0  0  0  0  0  0  0  0  0  0
    2.9987   -2.1544   -4.7267 H   0  0  0  0  0  0  0  0  0  0  0  0
    6.8271   -3.5198   -2.4716 H   0  0  0  0  0  0  0  0  0  0  0  0
    4.1094   -0.4994   -0.0458 H   0  0  0  0  0  0  0  0  0  0  0  0
  1  2  2  0
  1 14  1  0
  1 15  1  0
  2 10  1  0
  2  3  1  0
  3  4  1  0
  3 19  1  0
  4  8  1  0
  4  5  2  0
  5  6  1  0
  5 16  1  0
  6  7  2  0
  6 17  1  0
  7  8  1  0
  8  9  1  0
  9 10  1  0
  9 18  1  0
 10 11  1  0
 11 12  2  0
 11 13  1  0
M  CHG  3  10  -1  11   1  13  -1
M  END
>  <i_m_ct_stereo_status>  (73) 
1

>  <s_m_source_file>  (73) 
/var/tmp/pbs.5076255.sched01/tmpr7id634h/0ay6m0hv_.sdf

>  <i_m_source_file_index>  (73) 
28

>  <i_lp_mmshare_version>  (73) 
48012

>  <i_f3d_flags>  (73) 
0

>  <s_epik_input>  (73) 
W0NIM11DKD1OMSlbQ0BIXShbTitdKD1PKVtPLV0pW05IXW4oYzEyKW5bY0hdW2NIXTI=

>  <s_epik_cmdline>  (73) 
J2VwaWtfcHl0aG9uJywgJy1waHQnLCAnMi4wJywgJy1waCcsICc3LjAnLCAnLXRuJywgJzgnLCAnLW1hJywgJzIwMCcsICctaW1hZScsICc8aW5maWxlLm1hZT4nLCAnLW9tYWUnLCAnPG91dGZpbGUubWFlPic=

>  <r_epik_Ionization_Penalty>  (73) 
0.442305

>  <r_epik_Ionization_Penalty_Charging>  (73) 
0.442235

>  <r_epik_Ionization_Penalty_Neutral>  (73) 
6.98344e-05

>  <r_epik_State_Penalty>  (73) 
0.444409

>  <r_epik_Charging_Adjusted_Penalty>  (73) 
0.886643

>  <i_epik_Tot_Q>  (73) 
-1

>  <i_epik_Tot_abs_Q>  (73) 
3

>  <s_epik_Chemistry_Notes>  (73) 
This compound has an imine and may undergo hydrolysis.

>  <s_lp_Force_Field>  (73) 
OPLS3e

>  <r_lp_Energy>  (73) 
14.7474

>  <b_lp_Chiralities_Consistent>  (73) 
1

>  <s_lp_Variant>  (73) 
17:0-2

>  <s_i_glide_gridfile>  (73) 
pfpi4k_grid

>  <i_i_glide_lignum>  (73) 
28

>  <i_i_glide_rotatable_bonds>  (73) 
1

>  <r_i_docking_score>  (73) 
-3.78382

>  <r_i_glide_ligand_efficiency>  (73) 
-0.291063

>  <r_i_glide_ligand_efficiency_sa>  (73) 
-0.684387

>  <r_i_glide_ligand_efficiency_ln>  (73) 
-1.0614

>  <r_i_glide_gscore>  (73) 
-3.78382

>  <r_i_glide_lipo>  (73) 
-0.317695

>  <r_i_glide_hbond>  (73) 
0

>  <r_i_glide_metal>  (73) 
-0

>  <r_i_glide_rewards>  (73) 
-2.42508

>  <r_i_glide_evdw>  (73) 
-21.9659

>  <r_i_glide_ecoul>  (73) 
1.41991

>  <r_i_glide_erotb>  (73) 
0

>  <r_i_glide_esite>  (73) 
-0.15574

>  <r_i_glide_emodel>  (73) 
-26.9121

>  <r_i_glide_energy>  (73) 
-20.546

>  <r_i_glide_einternal>  (73) 
0.356439

>  <r_i_glide_intrahb_reward>  (73) 
-0

>  <i_i_glide_confnum>  (73) 
2

>  <i_i_glide_posenum>  (73) 
36

>  <r_i_glide_eff_state_penalty>  (73) 
0

>  <ligand_id>  (73) 
17

>  <original_smiles>  (73) 
CC1=Nc2ccnn2NC1[N+](=O)[O-]

>  <smiles>  (73) 
[H]C([H])=c1[c-]([N+](=O)[O-])n([H])n2nc([H])c([H])c2n1[H]

$$$$
18:0:0
     RDKit          3D

 71 72  0  0  1  0  0  0  0  0999 V2000
    2.9752    3.8691    4.7756 C   0  0  0  0  0  0  0  0  0  0  0  0
    2.1051    3.9261    3.5413 N   0  0  0  0  0  0  0  0  0  0  0  0
    0.7847    4.5471    3.8934 C   0  0  0  0  0  0  0  0  0  0  0  0
    2.7981    4.8139    2.5528 C   0  0  0  0  0  0  0  0  0  0  0  0
    1.9182    2.5489    2.9404 C   0  0  0  0  0  0  0  0  0  0  0  0
    1.3343    1.4806    3.8979 C   0  0  0  0  0  0  0  0  0  0  0  0
    1.2531    0.0667    3.2958 C   0  0  0  0  0  0  0  0  0  0  0  0
    0.9567   -1.0086    4.3721 C   0  0  0  0  0  0  0  0  0  0  0  0
    1.0366   -2.4231    3.8055 C   0  0  0  0  0  0  0  0  0  0  0  0
    1.0041   -3.5298    4.8811 C   0  0  0  0  0  0  0  0  0  0  0  0
    1.2354   -4.9591    4.3512 C   0  0  0  0  0  0  0  0  0  0  0  0
    2.5149   -5.1344    3.5174 C   0  0  0  0  0  0  0  0  0  0  0  0
    2.6542   -6.5402    2.9009 C   0  0  0  0  0  0  0  0  0  0  0  0
    3.1934   -6.4922    1.4553 C   0  0  0  0  0  0  0  0  0  0  0  0
    2.2551   -5.7370    0.4790 C   0  0  0  0  0  0  0  0  0  0  0  0
    1.0769   -6.0918    0.4258 O   0  0  0  0  0  0  0  0  0  0  0  0
    2.7083   -4.6672   -0.2346 N   0  0  0  0  0  0  0  0  0  0  0  0
    1.7929   -3.8085   -0.9814 C   0  0  0  0  0  0  0  0  0  0  0  0
    2.2902   -3.3783   -2.3684 C   0  0  0  0  0  0  0  0  0  0  0  0
    3.6784   -2.8270   -2.3276 N   0  0  0  0  0  0  0  0  0  0  0  0
    3.7106   -1.4662   -1.6955 C   0  0  0  0  0  0  0  0  0  0  0  0
    4.5318   -0.5660   -2.6043 C   0  0  0  0  0  0  0  0  0  0  0  0
    4.2307   -1.1368   -3.9781 C   0  0  0  0  0  0  0  0  0  0  0  0
    4.1864   -2.6387   -3.7153 C   0  0  0  0  0  0  0  0  0  0  0  0
    4.5680   -3.7618   -1.5981 C   0  0  0  0  0  0  0  0  0  0  0  0
    4.0864   -4.1574   -0.1933 C   0  0  0  0  0  0  0  0  0  0  0  0
    3.9236    3.4202    4.5277 H   0  0  0  0  0  0  0  0  0  0  0  0
    2.5119    3.3242    5.5798 H   0  0  0  0  0  0  0  0  0  0  0  0
    3.1513    4.8657    5.1448 H   0  0  0  0  0  0  0  0  0  0  0  0
    0.1953    4.6990    2.9989 H   0  0  0  0  0  0  0  0  0  0  0  0
    0.9477    5.5041    4.3581 H   0  0  0  0  0  0  0  0  0  0  0  0
    0.2203    3.9417    4.5844 H   0  0  0  0  0  0  0  0  0  0  0  0
    2.1805    4.9463    1.6814 H   0  0  0  0  0  0  0  0  0  0  0  0
    3.7398    4.4049    2.2301 H   0  0  0  0  0  0  0  0  0  0  0  0
    2.9839    5.7806    2.9817 H   0  0  0  0  0  0  0  0  0  0  0  0
    1.2919    2.6380    2.0546 H   0  0  0  0  0  0  0  0  0  0  0  0
    2.8837    2.2145    2.5858 H   0  0  0  0  0  0  0  0  0  0  0  0
    1.9546    1.3694    4.7872 H   0  0  0  0  0  0  0  0  0  0  0  0
    0.3343    1.7445    4.2445 H   0  0  0  0  0  0  0  0  0  0  0  0
    0.4915    0.0378    2.5110 H   0  0  0  0  0  0  0  0  0  0  0  0
    2.2068   -0.1603    2.8070 H   0  0  0  0  0  0  0  0  0  0  0  0
    1.7010   -0.9229    5.1659 H   0  0  0  0  0  0  0  0  0  0  0  0
   -0.0167   -0.8390    4.8338 H   0  0  0  0  0  0  0  0  0  0  0  0
    0.2450   -2.5863    3.0754 H   0  0  0  0  0  0  0  0  0  0  0  0
    1.9778   -2.4359    3.2610 H   0  0  0  0  0  0  0  0  0  0  0  0
    1.7446   -3.3218    5.6552 H   0  0  0  0  0  0  0  0  0  0  0  0
    0.0369   -3.5164    5.3846 H   0  0  0  0  0  0  0  0  0  0  0  0
    1.2761   -5.6477    5.1965 H   0  0  0  0  0  0  0  0  0  0  0  0
    0.3742   -5.2702    3.7573 H   0  0  0  0  0  0  0  0  0  0  0  0
    2.5089   -4.4054    2.7141 H   0  0  0  0  0  0  0  0  0  0  0  0
    3.3970   -4.8714    4.1042 H   0  0  0  0  0  0  0  0  0  0  0  0
    3.3677   -7.0937    3.5051 H   0  0  0  0  0  0  0  0  0  0  0  0
    1.7200   -7.1023    2.9474 H   0  0  0  0  0  0  0  0  0  0  0  0
    4.1866   -6.0932    1.5354 H   0  0  0  0  0  0  0  0  0  0  0  0
    3.3054   -7.5057    1.0718 H   0  0  0  0  0  0  0  0  0  0  0  0
    0.8069   -4.2442   -1.1368 H   0  0  0  0  0  0  0  0  0  0  0  0
    1.6794   -2.9458   -0.3385 H   0  0  0  0  0  0  0  0  0  0  0  0
    2.2221   -4.2397   -3.0392 H   0  0  0  0  0  0  0  0  0  0  0  0
    1.6098   -2.6541   -2.8295 H   0  0  0  0  0  0  0  0  0  0  0  0
    2.7111   -1.0446   -1.6325 H   0  0  0  0  0  0  0  0  0  0  0  0
    4.1200   -1.4462   -0.6856 H   0  0  0  0  0  0  0  0  0  0  0  0
    4.2493    0.4834   -2.5277 H   0  0  0  0  0  0  0  0  0  0  0  0
    5.5832   -0.6630   -2.3289 H   0  0  0  0  0  0  0  0  0  0  0  0
    3.2575   -0.7819   -4.3251 H   0  0  0  0  0  0  0  0  0  0  0  0
    4.9773   -0.8572   -4.7211 H   0  0  0  0  0  0  0  0  0  0  0  0
    5.2036   -3.0233   -3.8016 H   0  0  0  0  0  0  0  0  0  0  0  0
    3.6016   -3.1627   -4.4747 H   0  0  0  0  0  0  0  0  0  0  0  0
    4.6579   -4.6693   -2.1929 H   0  0  0  0  0  0  0  0  0  0  0  0
    5.5742   -3.3460   -1.5221 H   0  0  0  0  0  0  0  0  0  0  0  0
    4.1263   -3.3170    0.5058 H   0  0  0  0  0  0  0  0  0  0  0  0
    4.8117   -4.8814    0.1178 H   0  0  0  0  0  0  0  0  0  0  0  0
  1  2  1  0
  1 27  1  0
  1 28  1  0
  1 29  1  0
  2  3  1  0
  2  4  1  0
  2  5  1  0
  3 30  1  0
  3 31  1  0
  3 32  1  0
  4 33  1  0
  4 34  1  0
  4 35  1  0
  5  6  1  0
  5 36  1  0
  5 37  1  0
  6  7  1  0
  6 38  1  0
  6 39  1  0
  7  8  1  0
  7 40  1  0
  7 41  1  0
  8  9  1  0
  8 42  1  0
  8 43  1  0
  9 10  1  0
  9 44  1  0
  9 45  1  0
 10 11  1  0
 10 46  1  0
 10 47  1  0
 11 12  1  0
 11 48  1  0
 11 49  1  0
 12 13  1  0
 12 50  1  0
 12 51  1  0
 13 14  1  0
 13 52  1  0
 13 53  1  0
 14 15  1  0
 14 54  1  0
 14 55  1  0
 15 16  2  0
 15 17  1  0
 17 26  1  0
 17 18  1  0
 18 19  1  0
 18 56  1  0
 18 57  1  0
 19 20  1  0
 19 58  1  0
 19 59  1  0
 20 24  1  0
 20 21  1  0
 20 25  1  0
 21 22  1  0
 21 60  1  0
 21 61  1  0
 22 23  1  0
 22 62  1  0
 22 63  1  0
 23 24  1  0
 23 64  1  0
 23 65  1  0
 24 66  1  0
 24 67  1  0
 25 26  1  0
 25 68  1  0
 25 69  1  0
 26 70  1  0
 26 71  1  0
M  CHG  2   2   1  20   1
M  END
>  <i_m_ct_stereo_status>  (74) 
1

>  <s_m_source_file>  (74) 
/var/tmp/pbs.5076255.sched01/tmpr7id634h/0ay6m0hv_.sdf

>  <i_m_source_file_index>  (74) 
29

>  <i_lp_mmshare_version>  (74) 
48012

>  <i_f3d_flags>  (74) 
0

>  <s_epik_input>  (74) 
W0NIM11bTitdKFtDSDNdKShbQ0gzXSlbQ0gyXVtDSDJdW0NIMl1bQ0gyXVtDSDJdW0NIMl1bQ0gyXVtDSDJdW0NIMl1bQ0gyXUMoPU8pTihbQ0gyXVtDSDJdMSlbQ0gyXVtDSDJdW04rXTEyW0NIMl1bQ0gyXVtDSDJdW0NIMl0y

>  <s_epik_cmdline>  (74) 
J2VwaWtfcHl0aG9uJywgJy1waHQnLCAnMi4wJywgJy1waCcsICc3LjAnLCAnLXRuJywgJzgnLCAnLW1hJywgJzIwMCcsICctaW1hZScsICc8aW5maWxlLm1hZT4nLCAnLW9tYWUnLCAnPG91dGZpbGUubWFlPic=

>  <r_lp_tautomer_probability>  (74) 
1

>  <r_epik_Ionization_Penalty>  (74) 
2.58775e-13

>  <r_epik_Ionization_Penalty_Charging>  (74) 
0

>  <r_epik_Ionization_Penalty_Neutral>  (74) 
2.58775e-13

>  <r_epik_State_Penalty>  (74) 
-0

>  <r_epik_Charging_Adjusted_Penalty>  (74) 
0

>  <i_epik_Tot_Q>  (74) 
2

>  <i_epik_Tot_abs_Q>  (74) 
2

>  <s_lp_Force_Field>  (74) 
OPLS3e

>  <r_lp_Energy>  (74) 
42.342

>  <b_lp_Chiralities_Consistent>  (74) 
1

>  <s_lp_Variant>  (74) 
18:0-1

>  <s_i_glide_gridfile>  (74) 
pfpi4k_grid

>  <i_i_glide_lignum>  (74) 
29

>  <i_i_glide_rotatable_bonds>  (74) 
12

>  <r_i_docking_score>  (74) 
-3.06179

>  <r_i_glide_ligand_efficiency>  (74) 
-0.117761

>  <r_i_glide_ligand_efficiency_sa>  (74) 
-0.348867

>  <r_i_glide_ligand_efficiency_ln>  (74) 
-0.719051

>  <r_i_glide_gscore>  (74) 
-3.06179

>  <r_i_glide_lipo>  (74) 
-0.589505

>  <r_i_glide_hbond>  (74) 
-0.19291

>  <r_i_glide_metal>  (74) 
-0

>  <r_i_glide_rewards>  (74) 
-0.902644

>  <r_i_glide_evdw>  (74) 
-23.4867

>  <r_i_glide_ecoul>  (74) 
-9.77695

>  <r_i_glide_erotb>  (74) 
1.42525

>  <r_i_glide_esite>  (74) 
-0.1611

>  <r_i_glide_emodel>  (74) 
-36.734

>  <r_i_glide_energy>  (74) 
-33.2636

>  <r_i_glide_einternal>  (74) 
6.24412

>  <r_i_glide_intrahb_reward>  (74) 
-0

>  <i_i_glide_confnum>  (74) 
3

>  <i_i_glide_posenum>  (74) 
20

>  <r_i_glide_eff_state_penalty>  (74) 
0

>  <ligand_id>  (74) 
18

>  <original_smiles>  (74) 
C[N+](C)(C)CCCCCCCCCCC(=O)N1CC[N+]2(CCCC2)CC1

>  <smiles>  (74) 
[H]C([H])(C(=O)N1C([H])([H])C([H])([H])[N+]2(C([H])([H])C1([H])[H])C([H])([H])C([H])([H])C([H])([H])C2([H])[H])C([H])([H])C([H])([H])C([H])([H])C([H])([H])C([H])([H])C([H])([H])C([H])([H])C([H])([H])C([H])([H])[N+](C([H])([H])[H])(C([H])([H])[H])C([H])([H])[H]

$$$$
18:0:1
     RDKit          3D

 71 72  0  0  1  0  0  0  0  0999 V2000
    1.5619    3.9528    6.0650 C   0  0  0  0  0  0  0  0  0  0  0  0
    1.6854    3.9569    4.5753 N   0  0  0  0  0  0  0  0  0  0  0  0
    0.4234    4.4729    3.9728 C   0  0  0  0  0  0  0  0  0  0  0  0
    2.7910    4.8908    4.2118 C   0  0  0  0  0  0  0  0  0  0  0  0
    2.0081    2.5789    4.0552 C   0  0  0  0  0  0  0  0  0  0  0  0
    0.9887    1.4549    4.4218 C   0  0  0  0  0  0  0  0  0  0  0  0
    1.4363    0.0418    4.0208 C   0  0  0  0  0  0  0  0  0  0  0  0
    0.6715   -1.0516    4.8024 C   0  0  0  0  0  0  0  0  0  0  0  0
    0.9320   -2.4665    4.2665 C   0  0  0  0  0  0  0  0  0  0  0  0
    0.5222   -3.5793    5.2496 C   0  0  0  0  0  0  0  0  0  0  0  0
    0.5931   -4.9985    4.6618 C   0  0  0  0  0  0  0  0  0  0  0  0
    1.9427   -5.3618    4.0305 C   0  0  0  0  0  0  0  0  0  0  0  0
    1.9689   -6.7901    3.4409 C   0  0  0  0  0  0  0  0  0  0  0  0
    2.6516   -6.8497    2.0628 C   0  0  0  0  0  0  0  0  0  0  0  0
    1.8654   -6.0982    0.9685 C   0  0  0  0  0  0  0  0  0  0  0  0
    0.6429   -6.2629    0.9436 O   0  0  0  0  0  0  0  0  0  0  0  0
    2.4968   -5.2844    0.0832 N   0  0  0  0  0  0  0  0  0  0  0  0
    3.9532   -5.0807   -0.0096 C   0  0  0  0  0  0  0  0  0  0  0  0
    4.3300   -3.5927   -0.0698 C   0  0  0  0  0  0  0  0  0  0  0  0
    3.6122   -2.8513   -1.1460 N   0  0  0  0  0  0  0  0  0  0  0  0
    4.0691   -3.2670   -2.5102 C   0  0  0  0  0  0  0  0  0  0  0  0
    4.3627   -1.9882   -3.2838 C   0  0  0  0  0  0  0  0  0  0  0  0
    4.8579   -1.0419   -2.2112 C   0  0  0  0  0  0  0  0  0  0  0  0
    3.9283   -1.3892   -1.0521 C   0  0  0  0  0  0  0  0  0  0  0  0
    2.1527   -3.0679   -0.9921 C   0  0  0  0  0  0  0  0  0  0  0  0
    1.7002   -4.5137   -0.9108 C   0  0  0  0  0  0  0  0  0  0  0  0
    2.4794    3.5756    6.5256 H   0  0  0  0  0  0  0  0  0  0  0  0
    0.7233    3.3487    6.4190 H   0  0  0  0  0  0  0  0  0  0  0  0
    1.3935    4.9632    6.4433 H   0  0  0  0  0  0  0  0  0  0  0  0
    0.5344    4.5952    2.8916 H   0  0  0  0  0  0  0  0  0  0  0  0
    0.1776    5.4477    4.3952 H   0  0  0  0  0  0  0  0  0  0  0  0
   -0.4276    3.8149    4.1608 H   0  0  0  0  0  0  0  0  0  0  0  0
    2.8793    5.0076    3.1295 H   0  0  0  0  0  0  0  0  0  0  0  0
    3.7534    4.5456    4.5950 H   0  0  0  0  0  0  0  0  0  0  0  0
    2.6077    5.8778    4.6363 H   0  0  0  0  0  0  0  0  0  0  0  0
    2.1364    2.6277    2.9660 H   0  0  0  0  0  0  0  0  0  0  0  0
    2.9913    2.2978    4.4483 H   0  0  0  0  0  0  0  0  0  0  0  0
    0.8205    1.4305    5.4943 H   0  0  0  0  0  0  0  0  0  0  0  0
    0.0253    1.6477    3.9544 H   0  0  0  0  0  0  0  0  0  0  0  0
    1.3042   -0.0892    2.9443 H   0  0  0  0  0  0  0  0  0  0  0  0
    2.5042   -0.0818    4.2194 H   0  0  0  0  0  0  0  0  0  0  0  0
    0.9726   -1.0012    5.8511 H   0  0  0  0  0  0  0  0  0  0  0  0
   -0.4021   -0.8585    4.7848 H   0  0  0  0  0  0  0  0  0  0  0  0
    0.4095   -2.5854    3.3171 H   0  0  0  0  0  0  0  0  0  0  0  0
    1.9961   -2.5497    4.0526 H   0  0  0  0  0  0  0  0  0  0  0  0
    1.1560   -3.5304    6.1360 H   0  0  0  0  0  0  0  0  0  0  0  0
   -0.4982   -3.4114    5.5962 H   0  0  0  0  0  0  0  0  0  0  0  0
    0.3540   -5.7209    5.4406 H   0  0  0  0  0  0  0  0  0  0  0  0
   -0.1815   -5.1168    3.9051 H   0  0  0  0  0  0  0  0  0  0  0  0
    2.1743   -4.6346    3.2540 H   0  0  0  0  0  0  0  0  0  0  0  0
    2.7384   -5.2449    4.7647 H   0  0  0  0  0  0  0  0  0  0  0  0
    2.5424   -7.4167    4.1229 H   0  0  0  0  0  0  0  0  0  0  0  0
    0.9696   -7.2388    3.4113 H   0  0  0  0  0  0  0  0  0  0  0  0
    3.6536   -6.4756    2.2220 H   0  0  0  0  0  0  0  0  0  0  0  0
    2.7471   -7.8836    1.7373 H   0  0  0  0  0  0  0  0  0  0  0  0
    4.5325   -5.4929    0.8046 H   0  0  0  0  0  0  0  0  0  0  0  0
    4.2701   -5.5829   -0.9157 H   0  0  0  0  0  0  0  0  0  0  0  0
    4.0714   -3.1278    0.8820 H   0  0  0  0  0  0  0  0  0  0  0  0
    5.4119   -3.4685   -0.1927 H   0  0  0  0  0  0  0  0  0  0  0  0
    4.9847   -3.8644   -2.4549 H   0  0  0  0  0  0  0  0  0  0  0  0
    3.3450   -3.8559   -3.0699 H   0  0  0  0  0  0  0  0  0  0  0  0
    5.0874   -2.1649   -4.0583 H   0  0  0  0  0  0  0  0  0  0  0  0
    3.4566   -1.5983   -3.7530 H   0  0  0  0  0  0  0  0  0  0  0  0
    5.8888   -1.2792   -1.9460 H   0  0  0  0  0  0  0  0  0  0  0  0
    4.8082    0.0061   -2.5172 H   0  0  0  0  0  0  0  0  0  0  0  0
    3.0205   -0.7948   -1.1742 H   0  0  0  0  0  0  0  0  0  0  0  0
    4.3711   -1.0878   -0.1022 H   0  0  0  0  0  0  0  0  0  0  0  0
    1.8032   -2.6395   -0.0634 H   0  0  0  0  0  0  0  0  0  0  0  0
    1.6497   -2.6705   -1.8724 H   0  0  0  0  0  0  0  0  0  0  0  0
    1.6368   -4.8206   -1.9387 H   0  0  0  0  0  0  0  0  0  0  0  0
    0.6295   -4.6154   -0.7406 H   0  0  0  0  0  0  0  0  0  0  0  0
  1  2  1  0
  1 27  1  0
  1 28  1  0
  1 29  1  0
  2  3  1  0
  2  4  1  0
  2  5  1  0
  3 30  1  0
  3 31  1  0
  3 32  1  0
  4 33  1  0
  4 34  1  0
  4 35  1  0
  5  6  1  0
  5 36  1  0
  5 37  1  0
  6  7  1  0
  6 38  1  0
  6 39  1  0
  7  8  1  0
  7 40  1  0
  7 41  1  0
  8  9  1  0
  8 42  1  0
  8 43  1  0
  9 10  1  0
  9 44  1  0
  9 45  1  0
 10 11  1  0
 10 46  1  0
 10 47  1  0
 11 12  1  0
 11 48  1  0
 11 49  1  0
 12 13  1  0
 12 50  1  0
 12 51  1  0
 13 14  1  0
 13 52  1  0
 13 53  1  0
 14 15  1  0
 14 54  1  0
 14 55  1  0
 15 16  2  0
 15 17  1  0
 17 26  1  0
 17 18  1  0
 18 19  1  0
 18 56  1  0
 18 57  1  0
 19 20  1  0
 19 58  1  0
 19 59  1  0
 20 24  1  0
 20 21  1  0
 20 25  1  0
 21 22  1  0
 21 60  1  0
 21 61  1  0
 22 23  1  0
 22 62  1  0
 22 63  1  0
 23 24  1  0
 23 64  1  0
 23 65  1  0
 24 66  1  0
 24 67  1  0
 25 26  1  0
 25 68  1  0
 25 69  1  0
 26 70  1  0
 26 71  1  0
M  CHG  2   2   1  20   1
M  END
>  <i_m_ct_stereo_status>  (75) 
1

>  <s_m_source_file>  (75) 
/var/tmp/pbs.5076255.sched01/tmpr7id634h/0ay6m0hv_.sdf

>  <i_m_source_file_index>  (75) 
29

>  <i_lp_mmshare_version>  (75) 
48012

>  <i_f3d_flags>  (75) 
0

>  <s_epik_input>  (75) 
W0NIM11bTitdKFtDSDNdKShbQ0gzXSlbQ0gyXVtDSDJdW0NIMl1bQ0gyXVtDSDJdW0NIMl1bQ0gyXVtDSDJdW0NIMl1bQ0gyXUMoPU8pTihbQ0gyXVtDSDJdMSlbQ0gyXVtDSDJdW04rXTEyW0NIMl1bQ0gyXVtDSDJdW0NIMl0y

>  <s_epik_cmdline>  (75) 
J2VwaWtfcHl0aG9uJywgJy1waHQnLCAnMi4wJywgJy1waCcsICc3LjAnLCAnLXRuJywgJzgnLCAnLW1hJywgJzIwMCcsICctaW1hZScsICc8aW5maWxlLm1hZT4nLCAnLW9tYWUnLCAnPG91dGZpbGUubWFlPic=

>  <r_lp_tautomer_probability>  (75) 
1

>  <r_epik_Ionization_Penalty>  (75) 
2.58775e-13

>  <r_epik_Ionization_Penalty_Charging>  (75) 
0

>  <r_epik_Ionization_Penalty_Neutral>  (75) 
2.58775e-13

>  <r_epik_State_Penalty>  (75) 
-0

>  <r_epik_Charging_Adjusted_Penalty>  (75) 
0

>  <i_epik_Tot_Q>  (75) 
2

>  <i_epik_Tot_abs_Q>  (75) 
2

>  <s_lp_Force_Field>  (75) 
OPLS3e

>  <r_lp_Energy>  (75) 
42.342

>  <b_lp_Chiralities_Consistent>  (75) 
1

>  <s_lp_Variant>  (75) 
18:0-1

>  <s_i_glide_gridfile>  (75) 
pfpi4k_grid

>  <i_i_glide_lignum>  (75) 
29

>  <i_i_glide_rotatable_bonds>  (75) 
12

>  <r_i_docking_score>  (75) 
-1.91788

>  <r_i_glide_ligand_efficiency>  (75) 
-0.0737645

>  <r_i_glide_ligand_efficiency_sa>  (75) 
-0.218527

>  <r_i_glide_ligand_efficiency_ln>  (75) 
-0.450407

>  <r_i_glide_gscore>  (75) 
-1.91788

>  <r_i_glide_lipo>  (75) 
-0.157487

>  <r_i_glide_hbond>  (75) 
-0.16

>  <r_i_glide_metal>  (75) 
-0

>  <r_i_glide_rewards>  (75) 
-0.902644

>  <r_i_glide_evdw>  (75) 
-12.5354

>  <r_i_glide_ecoul>  (75) 
-8.9907

>  <r_i_glide_erotb>  (75) 
1.42525

>  <r_i_glide_esite>  (75) 
-0.14762

>  <r_i_glide_emodel>  (75) 
-21.461

>  <r_i_glide_energy>  (75) 
-21.5261

>  <r_i_glide_einternal>  (75) 
6.31158

>  <r_i_glide_intrahb_reward>  (75) 
-0

>  <i_i_glide_confnum>  (75) 
3

>  <i_i_glide_posenum>  (75) 
39

>  <r_i_glide_eff_state_penalty>  (75) 
0

>  <ligand_id>  (75) 
18

>  <original_smiles>  (75) 
C[N+](C)(C)CCCCCCCCCCC(=O)N1CC[N+]2(CCCC2)CC1

>  <smiles>  (75) 
[H]C([H])(C(=O)N1C([H])([H])C([H])([H])[N+]2(C([H])([H])C1([H])[H])C([H])([H])C([H])([H])C([H])([H])C2([H])[H])C([H])([H])C([H])([H])C([H])([H])C([H])([H])C([H])([H])C([H])([H])C([H])([H])C([H])([H])C([H])([H])[N+](C([H])([H])[H])(C([H])([H])[H])C([H])([H])[H]

$$$$
18:0:2
     RDKit          3D

 71 72  0  0  1  0  0  0  0  0999 V2000
    1.9854    4.9754    3.4106 C   0  0  0  0  0  0  0  0  0  0  0  0
    1.0342    4.1239    4.1701 N   0  0  0  0  0  0  0  0  0  0  0  0
    1.3572    4.2425    5.6208 C   0  0  0  0  0  0  0  0  0  0  0  0
   -0.3472    4.6236    3.9372 C   0  0  0  0  0  0  0  0  0  0  0  0
    1.1727    2.7065    3.6914 C   0  0  0  0  0  0  0  0  0  0  0  0
    0.3935    1.6247    4.4934 C   0  0  0  0  0  0  0  0  0  0  0  0
    0.6761    0.1851    4.0123 C   0  0  0  0  0  0  0  0  0  0  0  0
    0.1070   -0.8875    4.9703 C   0  0  0  0  0  0  0  0  0  0  0  0
    0.3232   -2.3188    4.4645 C   0  0  0  0  0  0  0  0  0  0  0  0
    0.1575   -3.3999    5.5512 C   0  0  0  0  0  0  0  0  0  0  0  0
    0.2966   -4.8495    5.0418 C   0  0  0  0  0  0  0  0  0  0  0  0
    1.6456   -5.1526    4.3791 C   0  0  0  0  0  0  0  0  0  0  0  0
    1.7122   -6.5539    3.7418 C   0  0  0  0  0  0  0  0  0  0  0  0
    2.9043   -6.7018    2.7806 C   0  0  0  0  0  0  0  0  0  0  0  0
    2.8369   -5.7842    1.5416 C   0  0  0  0  0  0  0  0  0  0  0  0
    1.7361   -5.6181    1.0203 O   0  0  0  0  0  0  0  0  0  0  0  0
    3.9481   -5.1641    1.0557 N   0  0  0  0  0  0  0  0  0  0  0  0
    5.3271   -5.4498    1.4712 C   0  0  0  0  0  0  0  0  0  0  0  0
    6.1100   -4.1481    1.7127 C   0  0  0  0  0  0  0  0  0  0  0  0
    6.1116   -3.2429    0.5313 N   0  0  0  0  0  0  0  0  0  0  0  0
    6.9097   -3.8297   -0.5899 C   0  0  0  0  0  0  0  0  0  0  0  0
    7.8798   -2.7656   -1.0886 C   0  0  0  0  0  0  0  0  0  0  0  0
    8.1717   -1.9844    0.1859 C   0  0  0  0  0  0  0  0  0  0  0  0
    6.8033   -1.9537    0.8681 C   0  0  0  0  0  0  0  0  0  0  0  0
    4.7046   -2.9719    0.1066 C   0  0  0  0  0  0  0  0  0  0  0  0
    3.8723   -4.2582   -0.1038 C   0  0  0  0  0  0  0  0  0  0  0  0
    1.8019    4.9384    2.3370 H   0  0  0  0  0  0  0  0  0  0  0  0
    3.0163    4.6616    3.5751 H   0  0  0  0  0  0  0  0  0  0  0  0
    1.9103    6.0170    3.7188 H   0  0  0  0  0  0  0  0  0  0  0  0
    0.6224    3.7430    6.2540 H   0  0  0  0  0  0  0  0  0  0  0  0
    1.3681    5.2882    5.9296 H   0  0  0  0  0  0  0  0  0  0  0  0
    2.3418    3.8226    5.8402 H   0  0  0  0  0  0  0  0  0  0  0  0
   -1.0799    4.0850    4.5388 H   0  0  0  0  0  0  0  0  0  0  0  0
   -0.6308    4.5314    2.8844 H   0  0  0  0  0  0  0  0  0  0  0  0
   -0.4096    5.6778    4.2031 H   0  0  0  0  0  0  0  0  0  0  0  0
    0.8757    2.6539    2.6396 H   0  0  0  0  0  0  0  0  0  0  0  0
    2.2307    2.4375    3.7174 H   0  0  0  0  0  0  0  0  0  0  0  0
    0.6637    1.6575    5.5498 H   0  0  0  0  0  0  0  0  0  0  0  0
   -0.6823    1.8066    4.4382 H   0  0  0  0  0  0  0  0  0  0  0  0
    0.2799    0.0510    3.0025 H   0  0  0  0  0  0  0  0  0  0  0  0
    1.7570    0.0401    3.9288 H   0  0  0  0  0  0  0  0  0  0  0  0
    0.5978   -0.7736    5.9371 H   0  0  0  0  0  0  0  0  0  0  0  0
   -0.9575   -0.7186    5.1320 H   0  0  0  0  0  0  0  0  0  0  0  0
   -0.3777   -2.5141    3.6599 H   0  0  0  0  0  0  0  0  0  0  0  0
    1.3214   -2.3617    4.0321 H   0  0  0  0  0  0  0  0  0  0  0  0
    0.8835   -3.2315    6.3473 H   0  0  0  0  0  0  0  0  0  0  0  0
   -0.8284   -3.3036    6.0095 H   0  0  0  0  0  0  0  0  0  0  0  0
    0.1439   -5.5387    5.8735 H   0  0  0  0  0  0  0  0  0  0  0  0
   -0.4998   -5.0718    4.3354 H   0  0  0  0  0  0  0  0  0  0  0  0
    1.8240   -4.4116    3.6055 H   0  0  0  0  0  0  0  0  0  0  0  0
    2.4544   -5.0221    5.0996 H   0  0  0  0  0  0  0  0  0  0  0  0
    1.8275   -7.2831    4.5438 H   0  0  0  0  0  0  0  0  0  0  0  0
    0.7699   -6.8105    3.2405 H   0  0  0  0  0  0  0  0  0  0  0  0
    3.7743   -6.5316    3.4093 H   0  0  0  0  0  0  0  0  0  0  0  0
    2.9689   -7.7241    2.4189 H   0  0  0  0  0  0  0  0  0  0  0  0
    5.4354   -6.0164    2.3964 H   0  0  0  0  0  0  0  0  0  0  0  0
    5.7956   -6.0513    0.6916 H   0  0  0  0  0  0  0  0  0  0  0  0
    5.6648   -3.6237    2.5589 H   0  0  0  0  0  0  0  0  0  0  0  0
    7.1382   -4.3723    2.0094 H   0  0  0  0  0  0  0  0  0  0  0  0
    7.5117   -4.6642   -0.2278 H   0  0  0  0  0  0  0  0  0  0  0  0
    6.2803   -4.2065   -1.3960 H   0  0  0  0  0  0  0  0  0  0  0  0
    8.7759   -3.1890   -1.5468 H   0  0  0  0  0  0  0  0  0  0  0  0
    7.3741   -2.1602   -1.8402 H   0  0  0  0  0  0  0  0  0  0  0  0
    8.8987   -2.5322    0.7894 H   0  0  0  0  0  0  0  0  0  0  0  0
    8.5869   -0.9892    0.0359 H   0  0  0  0  0  0  0  0  0  0  0  0
    6.2450   -1.1006    0.4811 H   0  0  0  0  0  0  0  0  0  0  0  0
    6.8886   -1.7784    1.9399 H   0  0  0  0  0  0  0  0  0  0  0  0
    4.2176   -2.3673    0.8753 H   0  0  0  0  0  0  0  0  0  0  0  0
    4.6975   -2.3699   -0.8029 H   0  0  0  0  0  0  0  0  0  0  0  0
    4.1993   -4.7962   -0.9918 H   0  0  0  0  0  0  0  0  0  0  0  0
    2.8557   -3.9355   -0.3442 H   0  0  0  0  0  0  0  0  0  0  0  0
  1  2  1  0
  1 27  1  0
  1 28  1  0
  1 29  1  0
  2  3  1  0
  2  4  1  0
  2  5  1  0
  3 30  1  0
  3 31  1  0
  3 32  1  0
  4 33  1  0
  4 34  1  0
  4 35  1  0
  5  6  1  0
  5 36  1  0
  5 37  1  0
  6  7  1  0
  6 38  1  0
  6 39  1  0
  7  8  1  0
  7 40  1  0
  7 41  1  0
  8  9  1  0
  8 42  1  0
  8 43  1  0
  9 10  1  0
  9 44  1  0
  9 45  1  0
 10 11  1  0
 10 46  1  0
 10 47  1  0
 11 12  1  0
 11 48  1  0
 11 49  1  0
 12 13  1  0
 12 50  1  0
 12 51  1  0
 13 14  1  0
 13 52  1  0
 13 53  1  0
 14 15  1  0
 14 54  1  0
 14 55  1  0
 15 16  2  0
 15 17  1  0
 17 26  1  0
 17 18  1  0
 18 19  1  0
 18 56  1  0
 18 57  1  0
 19 20  1  0
 19 58  1  0
 19 59  1  0
 20 24  1  0
 20 21  1  0
 20 25  1  0
 21 22  1  0
 21 60  1  0
 21 61  1  0
 22 23  1  0
 22 62  1  0
 22 63  1  0
 23 24  1  0
 23 64  1  0
 23 65  1  0
 24 66  1  0
 24 67  1  0
 25 26  1  0
 25 68  1  0
 25 69  1  0
 26 70  1  0
 26 71  1  0
M  CHG  2   2   1  20   1
M  END
>  <i_m_ct_stereo_status>  (76) 
1

>  <s_m_source_file>  (76) 
/var/tmp/pbs.5076255.sched01/tmpr7id634h/0ay6m0hv_.sdf

>  <i_m_source_file_index>  (76) 
29

>  <i_lp_mmshare_version>  (76) 
48012

>  <i_f3d_flags>  (76) 
0

>  <s_epik_input>  (76) 
W0NIM11bTitdKFtDSDNdKShbQ0gzXSlbQ0gyXVtDSDJdW0NIMl1bQ0gyXVtDSDJdW0NIMl1bQ0gyXVtDSDJdW0NIMl1bQ0gyXUMoPU8pTihbQ0gyXVtDSDJdMSlbQ0gyXVtDSDJdW04rXTEyW0NIMl1bQ0gyXVtDSDJdW0NIMl0y

>  <s_epik_cmdline>  (76) 
J2VwaWtfcHl0aG9uJywgJy1waHQnLCAnMi4wJywgJy1waCcsICc3LjAnLCAnLXRuJywgJzgnLCAnLW1hJywgJzIwMCcsICctaW1hZScsICc8aW5maWxlLm1hZT4nLCAnLW9tYWUnLCAnPG91dGZpbGUubWFlPic=

>  <r_lp_tautomer_probability>  (76) 
1

>  <r_epik_Ionization_Penalty>  (76) 
2.58775e-13

>  <r_epik_Ionization_Penalty_Charging>  (76) 
0

>  <r_epik_Ionization_Penalty_Neutral>  (76) 
2.58775e-13

>  <r_epik_State_Penalty>  (76) 
-0

>  <r_epik_Charging_Adjusted_Penalty>  (76) 
0

>  <i_epik_Tot_Q>  (76) 
2

>  <i_epik_Tot_abs_Q>  (76) 
2

>  <s_lp_Force_Field>  (76) 
OPLS3e

>  <r_lp_Energy>  (76) 
42.342

>  <b_lp_Chiralities_Consistent>  (76) 
1

>  <s_lp_Variant>  (76) 
18:0-1

>  <s_i_glide_gridfile>  (76) 
pfpi4k_grid

>  <i_i_glide_lignum>  (76) 
29

>  <i_i_glide_rotatable_bonds>  (76) 
12

>  <r_i_docking_score>  (76) 
-1.72174

>  <r_i_glide_ligand_efficiency>  (76) 
-0.0662208

>  <r_i_glide_ligand_efficiency_sa>  (76) 
-0.196179

>  <r_i_glide_ligand_efficiency_ln>  (76) 
-0.404345

>  <r_i_glide_gscore>  (76) 
-1.72174

>  <r_i_glide_lipo>  (76) 
-0.307673

>  <r_i_glide_hbond>  (76) 
-0.108536

>  <r_i_glide_metal>  (76) 
-0

>  <r_i_glide_rewards>  (76) 
-0.930755

>  <r_i_glide_evdw>  (76) 
-19.7183

>  <r_i_glide_ecoul>  (76) 
-5.10896

>  <r_i_glide_erotb>  (76) 
1.42525

>  <r_i_glide_esite>  (76) 
-0.0477639

>  <r_i_glide_emodel>  (76) 
-27.2822

>  <r_i_glide_energy>  (76) 
-24.8273

>  <r_i_glide_einternal>  (76) 
2.78407

>  <r_i_glide_intrahb_reward>  (76) 
-0

>  <i_i_glide_confnum>  (76) 
3

>  <i_i_glide_posenum>  (76) 
2

>  <r_i_glide_eff_state_penalty>  (76) 
0

>  <ligand_id>  (76) 
18

>  <original_smiles>  (76) 
C[N+](C)(C)CCCCCCCCCCC(=O)N1CC[N+]2(CCCC2)CC1

>  <smiles>  (76) 
[H]C([H])(C(=O)N1C([H])([H])C([H])([H])[N+]2(C([H])([H])C1([H])[H])C([H])([H])C([H])([H])C([H])([H])C2([H])[H])C([H])([H])C([H])([H])C([H])([H])C([H])([H])C([H])([H])C([H])([H])C([H])([H])C([H])([H])C([H])([H])[N+](C([H])([H])[H])(C([H])([H])[H])C([H])([H])[H]

$$$$
19:0:0
     RDKit          3D

 16 17  0  0  1  0  0  0  0  0999 V2000
    2.5430    3.0935    2.5965 N   0  0  0  0  0  0  0  0  0  0  0  0
    1.8000    2.0749    3.1684 C   0  0  0  0  0  0  0  0  0  0  0  0
    2.2538    0.9512    3.7301 N   0  0  0  0  0  0  0  0  0  0  0  0
    1.0885    0.3621    4.1861 C   0  0  0  0  0  0  0  0  0  0  0  0
    0.8382   -0.8381    4.8860 C   0  0  0  0  0  0  0  0  0  0  0  0
   -0.4795   -1.2016    5.2342 C   0  0  0  0  0  0  0  0  0  0  0  0
   -0.7583   -2.6689    6.0876 Cl  0  0  0  0  0  0  0  0  0  0  0  0
   -1.5681   -0.3721    4.8923 C   0  0  0  0  0  0  0  0  0  0  0  0
   -1.3406    0.8349    4.1955 C   0  0  0  0  0  0  0  0  0  0  0  0
   -0.0203    1.1737    3.8583 C   0  0  0  0  0  0  0  0  0  0  0  0
    0.4500    2.2895    3.1946 O   0  0  0  0  0  0  0  0  0  0  0  0
    3.5435    2.9858    2.4470 H   0  0  0  0  0  0  0  0  0  0  0  0
    1.6714   -1.4681    5.1518 H   0  0  0  0  0  0  0  0  0  0  0  0
   -2.5781   -0.6601    5.1486 H   0  0  0  0  0  0  0  0  0  0  0  0
   -2.1584    1.4827    3.9217 H   0  0  0  0  0  0  0  0  0  0  0  0
    2.0744    3.8340    2.0827 H   0  0  0  0  0  0  0  0  0  0  0  0
  1  2  1  0
  1 12  1  0
  1 16  1  0
  2 11  1  0
  2  3  2  0
  3  4  1  0
  4 10  2  0
  4  5  1  0
  5  6  2  0
  5 13  1  0
  6  7  1  0
  6  8  1  0
  8  9  2  0
  8 14  1  0
  9 10  1  0
  9 15  1  0
 10 11  1  0
M  END
>  <i_m_ct_stereo_status>  (77) 
1

>  <s_m_source_file>  (77) 
/var/tmp/pbs.5076255.sched01/tmpr7id634h/0ay6m0hv_.sdf

>  <i_m_source_file_index>  (77) 
30

>  <i_lp_mmshare_version>  (77) 
48012

>  <i_f3d_flags>  (77) 
0

>  <s_epik_input>  (77) 
W0hdL049YyhcW25IXTEpb2MoYzEyKVtjSF1bY0hdYyhDbClbY0hdMg==

>  <s_epik_cmdline>  (77) 
J2VwaWtfcHl0aG9uJywgJy1waHQnLCAnMi4wJywgJy1waCcsICc3LjAnLCAnLXRuJywgJzgnLCAnLW1hJywgJzIwMCcsICctaW1hZScsICc8aW5maWxlLm1hZT4nLCAnLW9tYWUnLCAnPG91dGZpbGUubWFlPic=

>  <r_lp_tautomer_probability>  (77) 
1

>  <r_epik_Ionization_Penalty>  (77) 
2.28164e-05

>  <r_epik_Ionization_Penalty_Charging>  (77) 
0

>  <r_epik_Ionization_Penalty_Neutral>  (77) 
2.28164e-05

>  <r_epik_State_Penalty>  (77) 
-0

>  <r_epik_Charging_Adjusted_Penalty>  (77) 
0

>  <i_epik_Tot_Q>  (77) 
0

>  <i_epik_Tot_abs_Q>  (77) 
0

>  <s_lp_Force_Field>  (77) 
OPLS3e

>  <r_lp_Energy>  (77) 
3.24212

>  <b_lp_Chiralities_Consistent>  (77) 
1

>  <s_lp_Variant>  (77) 
19:0-1

>  <s_i_glide_gridfile>  (77) 
pfpi4k_grid

>  <i_i_glide_lignum>  (77) 
30

>  <i_i_glide_rotatable_bonds>  (77) 
0

>  <r_i_docking_score>  (77) 
-3.72907

>  <r_i_glide_ligand_efficiency>  (77) 
-0.339007

>  <r_i_glide_ligand_efficiency_sa>  (77) 
-0.753944

>  <r_i_glide_ligand_efficiency_ln>  (77) 
-1.09747

>  <r_i_glide_gscore>  (77) 
-3.72907

>  <r_i_glide_lipo>  (77) 
0

>  <r_i_glide_hbond>  (77) 
-0.324601

>  <r_i_glide_metal>  (77) 
-0

>  <r_i_glide_rewards>  (77) 
-2.25

>  <r_i_glide_evdw>  (77) 
-12.0649

>  <r_i_glide_ecoul>  (77) 
-3.30786

>  <r_i_glide_erotb>  (77) 
0

>  <r_i_glide_esite>  (77) 
-0.0550479

>  <r_i_glide_emodel>  (77) 
-19.4802

>  <r_i_glide_energy>  (77) 
-15.3727

>  <r_i_glide_einternal>  (77) 
0

>  <r_i_glide_intrahb_reward>  (77) 
-0

>  <i_i_glide_confnum>  (77) 
2

>  <i_i_glide_posenum>  (77) 
20

>  <r_i_glide_eff_state_penalty>  (77) 
0

>  <ligand_id>  (77) 
19

>  <original_smiles>  (77) 
N=c1[nH]c2cc(Cl)ccc2o1

>  <smiles>  (77) 
[H]c1c(Cl)c([H])c2nc(N([H])[H])oc2c1[H]

$$$$
19:0:1
     RDKit          3D

 16 17  0  0  1  0  0  0  0  0999 V2000
    1.7296   -0.5819    1.6833 N   0  0  0  0  0  0  0  0  0  0  0  0
    1.0121    0.1556    2.5886 C   0  0  0  0  0  0  0  0  0  0  0  0
    1.2628    0.3084    3.8898 N   0  0  0  0  0  0  0  0  0  0  0  0
    0.2188    1.1223    4.2914 C   0  0  0  0  0  0  0  0  0  0  0  0
   -0.1203    1.6653    5.5438 C   0  0  0  0  0  0  0  0  0  0  0  0
   -1.2707    2.4763    5.6876 C   0  0  0  0  0  0  0  0  0  0  0  0
   -1.6677    3.1277    7.2351 Cl  0  0  0  0  0  0  0  0  0  0  0  0
   -2.0948    2.7475    4.5723 C   0  0  0  0  0  0  0  0  0  0  0  0
   -1.7722    2.2153    3.3077 C   0  0  0  0  0  0  0  0  0  0  0  0
   -0.6195    1.4087    3.1928 C   0  0  0  0  0  0  0  0  0  0  0  0
   -0.1094    0.7616    2.0837 O   0  0  0  0  0  0  0  0  0  0  0  0
    2.5693   -1.0677    1.9472 H   0  0  0  0  0  0  0  0  0  0  0  0
    0.5187    1.4518    6.3841 H   0  0  0  0  0  0  0  0  0  0  0  0
   -2.9857    3.3500    4.6949 H   0  0  0  0  0  0  0  0  0  0  0  0
   -2.3949    2.4059    2.4480 H   0  0  0  0  0  0  0  0  0  0  0  0
    1.4085   -0.6629    0.7048 H   0  0  0  0  0  0  0  0  0  0  0  0
  1  2  1  0
  1 12  1  0
  1 16  1  0
  2 11  1  0
  2  3  2  0
  3  4  1  0
  4 10  2  0
  4  5  1  0
  5  6  2  0
  5 13  1  0
  6  7  1  0
  6  8  1  0
  8  9  2  0
  8 14  1  0
  9 10  1  0
  9 15  1  0
 10 11  1  0
M  END
>  <i_m_ct_stereo_status>  (78) 
1

>  <s_m_source_file>  (78) 
/var/tmp/pbs.5076255.sched01/tmpr7id634h/0ay6m0hv_.sdf

>  <i_m_source_file_index>  (78) 
30

>  <i_lp_mmshare_version>  (78) 
48012

>  <i_f3d_flags>  (78) 
0

>  <s_epik_input>  (78) 
W0hdL049YyhcW25IXTEpb2MoYzEyKVtjSF1bY0hdYyhDbClbY0hdMg==

>  <s_epik_cmdline>  (78) 
J2VwaWtfcHl0aG9uJywgJy1waHQnLCAnMi4wJywgJy1waCcsICc3LjAnLCAnLXRuJywgJzgnLCAnLW1hJywgJzIwMCcsICctaW1hZScsICc8aW5maWxlLm1hZT4nLCAnLW9tYWUnLCAnPG91dGZpbGUubWFlPic=

>  <r_lp_tautomer_probability>  (78) 
1

>  <r_epik_Ionization_Penalty>  (78) 
2.28164e-05

>  <r_epik_Ionization_Penalty_Charging>  (78) 
0

>  <r_epik_Ionization_Penalty_Neutral>  (78) 
2.28164e-05

>  <r_epik_State_Penalty>  (78) 
-0

>  <r_epik_Charging_Adjusted_Penalty>  (78) 
0

>  <i_epik_Tot_Q>  (78) 
0

>  <i_epik_Tot_abs_Q>  (78) 
0

>  <s_lp_Force_Field>  (78) 
OPLS3e

>  <r_lp_Energy>  (78) 
3.24212

>  <b_lp_Chiralities_Consistent>  (78) 
1

>  <s_lp_Variant>  (78) 
19:0-1

>  <s_i_glide_gridfile>  (78) 
pfpi4k_grid

>  <i_i_glide_lignum>  (78) 
30

>  <i_i_glide_rotatable_bonds>  (78) 
0

>  <r_i_docking_score>  (78) 
-3.69403

>  <r_i_glide_ligand_efficiency>  (78) 
-0.335821

>  <r_i_glide_ligand_efficiency_sa>  (78) 
-0.746858

>  <r_i_glide_ligand_efficiency_ln>  (78) 
-1.08715

>  <r_i_glide_gscore>  (78) 
-3.69403

>  <r_i_glide_lipo>  (78) 
-0.0437971

>  <r_i_glide_hbond>  (78) 
-0.16

>  <r_i_glide_metal>  (78) 
-0

>  <r_i_glide_rewards>  (78) 
-2.25

>  <r_i_glide_evdw>  (78) 
-12.4045

>  <r_i_glide_ecoul>  (78) 
-3.47838

>  <r_i_glide_erotb>  (78) 
0

>  <r_i_glide_esite>  (78) 
-0.0982464

>  <r_i_glide_emodel>  (78) 
-19.955

>  <r_i_glide_energy>  (78) 
-15.8829

>  <r_i_glide_einternal>  (78) 
0

>  <r_i_glide_intrahb_reward>  (78) 
-0

>  <i_i_glide_confnum>  (78) 
2

>  <i_i_glide_posenum>  (78) 
12

>  <r_i_glide_eff_state_penalty>  (78) 
0

>  <ligand_id>  (78) 
19

>  <original_smiles>  (78) 
N=c1[nH]c2cc(Cl)ccc2o1

>  <smiles>  (78) 
[H]c1c(Cl)c([H])c2nc(N([H])[H])oc2c1[H]

$$$$
19:0:2
     RDKit          3D

 16 17  0  0  1  0  0  0  0  0999 V2000
    2.1858    0.1144    1.2790 N   0  0  0  0  0  0  0  0  0  0  0  0
    1.4853    0.8546    2.2088 C   0  0  0  0  0  0  0  0  0  0  0  0
    1.9480    1.3650    3.3559 N   0  0  0  0  0  0  0  0  0  0  0  0
    0.8206    1.9734    3.8736 C   0  0  0  0  0  0  0  0  0  0  0  0
    0.5935    2.6883    5.0683 C   0  0  0  0  0  0  0  0  0  0  0  0
   -0.6878    3.2049    5.3676 C   0  0  0  0  0  0  0  0  0  0  0  0
   -0.9319    4.0757    6.8343 Cl  0  0  0  0  0  0  0  0  0  0  0  0
   -1.7635    3.0094    4.4725 C   0  0  0  0  0  0  0  0  0  0  0  0
   -1.5583    2.2999    3.2689 C   0  0  0  0  0  0  0  0  0  0  0  0
   -0.2739    1.7918    2.9974 C   0  0  0  0  0  0  0  0  0  0  0  0
    0.1622    1.0498    1.9138 O   0  0  0  0  0  0  0  0  0  0  0  0
    3.1744   -0.0672    1.3858 H   0  0  0  0  0  0  0  0  0  0  0  0
    1.4166    2.8260    5.7456 H   0  0  0  0  0  0  0  0  0  0  0  0
   -2.7410    3.3962    4.7091 H   0  0  0  0  0  0  0  0  0  0  0  0
   -2.3611    2.1460    2.5663 H   0  0  0  0  0  0  0  0  0  0  0  0
    1.7187   -0.2300    0.4329 H   0  0  0  0  0  0  0  0  0  0  0  0
  1  2  1  0
  1 12  1  0
  1 16  1  0
  2 11  1  0
  2  3  2  0
  3  4  1  0
  4 10  2  0
  4  5  1  0
  5  6  2  0
  5 13  1  0
  6  7  1  0
  6  8  1  0
  8  9  2  0
  8 14  1  0
  9 10  1  0
  9 15  1  0
 10 11  1  0
M  END
>  <i_m_ct_stereo_status>  (79) 
1

>  <s_m_source_file>  (79) 
/var/tmp/pbs.5076255.sched01/tmpr7id634h/0ay6m0hv_.sdf

>  <i_m_source_file_index>  (79) 
30

>  <i_lp_mmshare_version>  (79) 
48012

>  <i_f3d_flags>  (79) 
0

>  <s_epik_input>  (79) 
W0hdL049YyhcW25IXTEpb2MoYzEyKVtjSF1bY0hdYyhDbClbY0hdMg==

>  <s_epik_cmdline>  (79) 
J2VwaWtfcHl0aG9uJywgJy1waHQnLCAnMi4wJywgJy1waCcsICc3LjAnLCAnLXRuJywgJzgnLCAnLW1hJywgJzIwMCcsICctaW1hZScsICc8aW5maWxlLm1hZT4nLCAnLW9tYWUnLCAnPG91dGZpbGUubWFlPic=

>  <r_lp_tautomer_probability>  (79) 
1

>  <r_epik_Ionization_Penalty>  (79) 
2.28164e-05

>  <r_epik_Ionization_Penalty_Charging>  (79) 
0

>  <r_epik_Ionization_Penalty_Neutral>  (79) 
2.28164e-05

>  <r_epik_State_Penalty>  (79) 
-0

>  <r_epik_Charging_Adjusted_Penalty>  (79) 
0

>  <i_epik_Tot_Q>  (79) 
0

>  <i_epik_Tot_abs_Q>  (79) 
0

>  <s_lp_Force_Field>  (79) 
OPLS3e

>  <r_lp_Energy>  (79) 
3.24212

>  <b_lp_Chiralities_Consistent>  (79) 
1

>  <s_lp_Variant>  (79) 
19:0-1

>  <s_i_glide_gridfile>  (79) 
pfpi4k_grid

>  <i_i_glide_lignum>  (79) 
30

>  <i_i_glide_rotatable_bonds>  (79) 
0

>  <r_i_docking_score>  (79) 
-3.56996

>  <r_i_glide_ligand_efficiency>  (79) 
-0.324542

>  <r_i_glide_ligand_efficiency_sa>  (79) 
-0.721774

>  <r_i_glide_ligand_efficiency_ln>  (79) 
-1.05064

>  <r_i_glide_gscore>  (79) 
-3.56996

>  <r_i_glide_lipo>  (79) 
0

>  <r_i_glide_hbond>  (79) 
-0.16

>  <r_i_glide_metal>  (79) 
-0

>  <r_i_glide_rewards>  (79) 
-2.25

>  <r_i_glide_evdw>  (79) 
-12.7371

>  <r_i_glide_ecoul>  (79) 
-3.0336

>  <r_i_glide_erotb>  (79) 
0

>  <r_i_glide_esite>  (79) 
-0.0680637

>  <r_i_glide_emodel>  (79) 
-19.7084

>  <r_i_glide_energy>  (79) 
-15.7707

>  <r_i_glide_einternal>  (79) 
0

>  <r_i_glide_intrahb_reward>  (79) 
-0

>  <i_i_glide_confnum>  (79) 
1

>  <i_i_glide_posenum>  (79) 
15

>  <r_i_glide_eff_state_penalty>  (79) 
0

>  <ligand_id>  (79) 
19

>  <original_smiles>  (79) 
N=c1[nH]c2cc(Cl)ccc2o1

>  <smiles>  (79) 
[H]c1c(Cl)c([H])c2nc(N([H])[H])oc2c1[H]

$$$$
20:0:0
     RDKit          3D

 31 34  0  0  1  0  0  0  0  0999 V2000
    3.6722   -1.0966   -2.6134 C   0  0  0  0  0  0  0  0  0  0  0  0
    4.4218   -1.7841   -1.4572 C   0  0  2  0  0  0  0  0  0  0  0  0
    5.7627   -1.8849   -1.9120 O   0  0  0  0  0  0  0  0  0  0  0  0
    6.4969   -3.0319   -1.5265 C   0  0  0  0  0  0  0  0  0  0  0  0
    5.9504   -3.7378   -0.2725 C   0  0  1  0  0  0  0  0  0  0  0  0
    5.8292   -2.8506    1.0321 C   0  0  1  0  0  0  0  0  0  0  0  0
    6.1873   -1.3822    0.9962 N   0  0  0  0  0  0  0  0  0  0  0  0
    5.4287   -0.5818    1.5349 O   0  0  0  0  0  0  0  0  0  0  0  0
    7.2558   -1.0699    0.4932 O   0  0  0  0  0  0  0  0  0  0  0  0
    4.4273   -3.1644    1.6008 C   0  0  2  0  0  0  0  0  0  0  0  0
    4.6646   -4.6468    2.0817 C   0  0  0  0  0  0  0  0  0  0  0  0
    4.8000   -5.4629    0.7257 C   0  0  0  0  0  0  0  0  0  0  0  0
    4.5692   -4.5059   -0.5773 C   0  0  2  0  0  0  0  0  0  0  0  0
    3.0714   -4.4000    0.0625 C   0  0  0  0  0  0  0  0  0  0  0  0
    2.0555   -5.0587    0.1958 O   0  0  0  0  0  0  0  0  0  0  0  0
    3.4344   -3.1623    0.4527 N   0  0  0  0  0  0  0  0  0  0  0  0
    3.7986   -3.1398   -1.0024 C   0  0  1  0  0  0  0  0  0  0  0  0
    2.6195   -0.9526   -2.3706 H   0  0  0  0  0  0  0  0  0  0  0  0
    3.7337   -1.6513   -3.5492 H   0  0  0  0  0  0  0  0  0  0  0  0
    4.0931   -0.1076   -2.7986 H   0  0  0  0  0  0  0  0  0  0  0  0
    4.3861   -1.0570   -0.6549 H   0  0  0  0  0  0  0  0  0  0  0  0
    6.5057   -3.7365   -2.3608 H   0  0  0  0  0  0  0  0  0  0  0  0
    7.5392   -2.7459   -1.3784 H   0  0  0  0  0  0  0  0  0  0  0  0
    6.7683   -4.4352   -0.0826 H   0  0  0  0  0  0  0  0  0  0  0  0
    6.5943   -3.1817    1.7357 H   0  0  0  0  0  0  0  0  0  0  0  0
    4.1225   -2.5300    2.4353 H   0  0  0  0  0  0  0  0  0  0  0  0
    5.5423   -4.7681    2.7259 H   0  0  0  0  0  0  0  0  0  0  0  0
    3.8125   -5.0052    2.6653 H   0  0  0  0  0  0  0  0  0  0  0  0
    5.7642   -5.9749    0.7242 H   0  0  0  0  0  0  0  0  0  0  0  0
    4.1606   -6.3559    0.7532 H   0  0  0  0  0  0  0  0  0  0  0  0
    2.9998   -3.2878   -1.7774 H   0  0  0  0  0  0  0  0  0  0  0  0
  1  2  1  0
  1 18  1  0
  1 19  1  0
  1 20  1  0
  2 17  1  0
  2  3  1  0
  2 21  1  1
  3  4  1  0
  4  5  1  0
  4 22  1  0
  4 23  1  0
  5 13  1  0
  5  6  1  0
  5 24  1  1
  6  7  1  0
  6 10  1  0
  6 25  1  1
  7  8  2  0
  7  9  1  0
 10 16  1  0
 10 11  1  0
 10 26  1  1
 11 12  1  0
 11 27  1  0
 11 28  1  0
 13 12  1  1
 12 29  1  0
 12 30  1  0
 13 17  1  0
 13 14  1  0
 14 15  2  0
 14 16  1  0
 16 17  1  0
 17 31  1  6
M  CHG  2   7   1   9  -1
M  END
>  <i_m_ct_stereo_status>  (80) 
1

>  <s_m_source_file>  (80) 
/var/tmp/pbs.5076255.sched01/tmpr7id634h/0ay6m0hv_.sdf

>  <i_m_source_file_index>  (80) 
31

>  <i_lp_mmshare_version>  (80) 
48012

>  <i_f3d_flags>  (80) 
2

>  <s_epik_input>  (80) 
QzEyM1tDQEhdNFtDSDJdT1tDQEBIXShbQ0gzXSlbQ0BASF0zTihDMj1PKVtDQEhdKFtDQEBIXTRbTitdKD1PKVtPLV0pW0NIMl1bQ0gyXTE=

>  <s_epik_cmdline>  (80) 
J2VwaWtfcHl0aG9uJywgJy1waHQnLCAnMi4wJywgJy1waCcsICc3LjAnLCAnLXRuJywgJzgnLCAnLW1hJywgJzIwMCcsICctaW1hZScsICc8aW5maWxlLm1hZT4nLCAnLW9tYWUnLCAnPG91dGZpbGUubWFlPic=

>  <r_epik_Ionization_Penalty>  (80) 
0.00527331

>  <r_epik_Ionization_Penalty_Charging>  (80) 
0

>  <r_epik_Ionization_Penalty_Neutral>  (80) 
0.00527331

>  <r_epik_State_Penalty>  (80) 
0.00384752

>  <r_epik_Charging_Adjusted_Penalty>  (80) 
0.00384752

>  <i_epik_Tot_Q>  (80) 
0

>  <i_epik_Tot_abs_Q>  (80) 
2

>  <s_lp_Force_Field>  (80) 
OPLS3e

>  <r_lp_Energy>  (80) 
213.512

>  <b_lp_Chiralities_Consistent>  (80) 
0

>  <s_lp_Variant>  (80) 
20:0-1

>  <s_i_glide_gridfile>  (80) 
pfpi4k_grid

>  <i_i_glide_lignum>  (80) 
31

>  <i_i_glide_rotatable_bonds>  (80) 
1

>  <r_i_docking_score>  (80) 
-3.92265

>  <r_i_glide_ligand_efficiency>  (80) 
-0.230744

>  <r_i_glide_ligand_efficiency_sa>  (80) 
-0.593309

>  <r_i_glide_ligand_efficiency_ln>  (80) 
-1.02333

>  <r_i_glide_gscore>  (80) 
-3.92265

>  <r_i_glide_lipo>  (80) 
-0.29014

>  <r_i_glide_hbond>  (80) 
-0.0560125

>  <r_i_glide_metal>  (80) 
-0

>  <r_i_glide_rewards>  (80) 
-1.99728

>  <r_i_glide_evdw>  (80) 
-22.0503

>  <r_i_glide_ecoul>  (80) 
-2.56873

>  <r_i_glide_erotb>  (80) 
0

>  <r_i_glide_esite>  (80) 
-0.0913953

>  <r_i_glide_emodel>  (80) 
-30.9635

>  <r_i_glide_energy>  (80) 
-24.619

>  <r_i_glide_einternal>  (80) 
0.753026

>  <r_i_glide_intrahb_reward>  (80) 
-0

>  <i_i_glide_confnum>  (80) 
1

>  <i_i_glide_posenum>  (80) 
28

>  <r_i_glide_eff_state_penalty>  (80) 
0

>  <ligand_id>  (80) 
20

>  <original_smiles>  (80) 
CC1OCC2C([N+](=O)[O-])C3CCC24C(=O)N3C14

>  <smiles>  (80) 
[H]C([H])([H])C1([H])OC([H])([H])C2([H])C([H])([N+](=O)[O-])C3([H])N4C(=O)C2(C([H])([H])C3([H])[H])C41[H]

$$$$
20:0:1
     RDKit          3D

 31 34  0  0  1  0  0  0  0  0999 V2000
    2.4218   -3.0492   -2.6677 C   0  0  0  0  0  0  0  0  0  0  0  0
    3.2829   -2.9209   -1.3910 C   0  0  2  0  0  0  0  0  0  0  0  0
    4.6360   -2.8740   -1.8633 O   0  0  0  0  0  0  0  0  0  0  0  0
    5.6188   -3.5505   -1.1085 C   0  0  0  0  0  0  0  0  0  0  0  0
    5.2611   -3.7502    0.3701 C   0  0  1  0  0  0  0  0  0  0  0  0
    4.9198   -2.4324    1.1750 C   0  0  1  0  0  0  0  0  0  0  0  0
    4.9996   -1.0733    0.5393 N   0  0  0  0  0  0  0  0  0  0  0  0
    6.1034   -0.7008    0.1730 O   0  0  0  0  0  0  0  0  0  0  0  0
    3.9707   -0.4228    0.4352 O   0  0  0  0  0  0  0  0  0  0  0  0
    3.6299   -2.7409    1.9335 C   0  0  2  0  0  0  0  0  0  0  0  0
    4.2150   -3.7550    2.9951 C   0  0  0  0  0  0  0  0  0  0  0  0
    4.5467   -5.0486    2.1306 C   0  0  0  0  0  0  0  0  0  0  0  0
    4.1050   -4.8512    0.5729 C   0  0  2  0  0  0  0  0  0  0  0  0
    2.6099   -4.7864    1.2537 C   0  0  0  0  0  0  0  0  0  0  0  0
    1.7615   -5.4979    1.7379 O   0  0  0  0  0  0  0  0  0  0  0  0
    2.6755   -3.4716    1.0046 N   0  0  0  0  0  0  0  0  0  0  0  0
    3.0133   -4.0478   -0.3368 C   0  0  1  0  0  0  0  0  0  0  0  0
    1.3781   -3.0195   -2.3850 H   0  0  0  0  0  0  0  0  0  0  0  0
    2.5971   -3.9093   -3.3108 H   0  0  0  0  0  0  0  0  0  0  0  0
    2.6064   -2.1620   -3.2665 H   0  0  0  0  0  0  0  0  0  0  0  0
    3.0285   -1.9506   -1.0018 H   0  0  0  0  0  0  0  0  0  0  0  0
    5.7680   -4.5569   -1.5262 H   0  0  0  0  0  0  0  0  0  0  0  0
    6.5729   -3.0301   -1.1956 H   0  0  0  0  0  0  0  0  0  0  0  0
    6.2211   -4.0918    0.7647 H   0  0  0  0  0  0  0  0  0  0  0  0
    5.7254   -2.2649    1.8718 H   0  0  0  0  0  0  0  0  0  0  0  0
    3.2008   -1.8646    2.4243 H   0  0  0  0  0  0  0  0  0  0  0  0
    5.1021   -3.3898    3.5448 H   0  0  0  0  0  0  0  0  0  0  0  0
    3.4744   -3.9875    3.7575 H   0  0  0  0  0  0  0  0  0  0  0  0
    5.6076   -5.2955    2.2661 H   0  0  0  0  0  0  0  0  0  0  0  0
    4.1268   -5.9502    2.6198 H   0  0  0  0  0  0  0  0  0  0  0  0
    2.2730   -4.6968   -0.8599 H   0  0  0  0  0  0  0  0  0  0  0  0
  1  2  1  0
  1 18  1  0
  1 19  1  0
  1 20  1  0
  2 17  1  0
  2  3  1  0
  2 21  1  1
  3  4  1  0
  4  5  1  0
  4 22  1  0
  4 23  1  0
  5 13  1  0
  5  6  1  0
  5 24  1  1
  6  7  1  0
  6 10  1  0
  6 25  1  1
  7  8  2  0
  7  9  1  0
 10 16  1  0
 10 11  1  0
 10 26  1  1
 11 12  1  0
 11 27  1  0
 11 28  1  0
 13 12  1  1
 12 29  1  0
 12 30  1  0
 13 17  1  0
 13 14  1  0
 14 15  2  0
 14 16  1  0
 16 17  1  0
 17 31  1  6
M  CHG  2   7   1   9  -1
M  END
>  <i_m_ct_stereo_status>  (81) 
1

>  <s_m_source_file>  (81) 
/var/tmp/pbs.5076255.sched01/tmpr7id634h/0ay6m0hv_.sdf

>  <i_m_source_file_index>  (81) 
31

>  <i_lp_mmshare_version>  (81) 
48012

>  <i_f3d_flags>  (81) 
2

>  <s_epik_input>  (81) 
QzEyM1tDQEhdNFtDSDJdT1tDQEBIXShbQ0gzXSlbQ0BASF0zTihDMj1PKVtDQEhdKFtDQEBIXTRbTitdKD1PKVtPLV0pW0NIMl1bQ0gyXTE=

>  <s_epik_cmdline>  (81) 
J2VwaWtfcHl0aG9uJywgJy1waHQnLCAnMi4wJywgJy1waCcsICc3LjAnLCAnLXRuJywgJzgnLCAnLW1hJywgJzIwMCcsICctaW1hZScsICc8aW5maWxlLm1hZT4nLCAnLW9tYWUnLCAnPG91dGZpbGUubWFlPic=

>  <r_epik_Ionization_Penalty>  (81) 
0.00527331

>  <r_epik_Ionization_Penalty_Charging>  (81) 
0

>  <r_epik_Ionization_Penalty_Neutral>  (81) 
0.00527331

>  <r_epik_State_Penalty>  (81) 
0.00384752

>  <r_epik_Charging_Adjusted_Penalty>  (81) 
0.00384752

>  <i_epik_Tot_Q>  (81) 
0

>  <i_epik_Tot_abs_Q>  (81) 
2

>  <s_lp_Force_Field>  (81) 
OPLS3e

>  <r_lp_Energy>  (81) 
213.512

>  <b_lp_Chiralities_Consistent>  (81) 
0

>  <s_lp_Variant>  (81) 
20:0-1

>  <s_i_glide_gridfile>  (81) 
pfpi4k_grid

>  <i_i_glide_lignum>  (81) 
31

>  <i_i_glide_rotatable_bonds>  (81) 
1

>  <r_i_docking_score>  (81) 
-3.35859

>  <r_i_glide_ligand_efficiency>  (81) 
-0.197564

>  <r_i_glide_ligand_efficiency_sa>  (81) 
-0.507993

>  <r_i_glide_ligand_efficiency_ln>  (81) 
-0.876182

>  <r_i_glide_gscore>  (81) 
-3.35859

>  <r_i_glide_lipo>  (81) 
-0.267978

>  <r_i_glide_hbond>  (81) 
-0.0410323

>  <r_i_glide_metal>  (81) 
-0

>  <r_i_glide_rewards>  (81) 
-1.90595

>  <r_i_glide_evdw>  (81) 
-18.9099

>  <r_i_glide_ecoul>  (81) 
-1.06772

>  <r_i_glide_erotb>  (81) 
0

>  <r_i_glide_esite>  (81) 
-0.0379744

>  <r_i_glide_emodel>  (81) 
-25.4039

>  <r_i_glide_energy>  (81) 
-19.9777

>  <r_i_glide_einternal>  (81) 
0.000637545

>  <r_i_glide_intrahb_reward>  (81) 
-0

>  <i_i_glide_confnum>  (81) 
2

>  <i_i_glide_posenum>  (81) 
23

>  <r_i_glide_eff_state_penalty>  (81) 
0

>  <ligand_id>  (81) 
20

>  <original_smiles>  (81) 
CC1OCC2C([N+](=O)[O-])C3CCC24C(=O)N3C14

>  <smiles>  (81) 
[H]C([H])([H])C1([H])OC([H])([H])C2([H])C([H])([N+](=O)[O-])C3([H])N4C(=O)C2(C([H])([H])C3([H])[H])C41[H]

$$$$
20:0:2
     RDKit          3D

 31 34  0  0  1  0  0  0  0  0999 V2000
    2.0008   -5.8045    0.4789 C   0  0  0  0  0  0  0  0  0  0  0  0
    3.1889   -4.8798    0.7938 C   0  0  2  0  0  0  0  0  0  0  0  0
    2.8809   -4.3712    2.0868 O   0  0  0  0  0  0  0  0  0  0  0  0
    3.3376   -3.0647    2.3992 C   0  0  0  0  0  0  0  0  0  0  0  0
    4.4684   -2.5405    1.4924 C   0  0  1  0  0  0  0  0  0  0  0  0
    5.7863   -3.4235    1.4736 C   0  0  1  0  0  0  0  0  0  0  0  0
    5.9052   -4.6882    2.2612 N   0  0  0  0  0  0  0  0  0  0  0  0
    5.7068   -4.6383    3.4805 O   0  0  0  0  0  0  0  0  0  0  0  0
    6.2545   -5.7168    1.6805 O   0  0  0  0  0  0  0  0  0  0  0  0
    6.1490   -3.5373   -0.0223 C   0  0  2  0  0  0  0  0  0  0  0  0
    6.5782   -2.0511   -0.2995 C   0  0  0  0  0  0  0  0  0  0  0  0
    5.2139   -1.2383   -0.2433 C   0  0  0  0  0  0  0  0  0  0  0  0
    3.9377   -2.2331   -0.0004 C   0  0  2  0  0  0  0  0  0  0  0  0
    4.3948   -2.7947   -1.4701 C   0  0  0  0  0  0  0  0  0  0  0  0
    4.4140   -2.4671   -2.6427 O   0  0  0  0  0  0  0  0  0  0  0  0
    4.8809   -3.8537   -0.8066 N   0  0  0  0  0  0  0  0  0  0  0  0
    3.4867   -3.7742   -0.2638 C   0  0  1  0  0  0  0  0  0  0  0  0
    2.1264   -6.2468   -0.5113 H   0  0  0  0  0  0  0  0  0  0  0  0
    1.0357   -5.3116    0.4886 H   0  0  0  0  0  0  0  0  0  0  0  0
    1.9654   -6.6133    1.2073 H   0  0  0  0  0  0  0  0  0  0  0  0
    4.0143   -5.5850    0.8474 H   0  0  0  0  0  0  0  0  0  0  0  0
    2.4880   -2.3747    2.3107 H   0  0  0  0  0  0  0  0  0  0  0  0
    3.6541   -3.0390    3.4460 H   0  0  0  0  0  0  0  0  0  0  0  0
    4.7226   -1.6256    2.0362 H   0  0  0  0  0  0  0  0  0  0  0  0
    6.5562   -2.8655    1.9907 H   0  0  0  0  0  0  0  0  0  0  0  0
    6.9650   -4.2242   -0.2157 H   0  0  0  0  0  0  0  0  0  0  0  0
    7.3227   -1.6567    0.4044 H   0  0  0  0  0  0  0  0  0  0  0  0
    7.0177   -1.9804   -1.2928 H   0  0  0  0  0  0  0  0  0  0  0  0
    5.3065   -0.4484    0.5083 H   0  0  0  0  0  0  0  0  0  0  0  0
    5.1100   -0.5833   -1.1224 H   0  0  0  0  0  0  0  0  0  0  0  0
    2.6024   -3.8761   -0.9537 H   0  0  0  0  0  0  0  0  0  0  0  0
  1  2  1  0
  1 18  1  0
  1 19  1  0
  1 20  1  0
  2 17  1  0
  2  3  1  0
  2 21  1  1
  3  4  1  0
  4  5  1  0
  4 22  1  0
  4 23  1  0
  5 13  1  0
  5  6  1  0
  5 24  1  1
  6  7  1  0
  6 10  1  0
  6 25  1  1
  7  8  2  0
  7  9  1  0
 10 16  1  0
 10 11  1  0
 10 26  1  1
 11 12  1  0
 11 27  1  0
 11 28  1  0
 13 12  1  1
 12 29  1  0
 12 30  1  0
 13 17  1  0
 13 14  1  0
 14 15  2  0
 14 16  1  0
 16 17  1  0
 17 31  1  6
M  CHG  2   7   1   9  -1
M  END
>  <i_m_ct_stereo_status>  (82) 
1

>  <s_m_source_file>  (82) 
/var/tmp/pbs.5076255.sched01/tmpr7id634h/0ay6m0hv_.sdf

>  <i_m_source_file_index>  (82) 
31

>  <i_lp_mmshare_version>  (82) 
48012

>  <i_f3d_flags>  (82) 
2

>  <s_epik_input>  (82) 
QzEyM1tDQEhdNFtDSDJdT1tDQEBIXShbQ0gzXSlbQ0BASF0zTihDMj1PKVtDQEhdKFtDQEBIXTRbTitdKD1PKVtPLV0pW0NIMl1bQ0gyXTE=

>  <s_epik_cmdline>  (82) 
J2VwaWtfcHl0aG9uJywgJy1waHQnLCAnMi4wJywgJy1waCcsICc3LjAnLCAnLXRuJywgJzgnLCAnLW1hJywgJzIwMCcsICctaW1hZScsICc8aW5maWxlLm1hZT4nLCAnLW9tYWUnLCAnPG91dGZpbGUubWFlPic=

>  <r_epik_Ionization_Penalty>  (82) 
0.00527331

>  <r_epik_Ionization_Penalty_Charging>  (82) 
0

>  <r_epik_Ionization_Penalty_Neutral>  (82) 
0.00527331

>  <r_epik_State_Penalty>  (82) 
0.00384752

>  <r_epik_Charging_Adjusted_Penalty>  (82) 
0.00384752

>  <i_epik_Tot_Q>  (82) 
0

>  <i_epik_Tot_abs_Q>  (82) 
2

>  <s_lp_Force_Field>  (82) 
OPLS3e

>  <r_lp_Energy>  (82) 
213.512

>  <b_lp_Chiralities_Consistent>  (82) 
0

>  <s_lp_Variant>  (82) 
20:0-1

>  <s_i_glide_gridfile>  (82) 
pfpi4k_grid

>  <i_i_glide_lignum>  (82) 
31

>  <i_i_glide_rotatable_bonds>  (82) 
1

>  <r_i_docking_score>  (82) 
-2.8514

>  <r_i_glide_ligand_efficiency>  (82) 
-0.167729

>  <r_i_glide_ligand_efficiency_sa>  (82) 
-0.43128

>  <r_i_glide_ligand_efficiency_ln>  (82) 
-0.743867

>  <r_i_glide_gscore>  (82) 
-2.8514

>  <r_i_glide_lipo>  (82) 
-0.163444

>  <r_i_glide_hbond>  (82) 
0

>  <r_i_glide_metal>  (82) 
-0

>  <r_i_glide_rewards>  (82) 
-1.85931

>  <r_i_glide_evdw>  (82) 
-17.2883

>  <r_i_glide_ecoul>  (82) 
0.335823

>  <r_i_glide_erotb>  (82) 
0

>  <r_i_glide_esite>  (82) 
-0.0146098

>  <r_i_glide_emodel>  (82) 
-21.5262

>  <r_i_glide_energy>  (82) 
-16.9525

>  <r_i_glide_einternal>  (82) 
0.272518

>  <r_i_glide_intrahb_reward>  (82) 
-0

>  <i_i_glide_confnum>  (82) 
1

>  <i_i_glide_posenum>  (82) 
2

>  <r_i_glide_eff_state_penalty>  (82) 
0

>  <ligand_id>  (82) 
20

>  <original_smiles>  (82) 
CC1OCC2C([N+](=O)[O-])C3CCC24C(=O)N3C14

>  <smiles>  (82) 
[H]C([H])([H])C1([H])OC([H])([H])C2([H])C([H])([N+](=O)[O-])C3([H])N4C(=O)C2(C([H])([H])C3([H])[H])C41[H]

$$$$
21:0:0
     RDKit          3D

 15 16  0  0  1  0  0  0  0  0999 V2000
   -5.7821   -9.2969   -7.4413 Cl  0  0  0  0  0  0  0  0  0  0  0  0
   -6.3138   -7.8590   -6.6468 C   0  0  0  0  0  0  0  0  0  0  0  0
   -5.6634   -7.4224   -5.4670 C   0  0  0  0  0  0  0  0  0  0  0  0
   -6.0747   -6.2722   -4.8305 C   0  0  0  0  0  0  0  0  0  0  0  0
   -7.1136   -5.5544   -5.3486 N   0  0  0  0  0  0  0  0  0  0  0  0
   -7.7206   -4.3867   -4.9227 C   0  0  0  0  0  0  0  0  0  0  0  0
   -8.7200   -4.1115   -5.8162 C   0  0  0  0  0  0  0  0  0  0  0  0
   -8.7570   -5.0716   -6.8183 N   0  0  0  0  0  0  0  0  0  0  0  0
   -7.7950   -5.9458   -6.5258 C   0  0  0  0  0  0  0  0  0  0  0  0
   -7.3633   -7.1381   -7.1671 C   0  0  0  0  0  0  0  0  0  0  0  0
   -4.8383   -8.0009   -5.0554 H   0  0  0  0  0  0  0  0  0  0  0  0
   -5.6181   -5.8970   -3.9206 H   0  0  0  0  0  0  0  0  0  0  0  0
   -7.3830   -3.8782   -4.0303 H   0  0  0  0  0  0  0  0  0  0  0  0
   -9.4215   -3.2877   -5.8244 H   0  0  0  0  0  0  0  0  0  0  0  0
   -7.8650   -7.4610   -8.0718 H   0  0  0  0  0  0  0  0  0  0  0  0
  1  2  1  0
  2 10  2  0
  2  3  1  0
  3  4  2  0
  3 11  1  0
  4  5  1  0
  4 12  1  0
  5  9  1  0
  5  6  1  0
  6  7  2  0
  6 13  1  0
  7  8  1  0
  7 14  1  0
  8  9  2  0
  9 10  1  0
 10 15  1  0
M  END
>  <i_m_ct_stereo_status>  (83) 
1

>  <s_m_source_file>  (83) 
/var/tmp/pbs.5076255.sched01/tmpr7id634h/0ay6m0hv_.sdf

>  <i_m_source_file_index>  (83) 
32

>  <i_lp_mmshare_version>  (83) 
48012

>  <i_f3d_flags>  (83) 
0

>  <s_epik_input>  (83) 
W2NIXTFbY0hdYyhDbClbY0hdYyhuMTIpbltjSF1bY0hdMg==

>  <s_epik_cmdline>  (83) 
J2VwaWtfcHl0aG9uJywgJy1waHQnLCAnMi4wJywgJy1waCcsICc3LjAnLCAnLXRuJywgJzgnLCAnLW1hJywgJzIwMCcsICctaW1hZScsICc8aW5maWxlLm1hZT4nLCAnLW9tYWUnLCAnPG91dGZpbGUubWFlPic=

>  <r_epik_Ionization_Penalty>  (83) 
0.0211369

>  <r_epik_Ionization_Penalty_Charging>  (83) 
0.0211369

>  <r_epik_Ionization_Penalty_Neutral>  (83) 
0

>  <r_epik_State_Penalty>  (83) 
0.0169819

>  <r_epik_Charging_Adjusted_Penalty>  (83) 
0.0381188

>  <i_epik_Tot_Q>  (83) 
0

>  <i_epik_Tot_abs_Q>  (83) 
0

>  <s_lp_Force_Field>  (83) 
OPLS3e

>  <r_lp_Energy>  (83) 
11.2375

>  <b_lp_Chiralities_Consistent>  (83) 
1

>  <s_lp_Variant>  (83) 
21:0-1

>  <s_i_glide_gridfile>  (83) 
pfpi4k_grid

>  <i_i_glide_lignum>  (83) 
32

>  <i_i_glide_rotatable_bonds>  (83) 
0

>  <r_i_docking_score>  (83) 
-6.42467

>  <r_i_glide_ligand_efficiency>  (83) 
-0.642467

>  <r_i_glide_ligand_efficiency_sa>  (83) 
-1.38415

>  <r_i_glide_ligand_efficiency_ln>  (83) 
-1.94534

>  <r_i_glide_gscore>  (83) 
-6.42467

>  <r_i_glide_lipo>  (83) 
-1.88915

>  <r_i_glide_hbond>  (83) 
0

>  <r_i_glide_metal>  (83) 
-0

>  <r_i_glide_rewards>  (83) 
-3.38599

>  <r_i_glide_evdw>  (83) 
-20.7836

>  <r_i_glide_ecoul>  (83) 
-0.735598

>  <r_i_glide_erotb>  (83) 
0

>  <r_i_glide_esite>  (83) 
0

>  <r_i_glide_emodel>  (83) 
-30.5554

>  <r_i_glide_energy>  (83) 
-21.5192

>  <r_i_glide_einternal>  (83) 
0

>  <r_i_glide_intrahb_reward>  (83) 
-0

>  <i_i_glide_confnum>  (83) 
2

>  <i_i_glide_posenum>  (83) 
28

>  <r_i_glide_eff_state_penalty>  (83) 
0

>  <ligand_id>  (83) 
21

>  <original_smiles>  (83) 
Clc1ccn2ccnc2c1

>  <smiles>  (83) 
[H]c1nc2c([H])c(Cl)c([H])c([H])n2c1[H]

$$$$
21:0:1
     RDKit          3D

 15 16  0  0  1  0  0  0  0  0999 V2000
   -5.0210   -7.9062   -5.6596 Cl  0  0  0  0  0  0  0  0  0  0  0  0
   -6.2358   -6.6786   -5.6480 C   0  0  0  0  0  0  0  0  0  0  0  0
   -6.1924   -5.6610   -4.6655 C   0  0  0  0  0  0  0  0  0  0  0  0
   -7.1400   -4.6621   -4.6450 C   0  0  0  0  0  0  0  0  0  0  0  0
   -8.1274   -4.6611   -5.5852 N   0  0  0  0  0  0  0  0  0  0  0  0
   -9.1950   -3.8039   -5.7871 C   0  0  0  0  0  0  0  0  0  0  0  0
   -9.8775   -4.2773   -6.8713 C   0  0  0  0  0  0  0  0  0  0  0  0
   -9.2543   -5.4042   -7.3919 N   0  0  0  0  0  0  0  0  0  0  0  0
   -8.2119   -5.6471   -6.5990 C   0  0  0  0  0  0  0  0  0  0  0  0
   -7.2287   -6.6740   -6.6004 C   0  0  0  0  0  0  0  0  0  0  0  0
   -5.4067   -5.6703   -3.9199 H   0  0  0  0  0  0  0  0  0  0  0  0
   -7.1503   -3.8671   -3.9039 H   0  0  0  0  0  0  0  0  0  0  0  0
   -9.3657   -2.9541   -5.1401 H   0  0  0  0  0  0  0  0  0  0  0  0
  -10.7756   -3.8941   -7.3337 H   0  0  0  0  0  0  0  0  0  0  0  0
   -7.2672   -7.4423   -7.3618 H   0  0  0  0  0  0  0  0  0  0  0  0
  1  2  1  0
  2 10  2  0
  2  3  1  0
  3  4  2  0
  3 11  1  0
  4  5  1  0
  4 12  1  0
  5  9  1  0
  5  6  1  0
  6  7  2  0
  6 13  1  0
  7  8  1  0
  7 14  1  0
  8  9  2  0
  9 10  1  0
 10 15  1  0
M  END
>  <i_m_ct_stereo_status>  (84) 
1

>  <s_m_source_file>  (84) 
/var/tmp/pbs.5076255.sched01/tmpr7id634h/0ay6m0hv_.sdf

>  <i_m_source_file_index>  (84) 
32

>  <i_lp_mmshare_version>  (84) 
48012

>  <i_f3d_flags>  (84) 
0

>  <s_epik_input>  (84) 
W2NIXTFbY0hdYyhDbClbY0hdYyhuMTIpbltjSF1bY0hdMg==

>  <s_epik_cmdline>  (84) 
J2VwaWtfcHl0aG9uJywgJy1waHQnLCAnMi4wJywgJy1waCcsICc3LjAnLCAnLXRuJywgJzgnLCAnLW1hJywgJzIwMCcsICctaW1hZScsICc8aW5maWxlLm1hZT4nLCAnLW9tYWUnLCAnPG91dGZpbGUubWFlPic=

>  <r_epik_Ionization_Penalty>  (84) 
0.0211369

>  <r_epik_Ionization_Penalty_Charging>  (84) 
0.0211369

>  <r_epik_Ionization_Penalty_Neutral>  (84) 
0

>  <r_epik_State_Penalty>  (84) 
0.0169819

>  <r_epik_Charging_Adjusted_Penalty>  (84) 
0.0381188

>  <i_epik_Tot_Q>  (84) 
0

>  <i_epik_Tot_abs_Q>  (84) 
0

>  <s_lp_Force_Field>  (84) 
OPLS3e

>  <r_lp_Energy>  (84) 
11.2375

>  <b_lp_Chiralities_Consistent>  (84) 
1

>  <s_lp_Variant>  (84) 
21:0-1

>  <s_i_glide_gridfile>  (84) 
pfpi4k_grid

>  <i_i_glide_lignum>  (84) 
32

>  <i_i_glide_rotatable_bonds>  (84) 
0

>  <r_i_docking_score>  (84) 
-6.30447

>  <r_i_glide_ligand_efficiency>  (84) 
-0.630447

>  <r_i_glide_ligand_efficiency_sa>  (84) 
-1.35826

>  <r_i_glide_ligand_efficiency_ln>  (84) 
-1.90895

>  <r_i_glide_gscore>  (84) 
-6.30447

>  <r_i_glide_lipo>  (84) 
-2.04754

>  <r_i_glide_hbond>  (84) 
0

>  <r_i_glide_metal>  (84) 
-0

>  <r_i_glide_rewards>  (84) 
-3.18207

>  <r_i_glide_evdw>  (84) 
-22.9343

>  <r_i_glide_ecoul>  (84) 
0.479117

>  <r_i_glide_erotb>  (84) 
0

>  <r_i_glide_esite>  (84) 
0

>  <r_i_glide_emodel>  (84) 
-31.3198

>  <r_i_glide_energy>  (84) 
-22.4552

>  <r_i_glide_einternal>  (84) 
0

>  <r_i_glide_intrahb_reward>  (84) 
-0

>  <i_i_glide_confnum>  (84) 
2

>  <i_i_glide_posenum>  (84) 
18

>  <r_i_glide_eff_state_penalty>  (84) 
0

>  <ligand_id>  (84) 
21

>  <original_smiles>  (84) 
Clc1ccn2ccnc2c1

>  <smiles>  (84) 
[H]c1nc2c([H])c(Cl)c([H])c([H])n2c1[H]

$$$$
21:0:2
     RDKit          3D

 15 16  0  0  1  0  0  0  0  0999 V2000
   -6.1883   -4.6507   -4.6554 Cl  0  0  0  0  0  0  0  0  0  0  0  0
   -7.5325   -4.9723   -5.6872 C   0  0  0  0  0  0  0  0  0  0  0  0
   -8.7294   -4.2248   -5.5566 C   0  0  0  0  0  0  0  0  0  0  0  0
   -9.7972   -4.4635   -6.3935 C   0  0  0  0  0  0  0  0  0  0  0  0
   -9.6891   -5.4280   -7.3535 N   0  0  0  0  0  0  0  0  0  0  0  0
  -10.5846   -5.8772   -8.3088 C   0  0  0  0  0  0  0  0  0  0  0  0
   -9.9565   -6.8755   -9.0034 C   0  0  0  0  0  0  0  0  0  0  0  0
   -8.6707   -7.0721   -8.5205 N   0  0  0  0  0  0  0  0  0  0  0  0
   -8.5161   -6.2051   -7.5219 C   0  0  0  0  0  0  0  0  0  0  0  0
   -7.4300   -5.9503   -6.6461 C   0  0  0  0  0  0  0  0  0  0  0  0
   -8.8102   -3.4573   -4.7905 H   0  0  0  0  0  0  0  0  0  0  0  0
  -10.7387   -3.9258   -6.3225 H   0  0  0  0  0  0  0  0  0  0  0  0
  -11.5825   -5.4707   -8.3706 H   0  0  0  0  0  0  0  0  0  0  0  0
  -10.3355   -7.4823   -9.8148 H   0  0  0  0  0  0  0  0  0  0  0  0
   -6.5186   -6.5270   -6.7557 H   0  0  0  0  0  0  0  0  0  0  0  0
  1  2  1  0
  2 10  2  0
  2  3  1  0
  3  4  2  0
  3 11  1  0
  4  5  1  0
  4 12  1  0
  5  9  1  0
  5  6  1  0
  6  7  2  0
  6 13  1  0
  7  8  1  0
  7 14  1  0
  8  9  2  0
  9 10  1  0
 10 15  1  0
M  END
>  <i_m_ct_stereo_status>  (85) 
1

>  <s_m_source_file>  (85) 
/var/tmp/pbs.5076255.sched01/tmpr7id634h/0ay6m0hv_.sdf

>  <i_m_source_file_index>  (85) 
32

>  <i_lp_mmshare_version>  (85) 
48012

>  <i_f3d_flags>  (85) 
0

>  <s_epik_input>  (85) 
W2NIXTFbY0hdYyhDbClbY0hdYyhuMTIpbltjSF1bY0hdMg==

>  <s_epik_cmdline>  (85) 
J2VwaWtfcHl0aG9uJywgJy1waHQnLCAnMi4wJywgJy1waCcsICc3LjAnLCAnLXRuJywgJzgnLCAnLW1hJywgJzIwMCcsICctaW1hZScsICc8aW5maWxlLm1hZT4nLCAnLW9tYWUnLCAnPG91dGZpbGUubWFlPic=

>  <r_epik_Ionization_Penalty>  (85) 
0.0211369

>  <r_epik_Ionization_Penalty_Charging>  (85) 
0.0211369

>  <r_epik_Ionization_Penalty_Neutral>  (85) 
0

>  <r_epik_State_Penalty>  (85) 
0.0169819

>  <r_epik_Charging_Adjusted_Penalty>  (85) 
0.0381188

>  <i_epik_Tot_Q>  (85) 
0

>  <i_epik_Tot_abs_Q>  (85) 
0

>  <s_lp_Force_Field>  (85) 
OPLS3e

>  <r_lp_Energy>  (85) 
11.2375

>  <b_lp_Chiralities_Consistent>  (85) 
1

>  <s_lp_Variant>  (85) 
21:0-1

>  <s_i_glide_gridfile>  (85) 
pfpi4k_grid

>  <i_i_glide_lignum>  (85) 
32

>  <i_i_glide_rotatable_bonds>  (85) 
0

>  <r_i_docking_score>  (85) 
-5.39979

>  <r_i_glide_ligand_efficiency>  (85) 
-0.539979

>  <r_i_glide_ligand_efficiency_sa>  (85) 
-1.16335

>  <r_i_glide_ligand_efficiency_ln>  (85) 
-1.63502

>  <r_i_glide_gscore>  (85) 
-5.39979

>  <r_i_glide_lipo>  (85) 
-1.51763

>  <r_i_glide_hbond>  (85) 
0

>  <r_i_glide_metal>  (85) 
-0

>  <r_i_glide_rewards>  (85) 
-2.87709

>  <r_i_glide_evdw>  (85) 
-19.4721

>  <r_i_glide_ecoul>  (85) 
-0.209835

>  <r_i_glide_erotb>  (85) 
0

>  <r_i_glide_esite>  (85) 
0

>  <r_i_glide_emodel>  (85) 
-27.2748

>  <r_i_glide_energy>  (85) 
-19.6819

>  <r_i_glide_einternal>  (85) 
0

>  <r_i_glide_intrahb_reward>  (85) 
-0

>  <i_i_glide_confnum>  (85) 
2

>  <i_i_glide_posenum>  (85) 
15

>  <r_i_glide_eff_state_penalty>  (85) 
0

>  <ligand_id>  (85) 
21

>  <original_smiles>  (85) 
Clc1ccn2ccnc2c1

>  <smiles>  (85) 
[H]c1nc2c([H])c(Cl)c([H])c([H])n2c1[H]

$$$$
21:1:0
     RDKit          3D

 16 17  0  0  1  0  0  0  0  0999 V2000
    4.5898   -3.8415   -3.9139 Cl  0  0  0  0  0  0  0  0  0  0  0  0
    4.7633   -3.0093   -2.4124 C   0  0  0  0  0  0  0  0  0  0  0  0
    6.0435   -2.9389   -1.7899 C   0  0  0  0  0  0  0  0  0  0  0  0
    6.1996   -2.2794   -0.5852 C   0  0  0  0  0  0  0  0  0  0  0  0
    5.0854   -1.6982   -0.0264 N   0  0  0  0  0  0  0  0  0  0  0  0
    5.0618   -1.0043    1.1610 C   0  0  0  0  0  0  0  0  0  0  0  0
    3.7297   -0.6441    1.2614 C   0  0  0  0  0  0  0  0  0  0  0  0
    3.0214   -1.1465    0.1557 N   0  0  0  0  0  0  0  0  0  0  0  0
    3.9007   -1.7754   -0.6148 C   0  0  0  0  0  0  0  0  0  0  0  0
    3.6731   -2.4122   -1.8194 C   0  0  0  0  0  0  0  0  0  0  0  0
    6.8954   -3.4200   -2.2635 H   0  0  0  0  0  0  0  0  0  0  0  0
    7.1310   -2.2006   -0.0339 H   0  0  0  0  0  0  0  0  0  0  0  0
    5.9249   -0.8275    1.7931 H   0  0  0  0  0  0  0  0  0  0  0  0
    3.2238   -0.0678    2.0226 H   0  0  0  0  0  0  0  0  0  0  0  0
    2.6779   -2.4282   -2.2468 H   0  0  0  0  0  0  0  0  0  0  0  0
    2.0183   -1.0308   -0.1022 H   0  0  0  0  0  0  0  0  0  0  0  0
  1  2  1  0
  2 10  2  0
  2  3  1  0
  3  4  2  0
  3 11  1  0
  4  5  1  0
  4 12  1  0
  5  9  1  0
  5  6  1  0
  6  7  2  0
  6 13  1  0
  7  8  1  0
  7 14  1  0
  8  9  2  0
  8 16  1  0
  9 10  1  0
 10 15  1  0
M  CHG  1   8   1
M  END
>  <i_m_ct_stereo_status>  (86) 
1

>  <s_m_source_file>  (86) 
/var/tmp/pbs.5076255.sched01/tmpr7id634h/0ay6m0hv_.sdf

>  <i_m_source_file_index>  (86) 
33

>  <i_lp_mmshare_version>  (86) 
48012

>  <i_f3d_flags>  (86) 
0

>  <s_epik_input>  (86) 
W2NIXTFbY0hdYyhDbClbY0hdYyhuMTIpbltjSF1bY0hdMg==

>  <s_epik_cmdline>  (86) 
J2VwaWtfcHl0aG9uJywgJy1waHQnLCAnMi4wJywgJy1waCcsICc3LjAnLCAnLXRuJywgJzgnLCAnLW1hJywgJzIwMCcsICctaW1hZScsICc8aW5maWxlLm1hZT4nLCAnLW9tYWUnLCAnPG91dGZpbGUubWFlPic=

>  <r_epik_Ionization_Penalty>  (86) 
1.98547

>  <r_epik_Ionization_Penalty_Charging>  (86) 
0

>  <r_epik_Ionization_Penalty_Neutral>  (86) 
1.98547

>  <r_epik_State_Penalty>  (86) 
2.11309

>  <r_epik_Charging_Adjusted_Penalty>  (86) 
2.11309

>  <i_epik_Tot_Q>  (86) 
1

>  <i_epik_Tot_abs_Q>  (86) 
1

>  <s_lp_Force_Field>  (86) 
OPLS3e

>  <r_lp_Energy>  (86) 
15.6065

>  <b_lp_Chiralities_Consistent>  (86) 
1

>  <s_lp_Variant>  (86) 
21:0-2

>  <s_i_glide_gridfile>  (86) 
pfpi4k_grid

>  <i_i_glide_lignum>  (86) 
33

>  <i_i_glide_rotatable_bonds>  (86) 
0

>  <r_i_docking_score>  (86) 
-4.9555

>  <r_i_glide_ligand_efficiency>  (86) 
-0.49555

>  <r_i_glide_ligand_efficiency_sa>  (86) 
-1.06763

>  <r_i_glide_ligand_efficiency_ln>  (86) 
-1.50049

>  <r_i_glide_gscore>  (86) 
-4.9555

>  <r_i_glide_lipo>  (86) 
-0.264469

>  <r_i_glide_hbond>  (86) 
-0.168753

>  <r_i_glide_metal>  (86) 
-0

>  <r_i_glide_rewards>  (86) 
-2.25

>  <r_i_glide_evdw>  (86) 
-16.2181

>  <r_i_glide_ecoul>  (86) 
-8.73652

>  <r_i_glide_erotb>  (86) 
0

>  <r_i_glide_esite>  (86) 
-0.150891

>  <r_i_glide_emodel>  (86) 
-33.5263

>  <r_i_glide_energy>  (86) 
-24.9546

>  <r_i_glide_einternal>  (86) 
0

>  <r_i_glide_intrahb_reward>  (86) 
-0

>  <i_i_glide_confnum>  (86) 
2

>  <i_i_glide_posenum>  (86) 
7

>  <r_i_glide_eff_state_penalty>  (86) 
0

>  <ligand_id>  (86) 
21

>  <original_smiles>  (86) 
Clc1ccn2ccnc2c1

>  <smiles>  (86) 
[H]c1c(Cl)c([H])c2n(c1[H])c([H])c([H])[n+]2[H]

$$$$
21:1:1
     RDKit          3D

 16 17  0  0  1  0  0  0  0  0999 V2000
    6.6785   -4.1750    0.8427 Cl  0  0  0  0  0  0  0  0  0  0  0  0
    5.6418   -3.2717   -0.1876 C   0  0  0  0  0  0  0  0  0  0  0  0
    5.5363   -1.8707   -0.0256 C   0  0  0  0  0  0  0  0  0  0  0  0
    4.7111   -1.1377   -0.8496 C   0  0  0  0  0  0  0  0  0  0  0  0
    4.0256   -1.7999   -1.8353 N   0  0  0  0  0  0  0  0  0  0  0  0
    3.1680   -1.2172   -2.7412 C   0  0  0  0  0  0  0  0  0  0  0  0
    2.7322   -2.3067   -3.4610 C   0  0  0  0  0  0  0  0  0  0  0  0
    3.3382   -3.4572   -2.9786 N   0  0  0  0  0  0  0  0  0  0  0  0
    4.1282   -3.1055   -1.9722 C   0  0  0  0  0  0  0  0  0  0  0  0
    4.9214   -3.9107   -1.1731 C   0  0  0  0  0  0  0  0  0  0  0  0
    6.0917   -1.3604    0.7531 H   0  0  0  0  0  0  0  0  0  0  0  0
    4.5526   -0.0832   -0.7798 H   0  0  0  0  0  0  0  0  0  0  0  0
    2.9012   -0.1795   -2.7873 H   0  0  0  0  0  0  0  0  0  0  0  0
    2.0075   -2.3610   -4.2568 H   0  0  0  0  0  0  0  0  0  0  0  0
    4.9528   -4.9753   -1.3491 H   0  0  0  0  0  0  0  0  0  0  0  0
    3.1568   -4.4281   -3.2456 H   0  0  0  0  0  0  0  0  0  0  0  0
  1  2  1  0
  2 10  2  0
  2  3  1  0
  3  4  2  0
  3 11  1  0
  4  5  1  0
  4 12  1  0
  5  9  1  0
  5  6  1  0
  6  7  2  0
  6 13  1  0
  7  8  1  0
  7 14  1  0
  8  9  2  0
  8 16  1  0
  9 10  1  0
 10 15  1  0
M  CHG  1   8   1
M  END
>  <i_m_ct_stereo_status>  (87) 
1

>  <s_m_source_file>  (87) 
/var/tmp/pbs.5076255.sched01/tmpr7id634h/0ay6m0hv_.sdf

>  <i_m_source_file_index>  (87) 
33

>  <i_lp_mmshare_version>  (87) 
48012

>  <i_f3d_flags>  (87) 
0

>  <s_epik_input>  (87) 
W2NIXTFbY0hdYyhDbClbY0hdYyhuMTIpbltjSF1bY0hdMg==

>  <s_epik_cmdline>  (87) 
J2VwaWtfcHl0aG9uJywgJy1waHQnLCAnMi4wJywgJy1waCcsICc3LjAnLCAnLXRuJywgJzgnLCAnLW1hJywgJzIwMCcsICctaW1hZScsICc8aW5maWxlLm1hZT4nLCAnLW9tYWUnLCAnPG91dGZpbGUubWFlPic=

>  <r_epik_Ionization_Penalty>  (87) 
1.98547

>  <r_epik_Ionization_Penalty_Charging>  (87) 
0

>  <r_epik_Ionization_Penalty_Neutral>  (87) 
1.98547

>  <r_epik_State_Penalty>  (87) 
2.11309

>  <r_epik_Charging_Adjusted_Penalty>  (87) 
2.11309

>  <i_epik_Tot_Q>  (87) 
1

>  <i_epik_Tot_abs_Q>  (87) 
1

>  <s_lp_Force_Field>  (87) 
OPLS3e

>  <r_lp_Energy>  (87) 
15.6065

>  <b_lp_Chiralities_Consistent>  (87) 
1

>  <s_lp_Variant>  (87) 
21:0-2

>  <s_i_glide_gridfile>  (87) 
pfpi4k_grid

>  <i_i_glide_lignum>  (87) 
33

>  <i_i_glide_rotatable_bonds>  (87) 
0

>  <r_i_docking_score>  (87) 
-4.48737

>  <r_i_glide_ligand_efficiency>  (87) 
-0.448737

>  <r_i_glide_ligand_efficiency_sa>  (87) 
-0.966774

>  <r_i_glide_ligand_efficiency_ln>  (87) 
-1.35874

>  <r_i_glide_gscore>  (87) 
-4.48737

>  <r_i_glide_lipo>  (87) 
-0.368159

>  <r_i_glide_hbond>  (87) 
0

>  <r_i_glide_metal>  (87) 
-0

>  <r_i_glide_rewards>  (87) 
-2.25

>  <r_i_glide_evdw>  (87) 
-13.1135

>  <r_i_glide_ecoul>  (87) 
-7.67473

>  <r_i_glide_erotb>  (87) 
0

>  <r_i_glide_esite>  (87) 
-0.0623198

>  <r_i_glide_emodel>  (87) 
-28.5331

>  <r_i_glide_energy>  (87) 
-20.7883

>  <r_i_glide_einternal>  (87) 
0

>  <r_i_glide_intrahb_reward>  (87) 
-0

>  <i_i_glide_confnum>  (87) 
1

>  <i_i_glide_posenum>  (87) 
1

>  <r_i_glide_eff_state_penalty>  (87) 
0

>  <ligand_id>  (87) 
21

>  <original_smiles>  (87) 
Clc1ccn2ccnc2c1

>  <smiles>  (87) 
[H]c1c(Cl)c([H])c2n(c1[H])c([H])c([H])[n+]2[H]

$$$$
21:1:2
     RDKit          3D

 16 17  0  0  1  0  0  0  0  0999 V2000
    3.7997   -1.0544   -4.6631 Cl  0  0  0  0  0  0  0  0  0  0  0  0
    4.2114   -1.6758   -3.1145 C   0  0  0  0  0  0  0  0  0  0  0  0
    4.5872   -0.7582   -2.1094 C   0  0  0  0  0  0  0  0  0  0  0  0
    4.9274   -1.1837   -0.8416 C   0  0  0  0  0  0  0  0  0  0  0  0
    4.9005   -2.5349   -0.6064 N   0  0  0  0  0  0  0  0  0  0  0  0
    5.2053   -3.1357    0.5942 C   0  0  0  0  0  0  0  0  0  0  0  0
    5.0173   -4.4705    0.3027 C   0  0  0  0  0  0  0  0  0  0  0  0
    4.6170   -4.6069   -1.0278 N   0  0  0  0  0  0  0  0  0  0  0  0
    4.5514   -3.3894   -1.5555 C   0  0  0  0  0  0  0  0  0  0  0  0
    4.1929   -3.0267   -2.8450 C   0  0  0  0  0  0  0  0  0  0  0  0
    4.5822    0.2871   -2.3635 H   0  0  0  0  0  0  0  0  0  0  0  0
    5.2025   -0.5390   -0.0155 H   0  0  0  0  0  0  0  0  0  0  0  0
    5.5016   -2.6182    1.4956 H   0  0  0  0  0  0  0  0  0  0  0  0
    5.1248   -5.3465    0.9260 H   0  0  0  0  0  0  0  0  0  0  0  0
    3.9082   -3.7759   -3.5730 H   0  0  0  0  0  0  0  0  0  0  0  0
    4.3587   -5.4630   -1.5156 H   0  0  0  0  0  0  0  0  0  0  0  0
  1  2  1  0
  2 10  2  0
  2  3  1  0
  3  4  2  0
  3 11  1  0
  4  5  1  0
  4 12  1  0
  5  9  1  0
  5  6  1  0
  6  7  2  0
  6 13  1  0
  7  8  1  0
  7 14  1  0
  8  9  2  0
  8 16  1  0
  9 10  1  0
 10 15  1  0
M  CHG  1   8   1
M  END
>  <i_m_ct_stereo_status>  (88) 
1

>  <s_m_source_file>  (88) 
/var/tmp/pbs.5076255.sched01/tmpr7id634h/0ay6m0hv_.sdf

>  <i_m_source_file_index>  (88) 
33

>  <i_lp_mmshare_version>  (88) 
48012

>  <i_f3d_flags>  (88) 
0

>  <s_epik_input>  (88) 
W2NIXTFbY0hdYyhDbClbY0hdYyhuMTIpbltjSF1bY0hdMg==

>  <s_epik_cmdline>  (88) 
J2VwaWtfcHl0aG9uJywgJy1waHQnLCAnMi4wJywgJy1waCcsICc3LjAnLCAnLXRuJywgJzgnLCAnLW1hJywgJzIwMCcsICctaW1hZScsICc8aW5maWxlLm1hZT4nLCAnLW9tYWUnLCAnPG91dGZpbGUubWFlPic=

>  <r_epik_Ionization_Penalty>  (88) 
1.98547

>  <r_epik_Ionization_Penalty_Charging>  (88) 
0

>  <r_epik_Ionization_Penalty_Neutral>  (88) 
1.98547

>  <r_epik_State_Penalty>  (88) 
2.11309

>  <r_epik_Charging_Adjusted_Penalty>  (88) 
2.11309

>  <i_epik_Tot_Q>  (88) 
1

>  <i_epik_Tot_abs_Q>  (88) 
1

>  <s_lp_Force_Field>  (88) 
OPLS3e

>  <r_lp_Energy>  (88) 
15.6065

>  <b_lp_Chiralities_Consistent>  (88) 
1

>  <s_lp_Variant>  (88) 
21:0-2

>  <s_i_glide_gridfile>  (88) 
pfpi4k_grid

>  <i_i_glide_lignum>  (88) 
33

>  <i_i_glide_rotatable_bonds>  (88) 
0

>  <r_i_docking_score>  (88) 
-3.9682

>  <r_i_glide_ligand_efficiency>  (88) 
-0.39682

>  <r_i_glide_ligand_efficiency_sa>  (88) 
-0.854922

>  <r_i_glide_ligand_efficiency_ln>  (88) 
-1.20154

>  <r_i_glide_gscore>  (88) 
-3.9682

>  <r_i_glide_lipo>  (88) 
-0.185354

>  <r_i_glide_hbond>  (88) 
0

>  <r_i_glide_metal>  (88) 
-0

>  <r_i_glide_rewards>  (88) 
-2.25

>  <r_i_glide_evdw>  (88) 
-14.2079

>  <r_i_glide_ecoul>  (88) 
-5.24925

>  <r_i_glide_erotb>  (88) 
0

>  <r_i_glide_esite>  (88) 
-0.0350602

>  <r_i_glide_emodel>  (88) 
-26.3195

>  <r_i_glide_energy>  (88) 
-19.4571

>  <r_i_glide_einternal>  (88) 
0

>  <r_i_glide_intrahb_reward>  (88) 
-0

>  <i_i_glide_confnum>  (88) 
1

>  <i_i_glide_posenum>  (88) 
2

>  <r_i_glide_eff_state_penalty>  (88) 
0

>  <ligand_id>  (88) 
21

>  <original_smiles>  (88) 
Clc1ccn2ccnc2c1

>  <smiles>  (88) 
[H]c1c(Cl)c([H])c2n(c1[H])c([H])c([H])[n+]2[H]

$$$$
24:0:0
     RDKit          3D

 69 75  0  0  1  0  0  0  0  0999 V2000
    2.5026   -2.2479   -3.9541 C   0  0  0  0  0  0  0  0  0  0  0  0
    3.4931   -2.2989   -2.8680 C   0  0  0  0  0  0  0  0  0  0  0  0
    4.6049   -1.5745   -2.7233 C   0  0  0  0  0  0  0  0  0  0  0  0
    5.3579   -2.0199   -1.5068 C   0  0  1  0  0  0  0  0  0  0  0  0
    5.0458   -1.0587   -0.3801 C   0  0  0  0  0  0  0  0  0  0  0  0
    5.4641   -1.6482    0.9581 C   0  0  1  0  0  0  0  0  0  0  0  0
    5.3822   -0.6057    1.9036 O   0  0  0  0  0  0  0  0  0  0  0  0
    4.7492   -2.9892    1.3446 C   0  0  1  0  0  0  0  0  0  0  0  0
    3.4132   -2.9495    2.2018 C   0  0  2  0  0  0  0  0  0  0  0  0
    2.4636   -1.8048    1.7759 C   0  0  0  0  0  0  0  0  0  0  0  0
    3.8096   -2.7432    3.6909 C   0  0  0  0  0  0  0  0  0  0  0  0
    4.0348   -4.1387    4.2734 C   0  0  2  0  0  0  0  0  0  0  0  0
    5.3723   -4.5278    3.9358 O   0  0  0  0  0  0  0  0  0  0  0  0
    5.6118   -5.8448    3.4082 C   0  0  2  0  0  0  0  0  0  0  0  0
    6.8301   -6.0722    2.5543 C   0  0  0  0  0  0  0  0  0  0  0  0
    7.2107   -4.9312    1.5663 C   0  0  1  0  0  0  0  0  0  0  0  0
    8.5805   -5.1118    1.2351 O   0  0  0  0  0  0  0  0  0  0  0  0
    6.4516   -4.6228    0.2630 C   0  0  0  0  0  0  0  0  0  0  0  0
    4.9670   -4.0730    0.2082 C   0  0  1  0  0  0  0  0  0  0  0  0
    4.0160   -5.3167    0.2869 C   0  0  1  0  0  0  0  0  0  0  0  0
    4.5690   -6.5371    0.7222 O   0  0  0  0  0  0  0  0  0  0  0  0
    2.6533   -5.0910    0.9411 C   0  0  1  0  0  0  0  0  0  0  0  0
    1.8565   -6.2578    0.9105 O   0  0  0  0  0  0  0  0  0  0  0  0
    2.6281   -4.3082    2.2705 C   0  0  1  0  0  0  0  0  0  0  0  0
    2.8454   -4.9449    3.6947 C   0  0  2  0  0  0  0  0  0  0  0  0
    1.5699   -4.6369    4.5425 C   0  0  0  0  0  0  0  0  0  0  0  0
    3.0999   -6.4608    3.9076 C   0  0  1  0  0  0  0  0  0  0  0  0
    2.1182   -7.3625    3.3991 O   0  0  0  0  0  0  0  0  0  0  0  0
    4.4556   -6.8616    3.4795 C   0  0  2  0  0  0  0  0  0  0  0  0
    5.4762   -6.7920    4.4845 O   0  0  0  0  0  0  0  0  0  0  0  0
    4.7467   -3.4146   -1.2243 C   0  0  2  0  0  0  0  0  0  0  0  0
    5.3968   -4.1906   -2.2060 O   0  0  0  0  0  0  0  0  0  0  0  0
    3.2855   -3.2667   -1.7651 C   0  0  0  0  0  0  0  0  0  0  0  0
    2.4868   -3.1654   -4.5498 H   0  0  0  0  0  0  0  0  0  0  0  0
    2.6828   -1.3607   -4.5787 H   0  0  0  0  0  0  0  0  0  0  0  0
    1.5497   -2.2405   -3.4439 H   0  0  0  0  0  0  0  0  0  0  0  0
    4.9404   -0.8185   -3.3963 H   0  0  0  0  0  0  0  0  0  0  0  0
    6.4205   -2.0811   -1.7431 H   0  0  0  0  0  0  0  0  0  0  0  0
    5.6282   -0.1760   -0.5978 H   0  0  0  0  0  0  0  0  0  0  0  0
    3.9899   -0.7874   -0.4071 H   0  0  0  0  0  0  0  0  0  0  0  0
    6.5313   -1.8487    0.8572 H   0  0  0  0  0  0  0  0  0  0  0  0
    5.8703   -0.8655    2.6552 H   0  0  0  0  0  0  0  0  0  0  0  0
    5.3897   -3.2598    2.1418 H   0  0  0  0  0  0  0  0  0  0  0  0
    1.5479   -1.7871    2.3690 H   0  0  0  0  0  0  0  0  0  0  0  0
    2.1716   -1.8994    0.7383 H   0  0  0  0  0  0  0  0  0  0  0  0
    2.9013   -0.8129    1.8844 H   0  0  0  0  0  0  0  0  0  0  0  0
    4.6900   -2.1287    3.8417 H   0  0  0  0  0  0  0  0  0  0  0  0
    2.9933   -2.2562    4.2169 H   0  0  0  0  0  0  0  0  0  0  0  0
    3.9545   -4.1303    5.3654 H   0  0  0  0  0  0  0  0  0  0  0  0
    7.6540   -6.2029    3.2612 H   0  0  0  0  0  0  0  0  0  0  0  0
    6.8022   -7.0519    2.0377 H   0  0  0  0  0  0  0  0  0  0  0  0
    7.1803   -3.9876    2.0601 H   0  0  0  0  0  0  0  0  0  0  0  0
    8.7728   -6.0214    1.0887 H   0  0  0  0  0  0  0  0  0  0  0  0
    7.0584   -3.8530   -0.1978 H   0  0  0  0  0  0  0  0  0  0  0  0
    6.5404   -5.5258   -0.3161 H   0  0  0  0  0  0  0  0  0  0  0  0
    3.8218   -5.5953   -0.7356 H   0  0  0  0  0  0  0  0  0  0  0  0
    4.0603   -7.2293    0.3467 H   0  0  0  0  0  0  0  0  0  0  0  0
    2.1248   -4.4347    0.2560 H   0  0  0  0  0  0  0  0  0  0  0  0
    2.0760   -6.7897    1.6722 H   0  0  0  0  0  0  0  0  0  0  0  0
    1.5783   -4.0274    2.3005 H   0  0  0  0  0  0  0  0  0  0  0  0
    0.7087   -5.2101    4.1986 H   0  0  0  0  0  0  0  0  0  0  0  0
    1.2830   -3.5897    4.4941 H   0  0  0  0  0  0  0  0  0  0  0  0
    1.7225   -4.8768    5.5919 H   0  0  0  0  0  0  0  0  0  0  0  0
    3.0754   -6.6288    4.9837 H   0  0  0  0  0  0  0  0  0  0  0  0
    2.2116   -8.1947    3.8391 H   0  0  0  0  0  0  0  0  0  0  0  0
    4.5317   -7.8111    2.9682 H   0  0  0  0  0  0  0  0  0  0  0  0
    4.8833   -4.9800   -2.2957 H   0  0  0  0  0  0  0  0  0  0  0  0
    2.5790   -2.8064   -1.0774 H   0  0  0  0  0  0  0  0  0  0  0  0
    2.8306   -4.1665   -2.1515 H   0  0  0  0  0  0  0  0  0  0  0  0
  1  2  1  0
  1 34  1  0
  1 35  1  0
  1 36  1  0
  2 33  1  0
  2  3  2  0
  3  4  1  0
  3 37  1  0
  4 31  1  0
  4  5  1  0
  4 38  1  6
  5  6  1  0
  5 39  1  0
  5 40  1  0
  6  7  1  0
  6  8  1  0
  6 41  1  6
  7 42  1  0
  8 19  1  0
  8  9  1  0
  8 43  1  1
  9 24  1  0
  9 10  1  6
  9 11  1  0
 10 44  1  0
 10 45  1  0
 10 46  1  0
 11 12  1  0
 11 47  1  0
 11 48  1  0
 12 25  1  0
 12 13  1  0
 12 49  1  1
 13 14  1  0
 14 29  1  0
 14 30  1  1
 14 15  1  0
 15 16  1  0
 15 50  1  0
 15 51  1  0
 16 17  1  0
 16 18  1  0
 16 52  1  1
 17 53  1  0
 19 18  1  6
 18 54  1  0
 18 55  1  0
 19 20  1  0
 19 31  1  0
 20 21  1  0
 20 22  1  0
 20 56  1  6
 21 57  1  0
 22 23  1  0
 22 24  1  0
 22 58  1  6
 23 59  1  0
 24 25  1  0
 24 60  1  1
 25 26  1  1
 25 27  1  0
 26 61  1  0
 26 62  1  0
 26 63  1  0
 27 28  1  0
 27 29  1  0
 27 64  1  1
 28 65  1  0
 29 30  1  0
 29 66  1  6
 31 32  1  6
 31 33  1  0
 32 67  1  0
 33 68  1  0
 33 69  1  0
M  END
>  <i_m_ct_stereo_status>  (89) 
1

>  <s_m_source_file>  (89) 
/var/tmp/pbs.5076255.sched01/tmpr7id634h/0ay6m0hv_.sdf

>  <i_m_source_file_index>  (89) 
37

>  <i_lp_mmshare_version>  (89) 
48012

>  <i_f3d_flags>  (89) 
0

>  <s_epik_input>  (89) 
W0NIM11DKFtDSDJdMSk9W0NIXVtDQEBIXShbQ0gyXVtDQEhdMltPSF0pW0NAQF0xKFtPSF0pW0NAXShbQ0gyXVtDQEBIXShbQ0gyXTMpW09IXSkoW0NAQEhdKFtPSF0pW0NAQEhdKFtPSF0pW0NASF00NSlbQ0BASF0yW0NAXTQoW0NIM10pW0NIMl1bQ0BIXShPNilbQ0BdNShbQ0gzXSlbQ0BASF0oW09IXSlbQ0BASF0oW0NAQF0zNjcpTzc=

>  <s_epik_cmdline>  (89) 
J2VwaWtfcHl0aG9uJywgJy1waHQnLCAnMi4wJywgJy1waCcsICc3LjAnLCAnLXRuJywgJzgnLCAnLW1hJywgJzIwMCcsICctaW1hZScsICc8aW5maWxlLm1hZT4nLCAnLW9tYWUnLCAnPG91dGZpbGUubWFlPic=

>  <r_lp_tautomer_probability>  (89) 
1

>  <r_epik_Ionization_Penalty>  (89) 
1.46327e-06

>  <r_epik_Ionization_Penalty_Charging>  (89) 
0

>  <r_epik_Ionization_Penalty_Neutral>  (89) 
1.46327e-06

>  <r_epik_State_Penalty>  (89) 
-0

>  <r_epik_Charging_Adjusted_Penalty>  (89) 
0

>  <i_epik_Tot_Q>  (89) 
0

>  <i_epik_Tot_abs_Q>  (89) 
0

>  <s_lp_Force_Field>  (89) 
OPLS3e

>  <r_lp_Energy>  (89) 
97.9864

>  <b_lp_Chiralities_Consistent>  (89) 
1

>  <s_lp_Variant>  (89) 
24:0-1

>  <s_i_glide_gridfile>  (89) 
pfpi4k_grid

>  <i_i_glide_lignum>  (89) 
37

>  <i_i_glide_rotatable_bonds>  (89) 
6

>  <r_i_docking_score>  (89) 
-3.79341

>  <r_i_glide_ligand_efficiency>  (89) 
-0.114952

>  <r_i_glide_ligand_efficiency_sa>  (89) 
-0.368712

>  <r_i_glide_ligand_efficiency_ln>  (89) 
-0.843635

>  <r_i_glide_gscore>  (89) 
-3.79341

>  <r_i_glide_lipo>  (89) 
-0.638453

>  <r_i_glide_hbond>  (89) 
-0.160763

>  <r_i_glide_metal>  (89) 
-0

>  <r_i_glide_rewards>  (89) 
-0.744318

>  <r_i_glide_evdw>  (89) 
-26.442

>  <r_i_glide_ecoul>  (89) 
-6.1852

>  <r_i_glide_erotb>  (89) 
0

>  <r_i_glide_esite>  (89) 
0

>  <r_i_glide_emodel>  (89) 
-43.67

>  <r_i_glide_energy>  (89) 
-32.6272

>  <r_i_glide_einternal>  (89) 
1.87893

>  <r_i_glide_intrahb_reward>  (89) 
-0.5

>  <i_i_glide_confnum>  (89) 
1

>  <i_i_glide_posenum>  (89) 
17

>  <r_i_glide_eff_state_penalty>  (89) 
0

>  <ligand_id>  (89) 
24

>  <original_smiles>  (89) 
CC1=CC2CC(O)C3C4(C)CC5OC67CC(O)CC3(C(O)C(O)C4C5(C)C(O)C6O7)C2(O)C1

>  <smiles>  (89) 
[H]OC1([H])C([H])([H])C23OC2([H])C([H])(O[H])C2(C([H])([H])[H])C([H])(O3)C([H])([H])C3(C([H])([H])[H])C2([H])C([H])(O[H])C([H])(O[H])C2(C1([H])[H])C3([H])C([H])(O[H])C([H])([H])C1([H])C([H])=C(C([H])([H])[H])C([H])([H])C12O[H]

$$$$
24:0:1
     RDKit          3D

 69 75  0  0  1  0  0  0  0  0999 V2000
    3.2308   -0.8971   -3.0833 C   0  0  0  0  0  0  0  0  0  0  0  0
    4.0823   -1.5143   -1.9828 C   0  0  0  0  0  0  0  0  0  0  0  0
    5.2266   -1.0592   -1.5241 C   0  0  0  0  0  0  0  0  0  0  0  0
    5.7444   -1.9028   -0.3728 C   0  0  1  0  0  0  0  0  0  0  0  0
    5.4030   -1.1644    0.9244 C   0  0  0  0  0  0  0  0  0  0  0  0
    5.5240   -2.1083    2.1179 C   0  0  1  0  0  0  0  0  0  0  0  0
    5.4093   -1.3572    3.3136 O   0  0  0  0  0  0  0  0  0  0  0  0
    4.6173   -3.3856    2.0604 C   0  0  1  0  0  0  0  0  0  0  0  0
    3.1852   -3.3614    2.7468 C   0  0  2  0  0  0  0  0  0  0  0  0
    2.4316   -2.0207    2.5268 C   0  0  0  0  0  0  0  0  0  0  0  0
    3.3651   -3.6026    4.2752 C   0  0  0  0  0  0  0  0  0  0  0  0
    3.3181   -5.1248    4.4908 C   0  0  2  0  0  0  0  0  0  0  0  0
    4.6146   -5.6394    4.1939 O   0  0  0  0  0  0  0  0  0  0  0  0
    4.7999   -6.8279    3.4041 C   0  0  2  0  0  0  0  0  0  0  0  0
    6.1180   -6.9882    2.7013 C   0  0  0  0  0  0  0  0  0  0  0  0
    6.7759   -5.6814    2.1863 C   0  0  1  0  0  0  0  0  0  0  0  0
    8.1291   -6.0084    1.9507 O   0  0  0  0  0  0  0  0  0  0  0  0
    6.2801   -4.9530    0.8769 C   0  0  0  0  0  0  0  0  0  0  0  0
    4.8716   -4.2145    0.7289 C   0  0  1  0  0  0  0  0  0  0  0  0
    3.7655   -5.2692    0.3572 C   0  0  1  0  0  0  0  0  0  0  0  0
    4.1192   -6.6223    0.5166 O   0  0  0  0  0  0  0  0  0  0  0  0
    2.3696   -4.9904    0.9075 C   0  0  1  0  0  0  0  0  0  0  0  0
    1.4173   -5.9424    0.4820 O   0  0  0  0  0  0  0  0  0  0  0  0
    2.2519   -4.5646    2.3818 C   0  0  1  0  0  0  0  0  0  0  0  0
    2.1417   -5.5689    3.5955 C   0  0  2  0  0  0  0  0  0  0  0  0
    0.8104   -5.2809    4.3495 C   0  0  0  0  0  0  0  0  0  0  0  0
    2.1888   -7.1216    3.4274 C   0  0  1  0  0  0  0  0  0  0  0  0
    1.1972   -7.6934    2.5885 O   0  0  0  0  0  0  0  0  0  0  0  0
    3.5304   -7.6089    3.0600 C   0  0  2  0  0  0  0  0  0  0  0  0
    4.3785   -7.9632    4.1820 O   0  0  0  0  0  0  0  0  0  0  0  0
    4.9404   -3.2223   -0.5278 C   0  0  2  0  0  0  0  0  0  0  0  0
    5.6045   -3.8697   -1.5953 O   0  0  0  0  0  0  0  0  0  0  0  0
    3.6218   -2.7290   -1.2308 C   0  0  0  0  0  0  0  0  0  0  0  0
    3.0453   -1.6156   -3.8798 H   0  0  0  0  0  0  0  0  0  0  0  0
    3.6914   -0.0008   -3.4955 H   0  0  0  0  0  0  0  0  0  0  0  0
    2.2732   -0.6077   -2.6516 H   0  0  0  0  0  0  0  0  0  0  0  0
    5.7581   -0.2056   -1.9008 H   0  0  0  0  0  0  0  0  0  0  0  0
    6.8179   -2.0611   -0.4613 H   0  0  0  0  0  0  0  0  0  0  0  0
    6.0863   -0.3230    1.0402 H   0  0  0  0  0  0  0  0  0  0  0  0
    4.4024   -0.7384    0.8744 H   0  0  0  0  0  0  0  0  0  0  0  0
    6.5548   -2.4523    2.1095 H   0  0  0  0  0  0  0  0  0  0  0  0
    4.5610   -0.9713    3.3442 H   0  0  0  0  0  0  0  0  0  0  0  0
    5.1374   -3.9499    2.7994 H   0  0  0  0  0  0  0  0  0  0  0  0
    1.4570   -2.0187    3.0133 H   0  0  0  0  0  0  0  0  0  0  0  0
    2.2555   -1.8014    1.4777 H   0  0  0  0  0  0  0  0  0  0  0  0
    2.9518   -1.1660    2.9479 H   0  0  0  0  0  0  0  0  0  0  0  0
    4.2849   -3.1902    4.6910 H   0  0  0  0  0  0  0  0  0  0  0  0
    2.5498   -3.1432    4.8297 H   0  0  0  0  0  0  0  0  0  0  0  0
    3.1116   -5.3847    5.5331 H   0  0  0  0  0  0  0  0  0  0  0  0
    6.7802   -7.4598    3.4274 H   0  0  0  0  0  0  0  0  0  0  0  0
    6.0384   -7.7265    1.8971 H   0  0  0  0  0  0  0  0  0  0  0  0
    6.8223   -5.0280    3.0460 H   0  0  0  0  0  0  0  0  0  0  0  0
    8.4945   -6.3943    2.7252 H   0  0  0  0  0  0  0  0  0  0  0  0
    7.0412   -4.1994    0.6926 H   0  0  0  0  0  0  0  0  0  0  0  0
    6.4183   -5.6609    0.0597 H   0  0  0  0  0  0  0  0  0  0  0  0
    3.6443   -5.2623   -0.7170 H   0  0  0  0  0  0  0  0  0  0  0  0
    4.7313   -6.8447   -0.1536 H   0  0  0  0  0  0  0  0  0  0  0  0
    2.0368   -4.1126    0.3594 H   0  0  0  0  0  0  0  0  0  0  0  0
    1.6372   -6.7629    0.9038 H   0  0  0  0  0  0  0  0  0  0  0  0
    1.2547   -4.1378    2.3789 H   0  0  0  0  0  0  0  0  0  0  0  0
   -0.0543   -5.6148    3.7742 H   0  0  0  0  0  0  0  0  0  0  0  0
    0.6537   -4.2219    4.5475 H   0  0  0  0  0  0  0  0  0  0  0  0
    0.7663   -5.7903    5.3112 H   0  0  0  0  0  0  0  0  0  0  0  0
    1.9797   -7.5387    4.4160 H   0  0  0  0  0  0  0  0  0  0  0  0
    1.2280   -8.6327    2.6949 H   0  0  0  0  0  0  0  0  0  0  0  0
    3.5758   -8.3822    2.2999 H   0  0  0  0  0  0  0  0  0  0  0  0
    5.1040   -4.6205   -1.8509 H   0  0  0  0  0  0  0  0  0  0  0  0
    2.8846   -2.3715   -0.5171 H   0  0  0  0  0  0  0  0  0  0  0  0
    3.1585   -3.4473   -1.9000 H   0  0  0  0  0  0  0  0  0  0  0  0
  1  2  1  0
  1 34  1  0
  1 35  1  0
  1 36  1  0
  2 33  1  0
  2  3  2  0
  3  4  1  0
  3 37  1  0
  4 31  1  0
  4  5  1  0
  4 38  1  6
  5  6  1  0
  5 39  1  0
  5 40  1  0
  6  7  1  0
  6  8  1  0
  6 41  1  1
  7 42  1  0
  8 19  1  0
  8  9  1  0
  8 43  1  1
  9 24  1  0
  9 10  1  1
  9 11  1  0
 10 44  1  0
 10 45  1  0
 10 46  1  0
 11 12  1  0
 11 47  1  0
 11 48  1  0
 12 25  1  0
 12 13  1  0
 12 49  1  1
 13 14  1  0
 14 29  1  0
 14 30  1  1
 14 15  1  0
 15 16  1  0
 15 50  1  0
 15 51  1  0
 16 17  1  0
 16 18  1  0
 16 52  1  1
 17 53  1  0
 19 18  1  1
 18 54  1  0
 18 55  1  0
 19 20  1  0
 19 31  1  0
 20 21  1  0
 20 22  1  0
 20 56  1  6
 21 57  1  0
 22 23  1  0
 22 24  1  0
 22 58  1  6
 23 59  1  0
 24 25  1  0
 24 60  1  6
 25 26  1  1
 25 27  1  0
 26 61  1  0
 26 62  1  0
 26 63  1  0
 27 28  1  0
 27 29  1  0
 27 64  1  1
 28 65  1  0
 29 30  1  0
 29 66  1  6
 31 32  1  6
 31 33  1  0
 32 67  1  0
 33 68  1  0
 33 69  1  0
M  END
>  <i_m_ct_stereo_status>  (90) 
1

>  <s_m_source_file>  (90) 
/var/tmp/pbs.5076255.sched01/tmpr7id634h/0ay6m0hv_.sdf

>  <i_m_source_file_index>  (90) 
37

>  <i_lp_mmshare_version>  (90) 
48012

>  <i_f3d_flags>  (90) 
0

>  <s_epik_input>  (90) 
W0NIM11DKFtDSDJdMSk9W0NIXVtDQEBIXShbQ0gyXVtDQEhdMltPSF0pW0NAQF0xKFtPSF0pW0NAXShbQ0gyXVtDQEBIXShbQ0gyXTMpW09IXSkoW0NAQEhdKFtPSF0pW0NAQEhdKFtPSF0pW0NASF00NSlbQ0BASF0yW0NAXTQoW0NIM10pW0NIMl1bQ0BIXShPNilbQ0BdNShbQ0gzXSlbQ0BASF0oW09IXSlbQ0BASF0oW0NAQF0zNjcpTzc=

>  <s_epik_cmdline>  (90) 
J2VwaWtfcHl0aG9uJywgJy1waHQnLCAnMi4wJywgJy1waCcsICc3LjAnLCAnLXRuJywgJzgnLCAnLW1hJywgJzIwMCcsICctaW1hZScsICc8aW5maWxlLm1hZT4nLCAnLW9tYWUnLCAnPG91dGZpbGUubWFlPic=

>  <r_lp_tautomer_probability>  (90) 
1

>  <r_epik_Ionization_Penalty>  (90) 
1.46327e-06

>  <r_epik_Ionization_Penalty_Charging>  (90) 
0

>  <r_epik_Ionization_Penalty_Neutral>  (90) 
1.46327e-06

>  <r_epik_State_Penalty>  (90) 
-0

>  <r_epik_Charging_Adjusted_Penalty>  (90) 
0

>  <i_epik_Tot_Q>  (90) 
0

>  <i_epik_Tot_abs_Q>  (90) 
0

>  <s_lp_Force_Field>  (90) 
OPLS3e

>  <r_lp_Energy>  (90) 
97.9864

>  <b_lp_Chiralities_Consistent>  (90) 
1

>  <s_lp_Variant>  (90) 
24:0-1

>  <s_i_glide_gridfile>  (90) 
pfpi4k_grid

>  <i_i_glide_lignum>  (90) 
37

>  <i_i_glide_rotatable_bonds>  (90) 
6

>  <r_i_docking_score>  (90) 
-3.7738

>  <r_i_glide_ligand_efficiency>  (90) 
-0.114358

>  <r_i_glide_ligand_efficiency_sa>  (90) 
-0.366806

>  <r_i_glide_ligand_efficiency_ln>  (90) 
-0.839274

>  <r_i_glide_gscore>  (90) 
-3.7738

>  <r_i_glide_lipo>  (90) 
-0.45552

>  <r_i_glide_hbond>  (90) 
0

>  <r_i_glide_metal>  (90) 
-0

>  <r_i_glide_rewards>  (90) 
-0.741714

>  <r_i_glide_evdw>  (90) 
-30.3015

>  <r_i_glide_ecoul>  (90) 
-7.07662

>  <r_i_glide_erotb>  (90) 
0

>  <r_i_glide_esite>  (90) 
0

>  <r_i_glide_emodel>  (90) 
-49.5989

>  <r_i_glide_energy>  (90) 
-37.3781

>  <r_i_glide_einternal>  (90) 
1.2528

>  <r_i_glide_intrahb_reward>  (90) 
-0.5

>  <i_i_glide_confnum>  (90) 
1

>  <i_i_glide_posenum>  (90) 
4

>  <r_i_glide_eff_state_penalty>  (90) 
0

>  <ligand_id>  (90) 
24

>  <original_smiles>  (90) 
CC1=CC2CC(O)C3C4(C)CC5OC67CC(O)CC3(C(O)C(O)C4C5(C)C(O)C6O7)C2(O)C1

>  <smiles>  (90) 
[H]OC1([H])C([H])([H])C23OC2([H])C([H])(O[H])C2(C([H])([H])[H])C([H])(O3)C([H])([H])C3(C([H])([H])[H])C2([H])C([H])(O[H])C([H])(O[H])C2(C1([H])[H])C3([H])C([H])(O[H])C([H])([H])C1([H])C([H])=C(C([H])([H])[H])C([H])([H])C12O[H]

$$$$
24:0:2
     RDKit          3D

 69 75  0  0  1  0  0  0  0  0999 V2000
    3.2199   -0.9133   -3.0349 C   0  0  0  0  0  0  0  0  0  0  0  0
    4.0704   -1.5390   -1.9479 C   0  0  0  0  0  0  0  0  0  0  0  0
    5.2341   -1.1054   -1.4868 C   0  0  0  0  0  0  0  0  0  0  0  0
    5.7321   -1.9542   -0.3343 C   0  0  1  0  0  0  0  0  0  0  0  0
    5.4055   -1.2229    0.9642 C   0  0  0  0  0  0  0  0  0  0  0  0
    5.5128   -2.1698    2.1546 C   0  0  1  0  0  0  0  0  0  0  0  0
    5.3997   -1.4196    3.3449 O   0  0  0  0  0  0  0  0  0  0  0  0
    4.5921   -3.4363    2.0924 C   0  0  1  0  0  0  0  0  0  0  0  0
    3.1649   -3.4013    2.7867 C   0  0  2  0  0  0  0  0  0  0  0  0
    2.4268   -2.0483    2.5714 C   0  0  0  0  0  0  0  0  0  0  0  0
    3.3411   -3.6487    4.3138 C   0  0  0  0  0  0  0  0  0  0  0  0
    3.2782   -5.1711    4.5296 C   0  0  2  0  0  0  0  0  0  0  0  0
    4.5806   -5.6940    4.2089 O   0  0  0  0  0  0  0  0  0  0  0  0
    4.7228   -6.8788    3.4544 C   0  0  2  0  0  0  0  0  0  0  0  0
    6.0588   -7.0506    2.7212 C   0  0  0  0  0  0  0  0  0  0  0  0
    6.7288   -5.7459    2.2166 C   0  0  1  0  0  0  0  0  0  0  0  0
    8.0732   -6.0949    1.9693 O   0  0  0  0  0  0  0  0  0  0  0  0
    6.2367   -5.0185    0.9077 C   0  0  0  0  0  0  0  0  0  0  0  0
    4.8384   -4.2645    0.7574 C   0  0  1  0  0  0  0  0  0  0  0  0
    3.7180   -5.3026    0.3848 C   0  0  1  0  0  0  0  0  0  0  0  0
    4.0577   -6.6572    0.5166 O   0  0  0  0  0  0  0  0  0  0  0  0
    2.3238   -5.0127    0.9350 C   0  0  1  0  0  0  0  0  0  0  0  0
    1.3585   -5.9491    0.5093 O   0  0  0  0  0  0  0  0  0  0  0  0
    2.2140   -4.5949    2.4146 C   0  0  1  0  0  0  0  0  0  0  0  0
    2.0980   -5.5983    3.6307 C   0  0  2  0  0  0  0  0  0  0  0  0
    0.7704   -5.2960    4.3871 C   0  0  0  0  0  0  0  0  0  0  0  0
    2.1280   -7.1436    3.4670 C   0  0  1  0  0  0  0  0  0  0  0  0
    1.1322   -7.7021    2.6189 O   0  0  0  0  0  0  0  0  0  0  0  0
    3.4832   -7.6693    3.1110 C   0  0  2  0  0  0  0  0  0  0  0  0
    4.3201   -8.0140    4.2095 O   0  0  0  0  0  0  0  0  0  0  0  0
    4.9104   -3.2607   -0.5005 C   0  0  2  0  0  0  0  0  0  0  0  0
    5.5642   -3.9287   -1.5636 O   0  0  0  0  0  0  0  0  0  0  0  0
    3.6062   -2.7541   -1.1856 C   0  0  0  0  0  0  0  0  0  0  0  0
    3.0331   -1.6280   -3.8342 H   0  0  0  0  0  0  0  0  0  0  0  0
    3.6976   -0.0248   -3.4509 H   0  0  0  0  0  0  0  0  0  0  0  0
    2.2595   -0.6173   -2.6078 H   0  0  0  0  0  0  0  0  0  0  0  0
    5.7765   -0.2498   -1.8498 H   0  0  0  0  0  0  0  0  0  0  0  0
    6.8074   -2.1263   -0.4245 H   0  0  0  0  0  0  0  0  0  0  0  0
    6.0938   -0.3850    1.0905 H   0  0  0  0  0  0  0  0  0  0  0  0
    4.4058   -0.7840    0.9280 H   0  0  0  0  0  0  0  0  0  0  0  0
    6.5451   -2.5213    2.1518 H   0  0  0  0  0  0  0  0  0  0  0  0
    5.5211   -2.0013    4.0816 H   0  0  0  0  0  0  0  0  0  0  0  0
    5.1089   -4.0105    2.8293 H   0  0  0  0  0  0  0  0  0  0  0  0
    1.4536   -2.0322    3.0610 H   0  0  0  0  0  0  0  0  0  0  0  0
    2.2521   -1.8226    1.5239 H   0  0  0  0  0  0  0  0  0  0  0  0
    2.9640   -1.2039    2.9925 H   0  0  0  0  0  0  0  0  0  0  0  0
    4.2629   -3.2464    4.7363 H   0  0  0  0  0  0  0  0  0  0  0  0
    2.5307   -3.1794    4.8709 H   0  0  0  0  0  0  0  0  0  0  0  0
    3.0770   -5.4341    5.5706 H   0  0  0  0  0  0  0  0  0  0  0  0
    6.7163   -7.5352    3.4440 H   0  0  0  0  0  0  0  0  0  0  0  0
    5.9700   -7.7871    1.9170 H   0  0  0  0  0  0  0  0  0  0  0  0
    6.7982   -5.0825    3.0728 H   0  0  0  0  0  0  0  0  0  0  0  0
    8.4315   -6.5350    2.7320 H   0  0  0  0  0  0  0  0  0  0  0  0
    7.0062   -4.2723    0.7189 H   0  0  0  0  0  0  0  0  0  0  0  0
    6.3606   -5.7253    0.0842 H   0  0  0  0  0  0  0  0  0  0  0  0
    3.5995   -5.2883   -0.6957 H   0  0  0  0  0  0  0  0  0  0  0  0
    4.2191   -6.8287    1.4298 H   0  0  0  0  0  0  0  0  0  0  0  0
    1.9998   -4.1300    0.3967 H   0  0  0  0  0  0  0  0  0  0  0  0
    1.5568   -6.7844    0.9235 H   0  0  0  0  0  0  0  0  0  0  0  0
    1.2256   -4.1509    2.4209 H   0  0  0  0  0  0  0  0  0  0  0  0
   -0.0983   -5.6181    3.8123 H   0  0  0  0  0  0  0  0  0  0  0  0
    0.6249   -4.2357    4.5880 H   0  0  0  0  0  0  0  0  0  0  0  0
    0.7214   -5.8065    5.3477 H   0  0  0  0  0  0  0  0  0  0  0  0
    1.9082   -7.5669    4.4530 H   0  0  0  0  0  0  0  0  0  0  0  0
    1.1361   -8.6496    2.7375 H   0  0  0  0  0  0  0  0  0  0  0  0
    3.4999   -8.4336    2.3390 H   0  0  0  0  0  0  0  0  0  0  0  0
    5.0416   -4.6801   -1.8066 H   0  0  0  0  0  0  0  0  0  0  0  0
    2.8706   -2.3919   -0.4775 H   0  0  0  0  0  0  0  0  0  0  0  0
    3.1310   -3.4674   -1.8615 H   0  0  0  0  0  0  0  0  0  0  0  0
  1  2  1  0
  1 34  1  0
  1 35  1  0
  1 36  1  0
  2 33  1  0
  2  3  2  0
  3  4  1  0
  3 37  1  0
  4 31  1  0
  4  5  1  0
  4 38  1  6
  5  6  1  0
  5 39  1  0
  5 40  1  0
  6  7  1  0
  6  8  1  0
  6 41  1  1
  7 42  1  0
  8 19  1  0
  8  9  1  0
  8 43  1  1
  9 24  1  0
  9 10  1  1
  9 11  1  0
 10 44  1  0
 10 45  1  0
 10 46  1  0
 11 12  1  0
 11 47  1  0
 11 48  1  0
 12 25  1  0
 12 13  1  0
 12 49  1  1
 13 14  1  0
 14 29  1  0
 14 30  1  1
 14 15  1  0
 15 16  1  0
 15 50  1  0
 15 51  1  0
 16 17  1  0
 16 18  1  0
 16 52  1  1
 17 53  1  0
 19 18  1  1
 18 54  1  0
 18 55  1  0
 19 20  1  0
 19 31  1  0
 20 21  1  0
 20 22  1  0
 20 56  1  6
 21 57  1  0
 22 23  1  0
 22 24  1  0
 22 58  1  6
 23 59  1  0
 24 25  1  0
 24 60  1  6
 25 26  1  1
 25 27  1  0
 26 61  1  0
 26 62  1  0
 26 63  1  0
 27 28  1  0
 27 29  1  0
 27 64  1  1
 28 65  1  0
 29 30  1  0
 29 66  1  6
 31 32  1  6
 31 33  1  0
 32 67  1  0
 33 68  1  0
 33 69  1  0
M  END
>  <i_m_ct_stereo_status>  (91) 
1

>  <s_m_source_file>  (91) 
/var/tmp/pbs.5076255.sched01/tmpr7id634h/0ay6m0hv_.sdf

>  <i_m_source_file_index>  (91) 
37

>  <i_lp_mmshare_version>  (91) 
48012

>  <i_f3d_flags>  (91) 
0

>  <s_epik_input>  (91) 
W0NIM11DKFtDSDJdMSk9W0NIXVtDQEBIXShbQ0gyXVtDQEhdMltPSF0pW0NAQF0xKFtPSF0pW0NAXShbQ0gyXVtDQEBIXShbQ0gyXTMpW09IXSkoW0NAQEhdKFtPSF0pW0NAQEhdKFtPSF0pW0NASF00NSlbQ0BASF0yW0NAXTQoW0NIM10pW0NIMl1bQ0BIXShPNilbQ0BdNShbQ0gzXSlbQ0BASF0oW09IXSlbQ0BASF0oW0NAQF0zNjcpTzc=

>  <s_epik_cmdline>  (91) 
J2VwaWtfcHl0aG9uJywgJy1waHQnLCAnMi4wJywgJy1waCcsICc3LjAnLCAnLXRuJywgJzgnLCAnLW1hJywgJzIwMCcsICctaW1hZScsICc8aW5maWxlLm1hZT4nLCAnLW9tYWUnLCAnPG91dGZpbGUubWFlPic=

>  <r_lp_tautomer_probability>  (91) 
1

>  <r_epik_Ionization_Penalty>  (91) 
1.46327e-06

>  <r_epik_Ionization_Penalty_Charging>  (91) 
0

>  <r_epik_Ionization_Penalty_Neutral>  (91) 
1.46327e-06

>  <r_epik_State_Penalty>  (91) 
-0

>  <r_epik_Charging_Adjusted_Penalty>  (91) 
0

>  <i_epik_Tot_Q>  (91) 
0

>  <i_epik_Tot_abs_Q>  (91) 
0

>  <s_lp_Force_Field>  (91) 
OPLS3e

>  <r_lp_Energy>  (91) 
97.9864

>  <b_lp_Chiralities_Consistent>  (91) 
1

>  <s_lp_Variant>  (91) 
24:0-1

>  <s_i_glide_gridfile>  (91) 
pfpi4k_grid

>  <i_i_glide_lignum>  (91) 
37

>  <i_i_glide_rotatable_bonds>  (91) 
6

>  <r_i_docking_score>  (91) 
-3.63104

>  <r_i_glide_ligand_efficiency>  (91) 
-0.110032

>  <r_i_glide_ligand_efficiency_sa>  (91) 
-0.35293

>  <r_i_glide_ligand_efficiency_ln>  (91) 
-0.807525

>  <r_i_glide_gscore>  (91) 
-3.63104

>  <r_i_glide_lipo>  (91) 
-0.430769

>  <r_i_glide_hbond>  (91) 
0

>  <r_i_glide_metal>  (91) 
-0

>  <r_i_glide_rewards>  (91) 
-0.741714

>  <r_i_glide_evdw>  (91) 
-29.4494

>  <r_i_glide_ecoul>  (91) 
-6.57393

>  <r_i_glide_erotb>  (91) 
0

>  <r_i_glide_esite>  (91) 
0

>  <r_i_glide_emodel>  (91) 
-48.1324

>  <r_i_glide_energy>  (91) 
-36.0233

>  <r_i_glide_einternal>  (91) 
1.15523

>  <r_i_glide_intrahb_reward>  (91) 
-0.5

>  <i_i_glide_confnum>  (91) 
1

>  <i_i_glide_posenum>  (91) 
1

>  <r_i_glide_eff_state_penalty>  (91) 
0

>  <ligand_id>  (91) 
24

>  <original_smiles>  (91) 
CC1=CC2CC(O)C3C4(C)CC5OC67CC(O)CC3(C(O)C(O)C4C5(C)C(O)C6O7)C2(O)C1

>  <smiles>  (91) 
[H]OC1([H])C([H])([H])C23OC2([H])C([H])(O[H])C2(C([H])([H])[H])C([H])(O3)C([H])([H])C3(C([H])([H])[H])C2([H])C([H])(O[H])C([H])(O[H])C2(C1([H])[H])C3([H])C([H])(O[H])C([H])([H])C1([H])C([H])=C(C([H])([H])[H])C([H])([H])C12O[H]

$$$$
26:0:0
     RDKit          3D

 55 59  0  0  1  0  0  0  0  0999 V2000
    4.3145  -10.1927    2.9524 C   0  0  0  0  0  0  0  0  0  0  0  0
    4.0441   -8.6736    3.0294 C   0  0  2  0  0  0  0  0  0  0  0  0
    4.9195   -8.0713    4.1725 C   0  0  0  0  0  0  0  0  0  0  0  0
    4.6134   -6.6076    4.5715 C   0  0  0  0  0  0  0  0  0  0  0  0
    3.5630   -6.0139    3.6132 C   0  0  2  0  0  0  0  0  0  0  0  0
    3.3708   -4.4799    3.5766 C   0  0  1  0  0  0  0  0  0  0  0  0
    4.6745   -3.6553    3.6814 C   0  0  0  0  0  0  0  0  0  0  0  0
    2.6180   -4.1560    2.2226 C   0  0  1  0  0  0  0  0  0  0  0  0
    3.5007   -3.6985    1.2503 O   0  0  0  0  0  0  0  0  0  0  0  0
    4.2496   -4.6567    0.5161 C   0  0  0  0  0  0  0  0  0  0  0  0
    5.4881   -4.0482   -0.0655 C   0  0  0  0  0  0  0  0  0  0  0  0
    5.4544   -3.2271   -1.2023 C   0  0  0  0  0  0  0  0  0  0  0  0
    6.5932   -2.6996   -1.7244 N   0  0  0  0  0  0  0  0  0  0  0  0
    7.7478   -3.0243   -1.1031 C   0  0  0  0  0  0  0  0  0  0  0  0
    7.7841   -3.8344    0.0456 C   0  0  0  0  0  0  0  0  0  0  0  0
    6.6522   -4.3457    0.5674 N   0  0  0  0  0  0  0  0  0  0  0  0
    1.8562   -5.2515    1.7691 O   0  0  0  0  0  0  0  0  0  0  0  0
    1.2119   -5.9462    2.7926 C   0  0  1  0  0  0  0  0  0  0  0  0
    0.0826   -6.6454    2.4165 O   0  0  0  0  0  0  0  0  0  0  0  0
   -0.2919   -7.6337    3.3818 C   0  0  1  0  0  0  0  0  0  0  0  0
   -1.8042   -7.6306    3.4415 C   0  0  0  0  0  0  0  0  0  0  0  0
    0.1788   -8.9954    2.8601 C   0  0  0  0  0  0  0  0  0  0  0  0
    1.5641   -8.9443    2.2416 C   0  0  0  0  0  0  0  0  0  0  0  0
    2.5361   -8.3173    3.2546 C   0  0  2  0  0  0  0  0  0  0  0  0
    2.2295   -6.8043    3.6418 C   0  0  1  0  0  0  0  0  0  0  0  0
    1.5806   -6.8539    4.9009 O   0  0  0  0  0  0  0  0  0  0  0  0
    0.1149   -7.3611    4.7507 O   0  0  0  0  0  0  0  0  0  0  0  0
    3.9009  -10.6922    3.8299 H   0  0  0  0  0  0  0  0  0  0  0  0
    5.3845  -10.4190    2.8989 H   0  0  0  0  0  0  0  0  0  0  0  0
    3.8631  -10.6618    2.0784 H   0  0  0  0  0  0  0  0  0  0  0  0
    4.3677   -8.2587    2.0717 H   0  0  0  0  0  0  0  0  0  0  0  0
    4.7999   -8.6755    5.0736 H   0  0  0  0  0  0  0  0  0  0  0  0
    5.9753   -8.1560    3.8842 H   0  0  0  0  0  0  0  0  0  0  0  0
    4.3225   -6.5207    5.6200 H   0  0  0  0  0  0  0  0  0  0  0  0
    5.5447   -6.0610    4.4546 H   0  0  0  0  0  0  0  0  0  0  0  0
    3.9554   -6.2429    2.6253 H   0  0  0  0  0  0  0  0  0  0  0  0
    2.7157   -4.1857    4.3882 H   0  0  0  0  0  0  0  0  0  0  0  0
    5.4149   -3.9760    2.9550 H   0  0  0  0  0  0  0  0  0  0  0  0
    5.1612   -3.7553    4.6558 H   0  0  0  0  0  0  0  0  0  0  0  0
    4.5027   -2.5932    3.5096 H   0  0  0  0  0  0  0  0  0  0  0  0
    1.9200   -3.3302    2.4266 H   0  0  0  0  0  0  0  0  0  0  0  0
    4.6685   -5.4260    1.1279 H   0  0  0  0  0  0  0  0  0  0  0  0
    3.6217   -5.1109   -0.2360 H   0  0  0  0  0  0  0  0  0  0  0  0
    4.5017   -3.0215   -1.6569 H   0  0  0  0  0  0  0  0  0  0  0  0
    8.6561   -2.6276   -1.5271 H   0  0  0  0  0  0  0  0  0  0  0  0
    8.7100   -4.0850    0.5608 H   0  0  0  0  0  0  0  0  0  0  0  0
    0.7629   -5.1804    3.4418 H   0  0  0  0  0  0  0  0  0  0  0  0
   -2.1806   -6.6736    3.7932 H   0  0  0  0  0  0  0  0  0  0  0  0
   -2.1477   -8.4020    4.1257 H   0  0  0  0  0  0  0  0  0  0  0  0
   -2.2410   -7.8373    2.4683 H   0  0  0  0  0  0  0  0  0  0  0  0
    0.1435   -9.7370    3.6594 H   0  0  0  0  0  0  0  0  0  0  0  0
   -0.4782   -9.3711    2.0780 H   0  0  0  0  0  0  0  0  0  0  0  0
    1.7906   -9.9839    2.0075 H   0  0  0  0  0  0  0  0  0  0  0  0
    1.5869   -8.4043    1.2897 H   0  0  0  0  0  0  0  0  0  0  0  0
    2.3448   -8.8616    4.1828 H   0  0  0  0  0  0  0  0  0  0  0  0
  1  2  1  0
  1 28  1  0
  1 29  1  0
  1 30  1  0
  2 24  1  0
  2  3  1  0
  2 31  1  6
  3  4  1  0
  3 32  1  0
  3 33  1  0
  4  5  1  0
  4 34  1  0
  4 35  1  0
  5 25  1  0
  5  6  1  0
  5 36  1  6
  6  7  1  0
  6  8  1  0
  6 37  1  1
  7 38  1  0
  7 39  1  0
  7 40  1  0
  8  9  1  0
  8 17  1  0
  8 41  1  1
  9 10  1  0
 10 11  1  0
 10 42  1  0
 10 43  1  0
 11 16  1  0
 11 12  2  0
 12 13  1  0
 12 44  1  0
 13 14  2  0
 14 15  1  0
 14 45  1  0
 15 16  2  0
 15 46  1  0
 17 18  1  0
 18 25  1  0
 18 19  1  0
 18 47  1  1
 19 20  1  0
 20 27  1  0
 20 21  1  1
 20 22  1  0
 21 48  1  0
 21 49  1  0
 21 50  1  0
 22 23  1  0
 22 51  1  0
 22 52  1  0
 23 24  1  0
 23 53  1  0
 23 54  1  0
 24 25  1  0
 24 55  1  1
 25 26  1  1
 26 27  1  0
M  END
>  <i_m_ct_stereo_status>  (92) 
1

>  <s_m_source_file>  (92) 
/var/tmp/pbs.5076255.sched01/tmpr7id634h/0ay6m0hv_.sdf

>  <i_m_source_file_index>  (92) 
39

>  <i_lp_mmshare_version>  (92) 
48012

>  <i_f3d_flags>  (92) 
0

>  <s_epik_input>  (92) 
W0NAXTEyM1tDQEBIXTRbQ0gyXVtDSDJdW0NAQEhdKFtDSDNdKVtDQEBIXTJbQ0gyXVtDSDJdW0NAQF0oW0NIM10pKE9PMylPW0NAQEhdMU9bQ0BASF0oW0NAQEhdNFtDSDNdKU9bQ0gyXWM1W2NIXW5bY0hdW2NIXW41

>  <s_epik_cmdline>  (92) 
J2VwaWtfcHl0aG9uJywgJy1waHQnLCAnMi4wJywgJy1waCcsICc3LjAnLCAnLXRuJywgJzgnLCAnLW1hJywgJzIwMCcsICctaW1hZScsICc8aW5maWxlLm1hZT4nLCAnLW9tYWUnLCAnPG91dGZpbGUubWFlPic=

>  <r_lp_tautomer_probability>  (92) 
1

>  <r_epik_Ionization_Penalty>  (92) 
2.47668e-07

>  <r_epik_Ionization_Penalty_Charging>  (92) 
0

>  <r_epik_Ionization_Penalty_Neutral>  (92) 
2.47668e-07

>  <r_epik_State_Penalty>  (92) 
-0

>  <r_epik_Charging_Adjusted_Penalty>  (92) 
0

>  <i_epik_Tot_Q>  (92) 
0

>  <i_epik_Tot_abs_Q>  (92) 
0

>  <s_epik_Chemistry_Notes>  (92) 
This compound contains an acetal/aminal-like group ( X-CH(R)-Y where X, Y are N, S, or O) that may be acid/base labile, releasing an aldehyde.

>  <s_lp_Force_Field>  (92) 
OPLS3e

>  <r_lp_Energy>  (92) 
76.3308

>  <b_lp_Chiralities_Consistent>  (92) 
1

>  <s_lp_Variant>  (92) 
26:0-1

>  <s_i_glide_gridfile>  (92) 
pfpi4k_grid

>  <i_i_glide_lignum>  (92) 
39

>  <i_i_glide_rotatable_bonds>  (92) 
3

>  <r_i_docking_score>  (92) 
-3.11894

>  <r_i_glide_ligand_efficiency>  (92) 
-0.115516

>  <r_i_glide_ligand_efficiency_sa>  (92) 
-0.346549

>  <r_i_glide_ligand_efficiency_ln>  (92) 
-0.726037

>  <r_i_glide_gscore>  (92) 
-3.11894

>  <r_i_glide_lipo>  (92) 
-0.367897

>  <r_i_glide_hbond>  (92) 
-0.171274

>  <r_i_glide_metal>  (92) 
-0

>  <r_i_glide_rewards>  (92) 
-0.842409

>  <r_i_glide_evdw>  (92) 
-28.7721

>  <r_i_glide_ecoul>  (92) 
-4.08934

>  <r_i_glide_erotb>  (92) 
0.409798

>  <r_i_glide_esite>  (92) 
-0.0951485

>  <r_i_glide_emodel>  (92) 
-36.0122

>  <r_i_glide_energy>  (92) 
-32.8615

>  <r_i_glide_einternal>  (92) 
4.14215

>  <r_i_glide_intrahb_reward>  (92) 
-0

>  <i_i_glide_confnum>  (92) 
2

>  <i_i_glide_posenum>  (92) 
36

>  <r_i_glide_eff_state_penalty>  (92) 
0

>  <ligand_id>  (92) 
26

>  <original_smiles>  (92) 
CC1CCC2C(C)C(OCc3cnccn3)OC3OC4(C)CCC1C32OO4

>  <smiles>  (92) 
[H]c1nc([H])c(C([H])([H])OC2([H])OC3([H])OC4(C([H])([H])[H])OOC35C([H])(C([H])([H])C([H])([H])C([H])(C([H])([H])[H])C5([H])C([H])([H])C4([H])[H])C2([H])C([H])([H])[H])nc1[H]

$$$$
26:0:1
     RDKit          3D

 55 59  0  0  1  0  0  0  0  0999 V2000
    5.7232   -9.4536    1.3264 C   0  0  0  0  0  0  0  0  0  0  0  0
    5.1418   -8.0740    1.6857 C   0  0  2  0  0  0  0  0  0  0  0  0
    6.1842   -7.3128    2.5497 C   0  0  0  0  0  0  0  0  0  0  0  0
    5.6864   -5.9852    3.1692 C   0  0  0  0  0  0  0  0  0  0  0  0
    4.2743   -5.6537    2.6813 C   0  0  2  0  0  0  0  0  0  0  0  0
    3.7285   -4.2404    2.9393 C   0  0  1  0  0  0  0  0  0  0  0  0
    4.7532   -3.0861    2.7620 C   0  0  0  0  0  0  0  0  0  0  0  0
    2.4867   -4.0541    2.0269 C   0  0  1  0  0  0  0  0  0  0  0  0
    2.7975   -3.3644    0.8397 O   0  0  0  0  0  0  0  0  0  0  0  0
    3.4734   -4.0822   -0.1841 C   0  0  0  0  0  0  0  0  0  0  0  0
    3.4644   -3.3095   -1.4602 C   0  0  0  0  0  0  0  0  0  0  0  0
    4.6165   -2.6138   -1.9016 C   0  0  0  0  0  0  0  0  0  0  0  0
    4.6162   -1.9275   -3.0633 N   0  0  0  0  0  0  0  0  0  0  0  0
    3.4595   -1.9390   -3.7642 C   0  0  0  0  0  0  0  0  0  0  0  0
    2.3167   -2.6518   -3.3223 C   0  0  0  0  0  0  0  0  0  0  0  0
    2.3067   -3.3305   -2.1557 N   0  0  0  0  0  0  0  0  0  0  0  0
    1.8437   -5.2899    1.6937 O   0  0  0  0  0  0  0  0  0  0  0  0
    1.8290   -6.1910    2.7552 C   0  0  1  0  0  0  0  0  0  0  0  0
    0.8629   -7.1631    2.6483 O   0  0  0  0  0  0  0  0  0  0  0  0
    1.0826   -8.2395    3.5467 C   0  0  1  0  0  0  0  0  0  0  0  0
   -0.2885   -8.6380    4.0989 C   0  0  0  0  0  0  0  0  0  0  0  0
    1.6405   -9.4115    2.7238 C   0  0  0  0  0  0  0  0  0  0  0  0
    2.6865   -8.9637    1.7160 C   0  0  0  0  0  0  0  0  0  0  0  0
    3.7603   -8.1441    2.4209 C   0  0  2  0  0  0  0  0  0  0  0  0
    3.2602   -6.7686    3.0465 C   0  0  1  0  0  0  0  0  0  0  0  0
    3.1474   -7.0378    4.4308 O   0  0  0  0  0  0  0  0  0  0  0  0
    1.8941   -7.9168    4.7166 O   0  0  0  0  0  0  0  0  0  0  0  0
    5.7673  -10.0950    2.2037 H   0  0  0  0  0  0  0  0  0  0  0  0
    6.7402   -9.3829    0.9243 H   0  0  0  0  0  0  0  0  0  0  0  0
    5.1316   -9.9693    0.5738 H   0  0  0  0  0  0  0  0  0  0  0  0
    5.0054   -7.5414    0.7450 H   0  0  0  0  0  0  0  0  0  0  0  0
    6.5257   -7.9500    3.3658 H   0  0  0  0  0  0  0  0  0  0  0  0
    7.0692   -7.1046    1.9407 H   0  0  0  0  0  0  0  0  0  0  0  0
    5.7206   -6.0325    4.2608 H   0  0  0  0  0  0  0  0  0  0  0  0
    6.3951   -5.2110    2.8760 H   0  0  0  0  0  0  0  0  0  0  0  0
    4.3656   -5.6872    1.5909 H   0  0  0  0  0  0  0  0  0  0  0  0
    3.3680   -4.2100    3.9679 H   0  0  0  0  0  0  0  0  0  0  0  0
    5.2739   -3.1286    1.8055 H   0  0  0  0  0  0  0  0  0  0  0  0
    5.5317   -3.0968    3.5245 H   0  0  0  0  0  0  0  0  0  0  0  0
    4.2747   -2.1044    2.8134 H   0  0  0  0  0  0  0  0  0  0  0  0
    1.7548   -3.4324    2.5254 H   0  0  0  0  0  0  0  0  0  0  0  0
    4.5195   -4.2525    0.0476 H   0  0  0  0  0  0  0  0  0  0  0  0
    3.0193   -5.0488   -0.3951 H   0  0  0  0  0  0  0  0  0  0  0  0
    5.5289   -2.6300   -1.3275 H   0  0  0  0  0  0  0  0  0  0  0  0
    3.4440   -1.3788   -4.6861 H   0  0  0  0  0  0  0  0  0  0  0  0
    1.3996   -2.6590   -3.8872 H   0  0  0  0  0  0  0  0  0  0  0  0
    1.4716   -5.6250    3.6164 H   0  0  0  0  0  0  0  0  0  0  0  0
   -0.7445   -7.8206    4.6660 H   0  0  0  0  0  0  0  0  0  0  0  0
   -0.1964   -9.4995    4.7598 H   0  0  0  0  0  0  0  0  0  0  0  0
   -0.9765   -8.9127    3.2959 H   0  0  0  0  0  0  0  0  0  0  0  0
    2.0551  -10.1634    3.3913 H   0  0  0  0  0  0  0  0  0  0  0  0
    0.8541   -9.9047    2.1540 H   0  0  0  0  0  0  0  0  0  0  0  0
    3.0558   -9.8871    1.2732 H   0  0  0  0  0  0  0  0  0  0  0  0
    2.2314   -8.3969    0.8881 H   0  0  0  0  0  0  0  0  0  0  0  0
    4.0286   -8.7488    3.2847 H   0  0  0  0  0  0  0  0  0  0  0  0
  1  2  1  0
  1 28  1  0
  1 29  1  0
  1 30  1  0
  2 24  1  0
  2  3  1  0
  2 31  1  6
  3  4  1  0
  3 32  1  0
  3 33  1  0
  4  5  1  0
  4 34  1  0
  4 35  1  0
  5 25  1  0
  5  6  1  0
  5 36  1  6
  6  7  1  0
  6  8  1  0
  6 37  1  1
  7 38  1  0
  7 39  1  0
  7 40  1  0
  8  9  1  0
  8 17  1  0
  8 41  1  1
  9 10  1  0
 10 11  1  0
 10 42  1  0
 10 43  1  0
 11 16  1  0
 11 12  2  0
 12 13  1  0
 12 44  1  0
 13 14  2  0
 14 15  1  0
 14 45  1  0
 15 16  2  0
 15 46  1  0
 17 18  1  0
 18 25  1  0
 18 19  1  0
 18 47  1  1
 19 20  1  0
 20 27  1  0
 20 21  1  1
 20 22  1  0
 21 48  1  0
 21 49  1  0
 21 50  1  0
 22 23  1  0
 22 51  1  0
 22 52  1  0
 23 24  1  0
 23 53  1  0
 23 54  1  0
 24 25  1  0
 24 55  1  1
 25 26  1  1
 26 27  1  0
M  END
>  <i_m_ct_stereo_status>  (93) 
1

>  <s_m_source_file>  (93) 
/var/tmp/pbs.5076255.sched01/tmpr7id634h/0ay6m0hv_.sdf

>  <i_m_source_file_index>  (93) 
39

>  <i_lp_mmshare_version>  (93) 
48012

>  <i_f3d_flags>  (93) 
0

>  <s_epik_input>  (93) 
W0NAXTEyM1tDQEBIXTRbQ0gyXVtDSDJdW0NAQEhdKFtDSDNdKVtDQEBIXTJbQ0gyXVtDSDJdW0NAQF0oW0NIM10pKE9PMylPW0NAQEhdMU9bQ0BASF0oW0NAQEhdNFtDSDNdKU9bQ0gyXWM1W2NIXW5bY0hdW2NIXW41

>  <s_epik_cmdline>  (93) 
J2VwaWtfcHl0aG9uJywgJy1waHQnLCAnMi4wJywgJy1waCcsICc3LjAnLCAnLXRuJywgJzgnLCAnLW1hJywgJzIwMCcsICctaW1hZScsICc8aW5maWxlLm1hZT4nLCAnLW9tYWUnLCAnPG91dGZpbGUubWFlPic=

>  <r_lp_tautomer_probability>  (93) 
1

>  <r_epik_Ionization_Penalty>  (93) 
2.47668e-07

>  <r_epik_Ionization_Penalty_Charging>  (93) 
0

>  <r_epik_Ionization_Penalty_Neutral>  (93) 
2.47668e-07

>  <r_epik_State_Penalty>  (93) 
-0

>  <r_epik_Charging_Adjusted_Penalty>  (93) 
0

>  <i_epik_Tot_Q>  (93) 
0

>  <i_epik_Tot_abs_Q>  (93) 
0

>  <s_epik_Chemistry_Notes>  (93) 
This compound contains an acetal/aminal-like group ( X-CH(R)-Y where X, Y are N, S, or O) that may be acid/base labile, releasing an aldehyde.

>  <s_lp_Force_Field>  (93) 
OPLS3e

>  <r_lp_Energy>  (93) 
76.3308

>  <b_lp_Chiralities_Consistent>  (93) 
1

>  <s_lp_Variant>  (93) 
26:0-1

>  <s_i_glide_gridfile>  (93) 
pfpi4k_grid

>  <i_i_glide_lignum>  (93) 
39

>  <i_i_glide_rotatable_bonds>  (93) 
3

>  <r_i_docking_score>  (93) 
-2.76615

>  <r_i_glide_ligand_efficiency>  (93) 
-0.10245

>  <r_i_glide_ligand_efficiency_sa>  (93) 
-0.30735

>  <r_i_glide_ligand_efficiency_ln>  (93) 
-0.643915

>  <r_i_glide_gscore>  (93) 
-2.76615

>  <r_i_glide_lipo>  (93) 
-0.547614

>  <r_i_glide_hbond>  (93) 
-0.0385746

>  <r_i_glide_metal>  (93) 
-0

>  <r_i_glide_rewards>  (93) 
-0.842409

>  <r_i_glide_evdw>  (93) 
-30.5911

>  <r_i_glide_ecoul>  (93) 
-1.16265

>  <r_i_glide_erotb>  (93) 
0.409798

>  <r_i_glide_esite>  (93) 
-0.0433996

>  <r_i_glide_emodel>  (93) 
-35.3507

>  <r_i_glide_energy>  (93) 
-31.7538

>  <r_i_glide_einternal>  (93) 
3.63661

>  <r_i_glide_intrahb_reward>  (93) 
-0

>  <i_i_glide_confnum>  (93) 
5

>  <i_i_glide_posenum>  (93) 
10

>  <r_i_glide_eff_state_penalty>  (93) 
0

>  <ligand_id>  (93) 
26

>  <original_smiles>  (93) 
CC1CCC2C(C)C(OCc3cnccn3)OC3OC4(C)CCC1C32OO4

>  <smiles>  (93) 
[H]c1nc([H])c(C([H])([H])OC2([H])OC3([H])OC4(C([H])([H])[H])OOC35C([H])(C([H])([H])C([H])([H])C([H])(C([H])([H])[H])C5([H])C([H])([H])C4([H])[H])C2([H])C([H])([H])[H])nc1[H]

$$$$
26:0:2
     RDKit          3D

 55 59  0  0  1  0  0  0  0  0999 V2000
    4.3989   -1.1374    4.8198 C   0  0  0  0  0  0  0  0  0  0  0  0
    4.2780   -2.4138    3.9630 C   0  0  2  0  0  0  0  0  0  0  0  0
    5.2350   -3.4984    4.5384 C   0  0  0  0  0  0  0  0  0  0  0  0
    5.4160   -4.7547    3.6610 C   0  0  0  0  0  0  0  0  0  0  0  0
    4.4774   -4.7058    2.4470 C   0  0  2  0  0  0  0  0  0  0  0  0
    4.2764   -6.0073    1.6417 C   0  0  1  0  0  0  0  0  0  0  0  0
    4.1877   -7.3174    2.4789 C   0  0  0  0  0  0  0  0  0  0  0  0
    2.9820   -5.7759    0.7778 C   0  0  1  0  0  0  0  0  0  0  0  0
    1.8729   -6.3868    1.3615 O   0  0  0  0  0  0  0  0  0  0  0  0
    1.3648   -5.7852    2.5577 C   0  0  0  0  0  0  0  0  0  0  0  0
    0.3521   -6.6600    3.2154 C   0  0  0  0  0  0  0  0  0  0  0  0
    0.5382   -7.0536    4.5607 C   0  0  0  0  0  0  0  0  0  0  0  0
   -0.3445   -7.8503    5.1782 N   0  0  0  0  0  0  0  0  0  0  0  0
   -1.3922   -8.2630    4.4461 C   0  0  0  0  0  0  0  0  0  0  0  0
   -1.5676   -7.8802    3.0824 C   0  0  0  0  0  0  0  0  0  0  0  0
   -0.7059   -7.0570    2.4730 N   0  0  0  0  0  0  0  0  0  0  0  0
    2.7243   -4.4046    0.5395 O   0  0  0  0  0  0  0  0  0  0  0  0
    3.8867   -3.6864    0.2570 C   0  0  1  0  0  0  0  0  0  0  0  0
    3.7006   -2.5299   -0.4561 O   0  0  0  0  0  0  0  0  0  0  0  0
    4.8278   -1.6655   -0.4048 C   0  0  1  0  0  0  0  0  0  0  0  0
    4.9985   -1.0706   -1.8000 C   0  0  0  0  0  0  0  0  0  0  0  0
    4.4761   -0.5431    0.5761 C   0  0  0  0  0  0  0  0  0  0  0  0
    3.7482   -1.0446    1.8121 C   0  0  0  0  0  0  0  0  0  0  0  0
    4.5736   -2.1662    2.4466 C   0  0  2  0  0  0  0  0  0  0  0  0
    4.7481   -3.4672    1.5509 C   0  0  1  0  0  0  0  0  0  0  0  0
    6.0538   -3.3740    1.0147 O   0  0  0  0  0  0  0  0  0  0  0  0
    6.0995   -2.3049   -0.1053 O   0  0  0  0  0  0  0  0  0  0  0  0
    5.3689   -0.6684    4.6615 H   0  0  0  0  0  0  0  0  0  0  0  0
    4.2989   -1.3589    5.8826 H   0  0  0  0  0  0  0  0  0  0  0  0
    3.6284   -0.4057    4.5869 H   0  0  0  0  0  0  0  0  0  0  0  0
    3.2483   -2.7591    4.0708 H   0  0  0  0  0  0  0  0  0  0  0  0
    6.2154   -3.0601    4.7067 H   0  0  0  0  0  0  0  0  0  0  0  0
    4.8838   -3.7984    5.5285 H   0  0  0  0  0  0  0  0  0  0  0  0
    6.4540   -4.8850    3.3445 H   0  0  0  0  0  0  0  0  0  0  0  0
    5.1832   -5.6181    4.2790 H   0  0  0  0  0  0  0  0  0  0  0  0
    3.5223   -4.4959    2.8540 H   0  0  0  0  0  0  0  0  0  0  0  0
    5.1031   -6.1157    0.9449 H   0  0  0  0  0  0  0  0  0  0  0  0
    3.4746   -7.2653    3.3009 H   0  0  0  0  0  0  0  0  0  0  0  0
    5.1421   -7.5630    2.9448 H   0  0  0  0  0  0  0  0  0  0  0  0
    3.8906   -8.1627    1.8619 H   0  0  0  0  0  0  0  0  0  0  0  0
    3.1185   -6.2374   -0.1978 H   0  0  0  0  0  0  0  0  0  0  0  0
    2.0824   -5.6503    3.3332 H   0  0  0  0  0  0  0  0  0  0  0  0
    0.9453   -4.7978    2.3458 H   0  0  0  0  0  0  0  0  0  0  0  0
    1.3857   -6.7409    5.1388 H   0  0  0  0  0  0  0  0  0  0  0  0
   -2.1054   -8.9057    4.9251 H   0  0  0  0  0  0  0  0  0  0  0  0
   -2.4045   -8.2241    2.5044 H   0  0  0  0  0  0  0  0  0  0  0  0
    4.4437   -4.2911   -0.4679 H   0  0  0  0  0  0  0  0  0  0  0  0
    5.2296   -1.8429   -2.5329 H   0  0  0  0  0  0  0  0  0  0  0  0
    5.8085   -0.3486   -1.7880 H   0  0  0  0  0  0  0  0  0  0  0  0
    4.0955   -0.5517   -2.1196 H   0  0  0  0  0  0  0  0  0  0  0  0
    5.3717    0.0129    0.8521 H   0  0  0  0  0  0  0  0  0  0  0  0
    3.8134    0.1694    0.1016 H   0  0  0  0  0  0  0  0  0  0  0  0
    3.6446   -0.1663    2.4471 H   0  0  0  0  0  0  0  0  0  0  0  0
    2.7306   -1.3777    1.5893 H   0  0  0  0  0  0  0  0  0  0  0  0
    5.5805   -1.7509    2.5071 H   0  0  0  0  0  0  0  0  0  0  0  0
  1  2  1  0
  1 28  1  0
  1 29  1  0
  1 30  1  0
  2 24  1  0
  2  3  1  0
  2 31  1  6
  3  4  1  0
  3 32  1  0
  3 33  1  0
  4  5  1  0
  4 34  1  0
  4 35  1  0
  5 25  1  0
  5  6  1  0
  5 36  1  1
  6  7  1  0
  6  8  1  0
  6 37  1  6
  7 38  1  0
  7 39  1  0
  7 40  1  0
  8  9  1  0
  8 17  1  0
  8 41  1  6
  9 10  1  0
 10 11  1  0
 10 42  1  0
 10 43  1  0
 11 16  1  0
 11 12  2  0
 12 13  1  0
 12 44  1  0
 13 14  2  0
 14 15  1  0
 14 45  1  0
 15 16  2  0
 15 46  1  0
 17 18  1  0
 18 25  1  0
 18 19  1  0
 18 47  1  6
 19 20  1  0
 20 27  1  0
 20 21  1  6
 20 22  1  0
 21 48  1  0
 21 49  1  0
 21 50  1  0
 22 23  1  0
 22 51  1  0
 22 52  1  0
 23 24  1  0
 23 53  1  0
 23 54  1  0
 24 25  1  0
 24 55  1  1
 25 26  1  6
 26 27  1  0
M  END
>  <i_m_ct_stereo_status>  (94) 
1

>  <s_m_source_file>  (94) 
/var/tmp/pbs.5076255.sched01/tmpr7id634h/0ay6m0hv_.sdf

>  <i_m_source_file_index>  (94) 
39

>  <i_lp_mmshare_version>  (94) 
48012

>  <i_f3d_flags>  (94) 
0

>  <s_epik_input>  (94) 
W0NAXTEyM1tDQEBIXTRbQ0gyXVtDSDJdW0NAQEhdKFtDSDNdKVtDQEBIXTJbQ0gyXVtDSDJdW0NAQF0oW0NIM10pKE9PMylPW0NAQEhdMU9bQ0BASF0oW0NAQEhdNFtDSDNdKU9bQ0gyXWM1W2NIXW5bY0hdW2NIXW41

>  <s_epik_cmdline>  (94) 
J2VwaWtfcHl0aG9uJywgJy1waHQnLCAnMi4wJywgJy1waCcsICc3LjAnLCAnLXRuJywgJzgnLCAnLW1hJywgJzIwMCcsICctaW1hZScsICc8aW5maWxlLm1hZT4nLCAnLW9tYWUnLCAnPG91dGZpbGUubWFlPic=

>  <r_lp_tautomer_probability>  (94) 
1

>  <r_epik_Ionization_Penalty>  (94) 
2.47668e-07

>  <r_epik_Ionization_Penalty_Charging>  (94) 
0

>  <r_epik_Ionization_Penalty_Neutral>  (94) 
2.47668e-07

>  <r_epik_State_Penalty>  (94) 
-0

>  <r_epik_Charging_Adjusted_Penalty>  (94) 
0

>  <i_epik_Tot_Q>  (94) 
0

>  <i_epik_Tot_abs_Q>  (94) 
0

>  <s_epik_Chemistry_Notes>  (94) 
This compound contains an acetal/aminal-like group ( X-CH(R)-Y where X, Y are N, S, or O) that may be acid/base labile, releasing an aldehyde.

>  <s_lp_Force_Field>  (94) 
OPLS3e

>  <r_lp_Energy>  (94) 
76.3308

>  <b_lp_Chiralities_Consistent>  (94) 
1

>  <s_lp_Variant>  (94) 
26:0-1

>  <s_i_glide_gridfile>  (94) 
pfpi4k_grid

>  <i_i_glide_lignum>  (94) 
39

>  <i_i_glide_rotatable_bonds>  (94) 
3

>  <r_i_docking_score>  (94) 
-2.62192

>  <r_i_glide_ligand_efficiency>  (94) 
-0.0971082

>  <r_i_glide_ligand_efficiency_sa>  (94) 
-0.291325

>  <r_i_glide_ligand_efficiency_ln>  (94) 
-0.61034

>  <r_i_glide_gscore>  (94) 
-2.62192

>  <r_i_glide_lipo>  (94) 
-0.282139

>  <r_i_glide_hbond>  (94) 
-0.16

>  <r_i_glide_metal>  (94) 
-0

>  <r_i_glide_rewards>  (94) 
-0.853489

>  <r_i_glide_evdw>  (94) 
-25.7446

>  <r_i_glide_ecoul>  (94) 
-2.74213

>  <r_i_glide_erotb>  (94) 
0.409798

>  <r_i_glide_esite>  (94) 
-0.0375426

>  <r_i_glide_emodel>  (94) 
-31.1555

>  <r_i_glide_energy>  (94) 
-28.4867

>  <r_i_glide_einternal>  (94) 
3.95019

>  <r_i_glide_intrahb_reward>  (94) 
-0

>  <i_i_glide_confnum>  (94) 
5

>  <i_i_glide_posenum>  (94) 
2

>  <r_i_glide_eff_state_penalty>  (94) 
0

>  <ligand_id>  (94) 
26

>  <original_smiles>  (94) 
CC1CCC2C(C)C(OCc3cnccn3)OC3OC4(C)CCC1C32OO4

>  <smiles>  (94) 
[H]c1nc([H])c(C([H])([H])OC2([H])OC3([H])OC4(C([H])([H])[H])OOC35C([H])(C([H])([H])C([H])([H])C([H])(C([H])([H])[H])C5([H])C([H])([H])C4([H])[H])C2([H])C([H])([H])[H])nc1[H]

$$$$
28:0:0
     RDKit          3D

 46 51  0  0  1  0  0  0  0  0999 V2000
    2.1888   -2.9158   -3.2337 C   0  0  0  0  0  0  0  0  0  0  0  0
    3.0198   -2.0555   -2.3769 N   0  0  0  0  0  0  0  0  0  0  0  0
    4.3400   -1.9484   -2.9592 C   0  0  0  0  0  0  0  0  0  0  0  0
    5.4483   -1.4808   -1.9939 C   0  0  0  0  0  0  0  0  0  0  0  0
    5.2007   -1.5722   -0.5212 N   0  0  2  0  0  0  0  0  0  0  0  0
    5.9559   -0.7703    0.2949 C   0  0  1  0  0  0  0  0  0  0  0  0
    4.6736   -0.5483    0.9053 C   0  0  1  0  0  0  0  0  0  0  0  0
    3.2714   -1.2243    0.1217 C   0  0  2  0  0  0  0  0  0  0  0  0
    3.0002   -2.4959   -0.9779 C   0  0  2  0  0  0  0  0  0  0  0  0
    3.8736   -3.9015   -0.6824 C   0  0  1  0  0  0  0  0  0  0  0  0
    5.4066   -4.2721   -1.0105 C   0  0  0  0  0  0  0  0  0  0  0  0
    6.6150   -3.7832   -0.0269 C   0  0  0  0  0  0  0  0  0  0  0  0
    6.2342   -3.1315    1.3943 C   0  0  1  0  0  0  0  0  0  0  0  0
    5.9824   -1.4864    1.5484 C   0  0  1  0  0  0  0  0  0  0  0  0
    5.0156   -4.0184    1.8140 C   0  0  0  0  0  0  0  0  0  0  0  0
    5.3197   -5.5382    1.9089 C   0  0  0  0  0  0  0  0  0  0  0  0
    4.6313   -3.6403    3.2736 C   0  0  0  0  0  0  0  0  0  0  0  0
    3.8628   -3.7062    0.7586 C   0  0  1  0  0  0  0  0  0  0  0  0
    4.0456   -2.2637    0.3588 C   0  0  1  0  0  0  0  0  0  0  0  0
    2.1424   -2.5041   -4.2448 H   0  0  0  0  0  0  0  0  0  0  0  0
    1.1657   -2.9773   -2.8515 H   0  0  0  0  0  0  0  0  0  0  0  0
    2.5747   -3.9375   -3.3086 H   0  0  0  0  0  0  0  0  0  0  0  0
    4.6260   -2.8803   -3.4434 H   0  0  0  0  0  0  0  0  0  0  0  0
    4.2572   -1.2097   -3.7543 H   0  0  0  0  0  0  0  0  0  0  0  0
    6.3762   -2.0004   -2.2453 H   0  0  0  0  0  0  0  0  0  0  0  0
    5.6086   -0.4203   -2.2047 H   0  0  0  0  0  0  0  0  0  0  0  0
    6.5576    0.0815   -0.0150 H   0  0  0  0  0  0  0  0  0  0  0  0
    4.5123    0.4269    1.3599 H   0  0  0  0  0  0  0  0  0  0  0  0
    2.3980   -1.0865    0.7655 H   0  0  0  0  0  0  0  0  0  0  0  0
    1.9614   -2.8005   -0.7955 H   0  0  0  0  0  0  0  0  0  0  0  0
    3.2494   -4.7514   -0.9171 H   0  0  0  0  0  0  0  0  0  0  0  0
    5.4125   -5.3629   -1.0091 H   0  0  0  0  0  0  0  0  0  0  0  0
    5.6636   -4.0832   -2.0506 H   0  0  0  0  0  0  0  0  0  0  0  0
    7.2408   -4.6610    0.1580 H   0  0  0  0  0  0  0  0  0  0  0  0
    7.2994   -3.1211   -0.5571 H   0  0  0  0  0  0  0  0  0  0  0  0
    7.0497   -3.3568    2.0709 H   0  0  0  0  0  0  0  0  0  0  0  0
    6.5437   -1.0186    2.3537 H   0  0  0  0  0  0  0  0  0  0  0  0
    4.4856   -6.0691    2.3692 H   0  0  0  0  0  0  0  0  0  0  0  0
    6.2027   -5.7205    2.5248 H   0  0  0  0  0  0  0  0  0  0  0  0
    5.4969   -6.0317    0.9581 H   0  0  0  0  0  0  0  0  0  0  0  0
    3.7028   -4.1226    3.5780 H   0  0  0  0  0  0  0  0  0  0  0  0
    4.5104   -2.5688    3.4380 H   0  0  0  0  0  0  0  0  0  0  0  0
    5.4084   -3.9668    3.9706 H   0  0  0  0  0  0  0  0  0  0  0  0
    2.8732   -3.9421    1.1782 H   0  0  0  0  0  0  0  0  0  0  0  0
    3.7540   -2.2222    1.4445 H   0  0  0  0  0  0  0  0  0  0  0  0
    4.5221   -0.8379   -0.6527 H   0  0  0  0  0  0  0  0  0  0  0  0
  1  2  1  0
  1 20  1  0
  1 21  1  0
  1 22  1  0
  2  9  1  0
  2  3  1  0
  3  4  1  0
  3 23  1  0
  3 24  1  0
  4  5  1  0
  4 25  1  0
  4 26  1  0
  5 19  1  0
  5  6  1  0
  5 46  1  1
  6 14  1  0
  6  7  1  0
  6 27  1  6
  7 14  1  0
  7  8  1  0
  7 28  1  1
  8 19  1  0
  8  9  1  0
  8 29  1  1
  9 10  1  0
  9 30  1  1
 10 18  1  0
 10 11  1  0
 10 31  1  1
 11 12  1  0
 11 32  1  0
 11 33  1  0
 12 13  1  0
 12 34  1  0
 12 35  1  0
 13 14  1  0
 13 15  1  0
 13 36  1  1
 14 37  1  1
 15 16  1  0
 15 17  1  0
 15 18  1  0
 16 38  1  0
 16 39  1  0
 16 40  1  0
 17 41  1  0
 17 42  1  0
 17 43  1  0
 18 19  1  0
 18 44  1  1
 19 45  1  1
M  CHG  1   5   1
M  END
>  <i_m_ct_stereo_status>  (95) 
1

>  <s_m_source_file>  (95) 
/var/tmp/pbs.5076255.sched01/tmpr7id634h/0ay6m0hv_.sdf

>  <i_m_source_file_index>  (95) 
41

>  <i_lp_mmshare_version>  (95) 
48012

>  <i_f3d_flags>  (95) 
0

>  <s_epik_input>  (95) 
TjEyW0NASF0zW0NASF00W0NASF01W0NAQEhdKE4oW0NIM10pW0NIMl1bQ0gyXTEpW0NAQEhdNltDQEhdKFtDQEBIXTI1KUMoW0NIM10pKFtDSDNdKVtDQEhdKFtDQEBIXTM0KVtDSDJdW0NIMl02

>  <s_epik_cmdline>  (95) 
J2VwaWtfcHl0aG9uJywgJy1waHQnLCAnMi4wJywgJy1waCcsICc3LjAnLCAnLXRuJywgJzgnLCAnLW1hJywgJzIwMCcsICctaW1hZScsICc8aW5maWxlLm1hZT4nLCAnLW9tYWUnLCAnPG91dGZpbGUubWFlPic=

>  <r_epik_Ionization_Penalty>  (95) 
0.000680488

>  <r_epik_Ionization_Penalty_Charging>  (95) 
1.89504e-05

>  <r_epik_Ionization_Penalty_Neutral>  (95) 
0.000661538

>  <r_epik_State_Penalty>  (95) 
0.00678404

>  <r_epik_Charging_Adjusted_Penalty>  (95) 
0.00680299

>  <i_epik_Tot_Q>  (95) 
1

>  <i_epik_Tot_abs_Q>  (95) 
1

>  <s_lp_Force_Field>  (95) 
OPLS3e

>  <r_lp_Energy>  (95) 
431.962

>  <b_lp_Chiralities_Consistent>  (95) 
1

>  <s_lp_Variant>  (95) 
28:0-1

>  <s_i_glide_gridfile>  (95) 
pfpi4k_grid

>  <i_i_glide_lignum>  (95) 
41

>  <i_i_glide_rotatable_bonds>  (95) 
0

>  <r_i_docking_score>  (95) 
-3.75558

>  <r_i_glide_ligand_efficiency>  (95) 
-0.197662

>  <r_i_glide_ligand_efficiency_sa>  (95) 
-0.527442

>  <r_i_glide_ligand_efficiency_ln>  (95) 
-0.95212

>  <r_i_glide_gscore>  (95) 
-3.75558

>  <r_i_glide_lipo>  (95) 
-0.943603

>  <r_i_glide_hbond>  (95) 
0

>  <r_i_glide_metal>  (95) 
-0

>  <r_i_glide_rewards>  (95) 
-1.64039

>  <r_i_glide_evdw>  (95) 
-16.4137

>  <r_i_glide_ecoul>  (95) 
-2.16784

>  <r_i_glide_erotb>  (95) 
0

>  <r_i_glide_esite>  (95) 
-0.0257274

>  <r_i_glide_emodel>  (95) 
-21.9741

>  <r_i_glide_energy>  (95) 
-18.5815

>  <r_i_glide_einternal>  (95) 
0

>  <r_i_glide_intrahb_reward>  (95) 
-0

>  <i_i_glide_confnum>  (95) 
2

>  <i_i_glide_posenum>  (95) 
34

>  <r_i_glide_eff_state_penalty>  (95) 
0

>  <ligand_id>  (95) 
28

>  <original_smiles>  (95) 
CN1CCN2C3C4C5C1C1CCC(C43)C(C)(C)C1C52

>  <smiles>  (95) 
[H]C([H])([H])N1C([H])([H])C([H])([H])[N+]2([H])C3([H])C4([H])C5([H])C([H])([H])C([H])([H])C6([H])C1([H])C([H])(C43[H])C2([H])C6([H])C5(C([H])([H])[H])C([H])([H])[H]

$$$$
28:0:1
     RDKit          3D

 46 51  0  0  1  0  0  0  0  0999 V2000
    2.6034   -3.6561   -3.7762 C   0  0  0  0  0  0  0  0  0  0  0  0
    2.7467   -2.6995   -2.6794 N   0  0  0  0  0  0  0  0  0  0  0  0
    3.6784   -1.6745   -3.1118 C   0  0  0  0  0  0  0  0  0  0  0  0
    4.3305   -0.8454   -1.9948 C   0  0  0  0  0  0  0  0  0  0  0  0
    4.2447   -1.3748   -0.5881 N   0  0  2  0  0  0  0  0  0  0  0  0
    4.4046   -0.4792    0.4321 C   0  0  1  0  0  0  0  0  0  0  0  0
    3.3036   -1.2465    0.9603 C   0  0  1  0  0  0  0  0  0  0  0  0
    2.6105   -2.4901   -0.0496 C   0  0  2  0  0  0  0  0  0  0  0  0
    3.1162   -3.3514   -1.4192 C   0  0  2  0  0  0  0  0  0  0  0  0
    4.7118   -3.9139   -1.3493 C   0  0  1  0  0  0  0  0  0  0  0  0
    6.1059   -3.1360   -1.5954 C   0  0  0  0  0  0  0  0  0  0  0  0
    6.7689   -2.2456   -0.4083 C   0  0  0  0  0  0  0  0  0  0  0  0
    6.1618   -2.3086    1.0761 C   0  0  1  0  0  0  0  0  0  0  0  0
    4.9351   -1.2672    1.5234 C   0  0  1  0  0  0  0  0  0  0  0  0
    5.7899   -3.8296    1.1837 C   0  0  0  0  0  0  0  0  0  0  0  0
    6.9838   -4.8026    0.9976 C   0  0  0  0  0  0  0  0  0  0  0  0
    5.3262   -4.1099    2.6409 C   0  0  0  0  0  0  0  0  0  0  0  0
    4.6539   -4.0904    0.1008 C   0  0  1  0  0  0  0  0  0  0  0  0
    3.8698   -2.8137    0.0273 C   0  0  1  0  0  0  0  0  0  0  0  0
    2.2723   -3.1592   -4.6865 H   0  0  0  0  0  0  0  0  0  0  0  0
    1.8321   -4.3768   -3.5207 H   0  0  0  0  0  0  0  0  0  0  0  0
    3.5276   -4.2008   -4.0005 H   0  0  0  0  0  0  0  0  0  0  0  0
    4.4545   -2.0943   -3.7555 H   0  0  0  0  0  0  0  0  0  0  0  0
    3.1025   -0.9887   -3.7328 H   0  0  0  0  0  0  0  0  0  0  0  0
    5.3670   -0.6085   -2.2437 H   0  0  0  0  0  0  0  0  0  0  0  0
    3.8414    0.1151   -2.0378 H   0  0  0  0  0  0  0  0  0  0  0  0
    4.2877    0.5949    0.3550 H   0  0  0  0  0  0  0  0  0  0  0  0
    2.5965   -0.7087    1.5856 H   0  0  0  0  0  0  0  0  0  0  0  0
    1.8623   -3.0576    0.5127 H   0  0  0  0  0  0  0  0  0  0  0  0
    2.4872   -4.2503   -1.3862 H   0  0  0  0  0  0  0  0  0  0  0  0
    4.7690   -4.8756   -1.8345 H   0  0  0  0  0  0  0  0  0  0  0  0
    6.8653   -3.8546   -1.8323 H   0  0  0  0  0  0  0  0  0  0  0  0
    6.0888   -2.5966   -2.5377 H   0  0  0  0  0  0  0  0  0  0  0  0
    7.8134   -2.5624   -0.3487 H   0  0  0  0  0  0  0  0  0  0  0  0
    6.8225   -1.2011   -0.6990 H   0  0  0  0  0  0  0  0  0  0  0  0
    6.9761   -2.0756    1.7483 H   0  0  0  0  0  0  0  0  0  0  0  0
    5.1199   -0.7367    2.4476 H   0  0  0  0  0  0  0  0  0  0  0  0
    6.6932   -5.8225    1.2567 H   0  0  0  0  0  0  0  0  0  0  0  0
    7.8184   -4.5265    1.6437 H   0  0  0  0  0  0  0  0  0  0  0  0
    7.3675   -4.8466   -0.0134 H   0  0  0  0  0  0  0  0  0  0  0  0
    4.9169   -5.1142    2.7518 H   0  0  0  0  0  0  0  0  0  0  0  0
    4.5822   -3.4064    3.0174 H   0  0  0  0  0  0  0  0  0  0  0  0
    6.1713   -4.0450    3.3261 H   0  0  0  0  0  0  0  0  0  0  0  0
    4.0476   -4.9666    0.3712 H   0  0  0  0  0  0  0  0  0  0  0  0
    3.6742   -3.1929    1.0670 H   0  0  0  0  0  0  0  0  0  0  0  0
    3.2511   -1.2025   -0.6264 H   0  0  0  0  0  0  0  0  0  0  0  0
  1  2  1  0
  1 20  1  0
  1 21  1  0
  1 22  1  0
  2  9  1  0
  2  3  1  0
  3  4  1  0
  3 23  1  0
  3 24  1  0
  4  5  1  0
  4 25  1  0
  4 26  1  0
  5 19  1  0
  5  6  1  0
  5 46  1  6
  6 14  1  0
  6  7  1  0
  6 27  1  6
  7 14  1  0
  7  8  1  0
  7 28  1  1
  8 19  1  0
  8  9  1  0
  8 29  1  1
  9 10  1  0
  9 30  1  6
 10 18  1  0
 10 11  1  0
 10 31  1  6
 11 12  1  0
 11 32  1  0
 11 33  1  0
 12 13  1  0
 12 34  1  0
 12 35  1  0
 13 14  1  0
 13 15  1  0
 13 36  1  1
 14 37  1  1
 15 16  1  0
 15 17  1  0
 15 18  1  0
 16 38  1  0
 16 39  1  0
 16 40  1  0
 17 41  1  0
 17 42  1  0
 17 43  1  0
 18 19  1  0
 18 44  1  6
 19 45  1  1
M  CHG  1   5   1
M  END
>  <i_m_ct_stereo_status>  (96) 
1

>  <s_m_source_file>  (96) 
/var/tmp/pbs.5076255.sched01/tmpr7id634h/0ay6m0hv_.sdf

>  <i_m_source_file_index>  (96) 
41

>  <i_lp_mmshare_version>  (96) 
48012

>  <i_f3d_flags>  (96) 
0

>  <s_epik_input>  (96) 
TjEyW0NASF0zW0NASF00W0NASF01W0NAQEhdKE4oW0NIM10pW0NIMl1bQ0gyXTEpW0NAQEhdNltDQEhdKFtDQEBIXTI1KUMoW0NIM10pKFtDSDNdKVtDQEhdKFtDQEBIXTM0KVtDSDJdW0NIMl02

>  <s_epik_cmdline>  (96) 
J2VwaWtfcHl0aG9uJywgJy1waHQnLCAnMi4wJywgJy1waCcsICc3LjAnLCAnLXRuJywgJzgnLCAnLW1hJywgJzIwMCcsICctaW1hZScsICc8aW5maWxlLm1hZT4nLCAnLW9tYWUnLCAnPG91dGZpbGUubWFlPic=

>  <r_epik_Ionization_Penalty>  (96) 
0.000680488

>  <r_epik_Ionization_Penalty_Charging>  (96) 
1.89504e-05

>  <r_epik_Ionization_Penalty_Neutral>  (96) 
0.000661538

>  <r_epik_State_Penalty>  (96) 
0.00678404

>  <r_epik_Charging_Adjusted_Penalty>  (96) 
0.00680299

>  <i_epik_Tot_Q>  (96) 
1

>  <i_epik_Tot_abs_Q>  (96) 
1

>  <s_lp_Force_Field>  (96) 
OPLS3e

>  <r_lp_Energy>  (96) 
431.962

>  <b_lp_Chiralities_Consistent>  (96) 
1

>  <s_lp_Variant>  (96) 
28:0-1

>  <s_i_glide_gridfile>  (96) 
pfpi4k_grid

>  <i_i_glide_lignum>  (96) 
41

>  <i_i_glide_rotatable_bonds>  (96) 
0

>  <r_i_docking_score>  (96) 
-3.74777

>  <r_i_glide_ligand_efficiency>  (96) 
-0.197251

>  <r_i_glide_ligand_efficiency_sa>  (96) 
-0.526345

>  <r_i_glide_ligand_efficiency_ln>  (96) 
-0.950139

>  <r_i_glide_gscore>  (96) 
-3.74777

>  <r_i_glide_lipo>  (96) 
-0.927712

>  <r_i_glide_hbond>  (96) 
0

>  <r_i_glide_metal>  (96) 
-0

>  <r_i_glide_rewards>  (96) 
-1.64039

>  <r_i_glide_evdw>  (96) 
-14.8385

>  <r_i_glide_ecoul>  (96) 
-2.63266

>  <r_i_glide_erotb>  (96) 
0

>  <r_i_glide_esite>  (96) 
-0.0428398

>  <r_i_glide_emodel>  (96) 
-20.7537

>  <r_i_glide_energy>  (96) 
-17.4712

>  <r_i_glide_einternal>  (96) 
0

>  <r_i_glide_intrahb_reward>  (96) 
-0

>  <i_i_glide_confnum>  (96) 
1

>  <i_i_glide_posenum>  (96) 
2

>  <r_i_glide_eff_state_penalty>  (96) 
0

>  <ligand_id>  (96) 
28

>  <original_smiles>  (96) 
CN1CCN2C3C4C5C1C1CCC(C43)C(C)(C)C1C52

>  <smiles>  (96) 
[H]C([H])([H])N1C([H])([H])C([H])([H])[N+]2([H])C3([H])C4([H])C5([H])C([H])([H])C([H])([H])C6([H])C1([H])C([H])(C43[H])C2([H])C6([H])C5(C([H])([H])[H])C([H])([H])[H]

$$$$
28:0:2
     RDKit          3D

 46 51  0  0  1  0  0  0  0  0999 V2000
    2.9353   -3.1556   -3.6702 C   0  0  0  0  0  0  0  0  0  0  0  0
    3.8467   -2.5043   -2.7177 N   0  0  0  0  0  0  0  0  0  0  0  0
    5.1463   -3.1605   -2.8024 C   0  0  0  0  0  0  0  0  0  0  0  0
    6.0989   -2.9521   -1.6032 C   0  0  0  0  0  0  0  0  0  0  0  0
    5.4973   -2.5025   -0.3101 N   0  0  2  0  0  0  0  0  0  0  0  0
    6.3332   -1.8727    0.5826 C   0  0  1  0  0  0  0  0  0  0  0  0
    5.2149   -0.9742    0.6721 C   0  0  1  0  0  0  0  0  0  0  0  0
    3.8794   -1.2059   -0.4288 C   0  0  2  0  0  0  0  0  0  0  0  0
    3.2993   -2.5013   -1.3598 C   0  0  2  0  0  0  0  0  0  0  0  0
    3.2849   -4.0028   -0.5818 C   0  0  1  0  0  0  0  0  0  0  0  0
    4.4825   -5.0524   -0.2908 C   0  0  0  0  0  0  0  0  0  0  0  0
    5.5055   -4.8393    0.9660 C   0  0  0  0  0  0  0  0  0  0  0  0
    5.1726   -3.7001    2.0575 C   0  0  1  0  0  0  0  0  0  0  0  0
    5.7147   -2.1327    1.8607 C   0  0  1  0  0  0  0  0  0  0  0  0
    3.6127   -3.8429    2.1536 C   0  0  0  0  0  0  0  0  0  0  0  0
    3.1042   -5.2485    2.5703 C   0  0  0  0  0  0  0  0  0  0  0  0
    3.1231   -2.9310    3.3165 C   0  0  0  0  0  0  0  0  0  0  0  0
    3.0336   -3.4091    0.7274 C   0  0  1  0  0  0  0  0  0  0  0  0
    3.9851   -2.3599    0.2064 C   0  0  1  0  0  0  0  0  0  0  0  0
    3.3449   -3.0788   -4.6782 H   0  0  0  0  0  0  0  0  0  0  0  0
    1.9644   -2.6496   -3.6765 H   0  0  0  0  0  0  0  0  0  0  0  0
    2.7742   -4.2158   -3.4598 H   0  0  0  0  0  0  0  0  0  0  0  0
    5.0338   -4.2223   -3.0133 H   0  0  0  0  0  0  0  0  0  0  0  0
    5.6380   -2.7311   -3.6667 H   0  0  0  0  0  0  0  0  0  0  0  0
    6.6914   -3.8574   -1.4413 H   0  0  0  0  0  0  0  0  0  0  0  0
    6.8217   -2.1831   -1.8997 H   0  0  0  0  0  0  0  0  0  0  0  0
    7.3355   -1.5168    0.3540 H   0  0  0  0  0  0  0  0  0  0  0  0
    5.4443    0.0672    0.8983 H   0  0  0  0  0  0  0  0  0  0  0  0
    3.0413   -0.5658   -0.1509 H   0  0  0  0  0  0  0  0  0  0  0  0
    2.2381   -2.2641   -1.5149 H   0  0  0  0  0  0  0  0  0  0  0  0
    2.4126   -4.5618   -0.9101 H   0  0  0  0  0  0  0  0  0  0  0  0
    3.9950   -6.0152   -0.1235 H   0  0  0  0  0  0  0  0  0  0  0  0
    5.0314   -5.2905   -1.1979 H   0  0  0  0  0  0  0  0  0  0  0  0
    5.5644   -5.8012    1.4824 H   0  0  0  0  0  0  0  0  0  0  0  0
    6.5246   -4.7071    0.6089 H   0  0  0  0  0  0  0  0  0  0  0  0
    5.6189   -4.0311    2.9958 H   0  0  0  0  0  0  0  0  0  0  0  0
    6.2064   -1.7113    2.7353 H   0  0  0  0  0  0  0  0  0  0  0  0
    2.0368   -5.2228    2.7879 H   0  0  0  0  0  0  0  0  0  0  0  0
    3.6142   -5.5933    3.4721 H   0  0  0  0  0  0  0  0  0  0  0  0
    3.2373   -6.0234    1.8213 H   0  0  0  0  0  0  0  0  0  0  0  0
    2.0362   -2.8726    3.3493 H   0  0  0  0  0  0  0  0  0  0  0  0
    3.5018   -1.9090    3.2699 H   0  0  0  0  0  0  0  0  0  0  0  0
    3.4537   -3.3307    4.2789 H   0  0  0  0  0  0  0  0  0  0  0  0
    1.9966   -3.0586    0.8118 H   0  0  0  0  0  0  0  0  0  0  0  0
    3.5104   -1.8889    1.1098 H   0  0  0  0  0  0  0  0  0  0  0  0
    5.3057   -1.6262   -0.7711 H   0  0  0  0  0  0  0  0  0  0  0  0
  1  2  1  0
  1 20  1  0
  1 21  1  0
  1 22  1  0
  2  9  1  0
  2  3  1  0
  3  4  1  0
  3 23  1  0
  3 24  1  0
  4  5  1  0
  4 25  1  0
  4 26  1  0
  5 19  1  0
  5  6  1  0
  5 46  1  1
  6 14  1  0
  6  7  1  0
  6 27  1  1
  7 14  1  0
  7  8  1  0
  7 28  1  1
  8 19  1  0
  8  9  1  0
  8 29  1  1
  9 10  1  0
  9 30  1  6
 10 18  1  0
 10 11  1  0
 10 31  1  6
 11 12  1  0
 11 32  1  0
 11 33  1  0
 12 13  1  0
 12 34  1  0
 12 35  1  0
 13 14  1  0
 13 15  1  0
 13 36  1  1
 14 37  1  1
 15 16  1  0
 15 17  1  0
 15 18  1  0
 16 38  1  0
 16 39  1  0
 16 40  1  0
 17 41  1  0
 17 42  1  0
 17 43  1  0
 18 19  1  0
 18 44  1  1
 19 45  1  1
M  CHG  1   5   1
M  END
>  <i_m_ct_stereo_status>  (97) 
1

>  <s_m_source_file>  (97) 
/var/tmp/pbs.5076255.sched01/tmpr7id634h/0ay6m0hv_.sdf

>  <i_m_source_file_index>  (97) 
41

>  <i_lp_mmshare_version>  (97) 
48012

>  <i_f3d_flags>  (97) 
0

>  <s_epik_input>  (97) 
TjEyW0NASF0zW0NASF00W0NASF01W0NAQEhdKE4oW0NIM10pW0NIMl1bQ0gyXTEpW0NAQEhdNltDQEhdKFtDQEBIXTI1KUMoW0NIM10pKFtDSDNdKVtDQEhdKFtDQEBIXTM0KVtDSDJdW0NIMl02

>  <s_epik_cmdline>  (97) 
J2VwaWtfcHl0aG9uJywgJy1waHQnLCAnMi4wJywgJy1waCcsICc3LjAnLCAnLXRuJywgJzgnLCAnLW1hJywgJzIwMCcsICctaW1hZScsICc8aW5maWxlLm1hZT4nLCAnLW9tYWUnLCAnPG91dGZpbGUubWFlPic=

>  <r_epik_Ionization_Penalty>  (97) 
0.000680488

>  <r_epik_Ionization_Penalty_Charging>  (97) 
1.89504e-05

>  <r_epik_Ionization_Penalty_Neutral>  (97) 
0.000661538

>  <r_epik_State_Penalty>  (97) 
0.00678404

>  <r_epik_Charging_Adjusted_Penalty>  (97) 
0.00680299

>  <i_epik_Tot_Q>  (97) 
1

>  <i_epik_Tot_abs_Q>  (97) 
1

>  <s_lp_Force_Field>  (97) 
OPLS3e

>  <r_lp_Energy>  (97) 
431.962

>  <b_lp_Chiralities_Consistent>  (97) 
1

>  <s_lp_Variant>  (97) 
28:0-1

>  <s_i_glide_gridfile>  (97) 
pfpi4k_grid

>  <i_i_glide_lignum>  (97) 
41

>  <i_i_glide_rotatable_bonds>  (97) 
0

>  <r_i_docking_score>  (97) 
-3.73243

>  <r_i_glide_ligand_efficiency>  (97) 
-0.196444

>  <r_i_glide_ligand_efficiency_sa>  (97) 
-0.52419

>  <r_i_glide_ligand_efficiency_ln>  (97) 
-0.946251

>  <r_i_glide_gscore>  (97) 
-3.73243

>  <r_i_glide_lipo>  (97) 
-0.851486

>  <r_i_glide_hbond>  (97) 
0

>  <r_i_glide_metal>  (97) 
-0

>  <r_i_glide_rewards>  (97) 
-1.64039

>  <r_i_glide_evdw>  (97) 
-17.0746

>  <r_i_glide_ecoul>  (97) 
-2.55148

>  <r_i_glide_erotb>  (97) 
0

>  <r_i_glide_esite>  (97) 
-0.00410303

>  <r_i_glide_emodel>  (97) 
-23.0972

>  <r_i_glide_energy>  (97) 
-19.626

>  <r_i_glide_einternal>  (97) 
0

>  <r_i_glide_intrahb_reward>  (97) 
-0

>  <i_i_glide_confnum>  (97) 
2

>  <i_i_glide_posenum>  (97) 
29

>  <r_i_glide_eff_state_penalty>  (97) 
0

>  <ligand_id>  (97) 
28

>  <original_smiles>  (97) 
CN1CCN2C3C4C5C1C1CCC(C43)C(C)(C)C1C52

>  <smiles>  (97) 
[H]C([H])([H])N1C([H])([H])C([H])([H])[N+]2([H])C3([H])C4([H])C5([H])C([H])([H])C([H])([H])C6([H])C1([H])C([H])(C43[H])C2([H])C6([H])C5(C([H])([H])[H])C([H])([H])[H]

$$$$
28:1:0
     RDKit          3D

 46 51  0  0  1  0  0  0  0  0999 V2000
    2.0055   -3.1919   -3.0111 C   0  0  0  0  0  0  0  0  0  0  0  0
    2.7327   -2.2625   -2.1197 N   0  0  2  0  0  0  0  0  0  0  0  0
    3.9971   -1.8014   -2.7169 C   0  0  0  0  0  0  0  0  0  0  0  0
    4.8201   -1.0012   -1.7059 C   0  0  0  0  0  0  0  0  0  0  0  0
    5.1676   -1.7816   -0.4973 N   0  0  0  0  0  0  0  0  0  0  0  0
    5.7535   -0.9236    0.3853 C   0  0  1  0  0  0  0  0  0  0  0  0
    4.5676   -0.7722    1.1498 C   0  0  1  0  0  0  0  0  0  0  0  0
    3.1756   -1.4677    0.4180 C   0  0  2  0  0  0  0  0  0  0  0  0
    2.8779   -2.7213   -0.7064 C   0  0  2  0  0  0  0  0  0  0  0  0
    3.8100   -4.1155   -0.5207 C   0  0  1  0  0  0  0  0  0  0  0  0
    5.3406   -4.4175   -0.9621 C   0  0  0  0  0  0  0  0  0  0  0  0
    6.5892   -3.9582   -0.0131 C   0  0  0  0  0  0  0  0  0  0  0  0
    6.2743   -3.3073    1.4329 C   0  0  1  0  0  0  0  0  0  0  0  0
    5.9735   -1.6637    1.6270 C   0  0  1  0  0  0  0  0  0  0  0  0
    5.1094   -4.2363    1.9024 C   0  0  0  0  0  0  0  0  0  0  0  0
    5.4448   -5.7524    1.9451 C   0  0  0  0  0  0  0  0  0  0  0  0
    4.7780   -3.8811    3.3810 C   0  0  0  0  0  0  0  0  0  0  0  0
    3.9021   -3.9128    0.9128 C   0  0  1  0  0  0  0  0  0  0  0  0
    4.0563   -2.4668    0.4354 C   0  0  1  0  0  0  0  0  0  0  0  0
    2.5650   -4.1127   -3.1677 H   0  0  0  0  0  0  0  0  0  0  0  0
    1.8549   -2.7479   -3.9966 H   0  0  0  0  0  0  0  0  0  0  0  0
    1.0272   -3.4317   -2.5888 H   0  0  0  0  0  0  0  0  0  0  0  0
    4.5669   -2.6289   -3.1390 H   0  0  0  0  0  0  0  0  0  0  0  0
    3.7648   -1.1549   -3.5630 H   0  0  0  0  0  0  0  0  0  0  0  0
    5.7535   -0.7054   -2.1849 H   0  0  0  0  0  0  0  0  0  0  0  0
    4.2947   -0.0779   -1.4532 H   0  0  0  0  0  0  0  0  0  0  0  0
    6.3754   -0.0671    0.1296 H   0  0  0  0  0  0  0  0  0  0  0  0
    4.4094    0.1752    1.6554 H   0  0  0  0  0  0  0  0  0  0  0  0
    2.3804   -1.4886    1.1671 H   0  0  0  0  0  0  0  0  0  0  0  0
    1.8599   -3.0483   -0.4580 H   0  0  0  0  0  0  0  0  0  0  0  0
    3.1974   -4.9915   -0.7173 H   0  0  0  0  0  0  0  0  0  0  0  0
    5.4053   -5.4980   -1.0773 H   0  0  0  0  0  0  0  0  0  0  0  0
    5.5270   -4.0658   -1.9725 H   0  0  0  0  0  0  0  0  0  0  0  0
    7.2196   -4.8365    0.1382 H   0  0  0  0  0  0  0  0  0  0  0  0
    7.2438   -3.2845   -0.5688 H   0  0  0  0  0  0  0  0  0  0  0  0
    7.1380   -3.5185    2.0552 H   0  0  0  0  0  0  0  0  0  0  0  0
    6.5810   -1.1768    2.3862 H   0  0  0  0  0  0  0  0  0  0  0  0
    4.6548   -6.3146    2.4447 H   0  0  0  0  0  0  0  0  0  0  0  0
    6.3682   -5.9286    2.4982 H   0  0  0  0  0  0  0  0  0  0  0  0
    5.5657   -6.2144    0.9686 H   0  0  0  0  0  0  0  0  0  0  0  0
    3.9200   -4.4453    3.7480 H   0  0  0  0  0  0  0  0  0  0  0  0
    4.5599   -2.8262    3.5434 H   0  0  0  0  0  0  0  0  0  0  0  0
    5.6226   -4.1196    4.0291 H   0  0  0  0  0  0  0  0  0  0  0  0
    2.9356   -4.1469    1.3837 H   0  0  0  0  0  0  0  0  0  0  0  0
    3.9109   -2.5341    1.5413 H   0  0  0  0  0  0  0  0  0  0  0  0
    2.1234   -1.4531   -2.0123 H   0  0  0  0  0  0  0  0  0  0  0  0
  1  2  1  0
  1 20  1  0
  1 21  1  0
  1 22  1  0
  2  9  1  0
  2  3  1  0
  2 46  1  1
  3  4  1  0
  3 23  1  0
  3 24  1  0
  4  5  1  0
  4 25  1  0
  4 26  1  0
  5 19  1  0
  5  6  1  0
  6 14  1  0
  6  7  1  0
  6 27  1  6
  7 14  1  0
  7  8  1  0
  7 28  1  1
  8 19  1  0
  8  9  1  0
  8 29  1  1
  9 10  1  0
  9 30  1  1
 10 18  1  0
 10 11  1  0
 10 31  1  1
 11 12  1  0
 11 32  1  0
 11 33  1  0
 12 13  1  0
 12 34  1  0
 12 35  1  0
 13 14  1  0
 13 15  1  0
 13 36  1  1
 14 37  1  1
 15 16  1  0
 15 17  1  0
 15 18  1  0
 16 38  1  0
 16 39  1  0
 16 40  1  0
 17 41  1  0
 17 42  1  0
 17 43  1  0
 18 19  1  0
 18 44  1  1
 19 45  1  1
M  CHG  1   2   1
M  END
>  <i_m_ct_stereo_status>  (98) 
1

>  <s_m_source_file>  (98) 
/var/tmp/pbs.5076255.sched01/tmpr7id634h/0ay6m0hv_.sdf

>  <i_m_source_file_index>  (98) 
42

>  <i_lp_mmshare_version>  (98) 
48012

>  <i_f3d_flags>  (98) 
0

>  <s_epik_input>  (98) 
TjEyW0NASF0zW0NASF00W0NASF01W0NAQEhdKE4oW0NIM10pW0NIMl1bQ0gyXTEpW0NAQEhdNltDQEhdKFtDQEBIXTI1KUMoW0NIM10pKFtDSDNdKVtDQEhdKFtDQEBIXTM0KVtDSDJdW0NIMl02

>  <s_epik_cmdline>  (98) 
J2VwaWtfcHl0aG9uJywgJy1waHQnLCAnMi4wJywgJy1waCcsICc3LjAnLCAnLXRuJywgJzgnLCAnLW1hJywgJzIwMCcsICctaW1hZScsICc8aW5maWxlLm1hZT4nLCAnLW9tYWUnLCAnPG91dGZpbGUubWFlPic=

>  <r_epik_Ionization_Penalty>  (98) 
0.0677287

>  <r_epik_Ionization_Penalty_Charging>  (98) 
0.00124165

>  <r_epik_Ionization_Penalty_Neutral>  (98) 
0.0664871

>  <r_epik_State_Penalty>  (98) 
2.65165

>  <r_epik_Charging_Adjusted_Penalty>  (98) 
2.6529

>  <i_epik_Tot_Q>  (98) 
1

>  <i_epik_Tot_abs_Q>  (98) 
1

>  <s_lp_Force_Field>  (98) 
OPLS3e

>  <r_lp_Energy>  (98) 
404.776

>  <b_lp_Chiralities_Consistent>  (98) 
1

>  <s_lp_Variant>  (98) 
28:0-2

>  <s_i_glide_gridfile>  (98) 
pfpi4k_grid

>  <i_i_glide_lignum>  (98) 
42

>  <i_i_glide_rotatable_bonds>  (98) 
0

>  <r_i_docking_score>  (98) 
-4.28304

>  <r_i_glide_ligand_efficiency>  (98) 
-0.225423

>  <r_i_glide_ligand_efficiency_sa>  (98) 
-0.60152

>  <r_i_glide_ligand_efficiency_ln>  (98) 
-1.08584

>  <r_i_glide_gscore>  (98) 
-4.28304

>  <r_i_glide_lipo>  (98) 
-0.837175

>  <r_i_glide_hbond>  (98) 
-0.14052

>  <r_i_glide_metal>  (98) 
-0

>  <r_i_glide_rewards>  (98) 
-1.64039

>  <r_i_glide_evdw>  (98) 
-14.6694

>  <r_i_glide_ecoul>  (98) 
-5.74256

>  <r_i_glide_erotb>  (98) 
0

>  <r_i_glide_esite>  (98) 
-0.0701077

>  <r_i_glide_emodel>  (98) 
-26.5571

>  <r_i_glide_energy>  (98) 
-20.4119

>  <r_i_glide_einternal>  (98) 
0

>  <r_i_glide_intrahb_reward>  (98) 
-0

>  <i_i_glide_confnum>  (98) 
1

>  <i_i_glide_posenum>  (98) 
5

>  <r_i_glide_eff_state_penalty>  (98) 
0

>  <ligand_id>  (98) 
28

>  <original_smiles>  (98) 
CN1CCN2C3C4C5C1C1CCC(C43)C(C)(C)C1C52

>  <smiles>  (98) 
[H]C([H])([H])C1(C([H])([H])[H])C2([H])C([H])([H])C([H])([H])C3([H])C1([H])C1([H])N4C([H])([H])C([H])([H])[N+]([H])(C([H])([H])[H])C3([H])C1([H])C1([H])C4([H])C12[H]

$$$$
28:1:1
     RDKit          3D

 46 51  0  0  1  0  0  0  0  0999 V2000
    2.7584   -2.9422   -2.7715 C   0  0  0  0  0  0  0  0  0  0  0  0
    3.0336   -2.2102   -1.5141 N   0  0  2  0  0  0  0  0  0  0  0  0
    4.3336   -1.5259   -1.5568 C   0  0  0  0  0  0  0  0  0  0  0  0
    4.7111   -0.9552   -0.1885 C   0  0  0  0  0  0  0  0  0  0  0  0
    4.8133   -2.0111    0.8457 N   0  0  0  0  0  0  0  0  0  0  0  0
    4.9843   -1.3799    2.0440 C   0  0  1  0  0  0  0  0  0  0  0  0
    3.6248   -1.5080    2.4043 C   0  0  1  0  0  0  0  0  0  0  0  0
    2.6166   -2.0735    1.1375 C   0  0  2  0  0  0  0  0  0  0  0  0
    2.8374   -3.0036   -0.2704 C   0  0  2  0  0  0  0  0  0  0  0  0
    3.8858   -4.3243   -0.1332 C   0  0  1  0  0  0  0  0  0  0  0  0
    5.5027   -4.4076   -0.1132 C   0  0  0  0  0  0  0  0  0  0  0  0
    6.3391   -4.1262    1.2661 C   0  0  0  0  0  0  0  0  0  0  0  0
    5.5240   -3.9026    2.6428 C   0  0  1  0  0  0  0  0  0  0  0  0
    4.9349   -2.3935    3.0933 C   0  0  1  0  0  0  0  0  0  0  0  0
    4.4245   -4.9961    2.4880 C   0  0  0  0  0  0  0  0  0  0  0  0
    4.9488   -6.4421    2.2908 C   0  0  0  0  0  0  0  0  0  0  0  0
    3.6244   -5.0659    3.8209 C   0  0  0  0  0  0  0  0  0  0  0  0
    3.5217   -4.5142    1.2600 C   0  0  1  0  0  0  0  0  0  0  0  0
    3.5949   -2.9869    1.2039 C   0  0  1  0  0  0  0  0  0  0  0  0
    3.4625   -3.7621   -2.9224 H   0  0  0  0  0  0  0  0  0  0  0  0
    2.8585   -2.2777   -3.6280 H   0  0  0  0  0  0  0  0  0  0  0  0
    1.7532   -3.3470   -2.7928 H   0  0  0  0  0  0  0  0  0  0  0  0
    5.1263   -2.1676   -1.9514 H   0  0  0  0  0  0  0  0  0  0  0  0
    4.2821   -0.6994   -2.2620 H   0  0  0  0  0  0  0  0  0  0  0  0
    5.6877   -0.4852   -0.2607 H   0  0  0  0  0  0  0  0  0  0  0  0
    4.0148   -0.1552    0.0973 H   0  0  0  0  0  0  0  0  0  0  0  0
    5.5190   -0.4508    2.2073 H   0  0  0  0  0  0  0  0  0  0  0  0
    3.1939   -0.7389    3.0356 H   0  0  0  0  0  0  0  0  0  0  0  0
    1.6578   -2.3400    1.5790 H   0  0  0  0  0  0  0  0  0  0  0  0
    1.8538   -3.4411   -0.4363 H   0  0  0  0  0  0  0  0  0  0  0  0
    3.5052   -5.1472   -0.7139 H   0  0  0  0  0  0  0  0  0  0  0  0
    5.7629   -5.4168   -0.4383 H   0  0  0  0  0  0  0  0  0  0  0  0
    5.9270   -3.7912   -0.9000 H   0  0  0  0  0  0  0  0  0  0  0  0
    7.0240   -4.9658    1.4055 H   0  0  0  0  0  0  0  0  0  0  0  0
    7.0154   -3.2836    1.1153 H   0  0  0  0  0  0  0  0  0  0  0  0
    6.1839   -4.2031    3.4504 H   0  0  0  0  0  0  0  0  0  0  0  0
    5.2206   -2.0795    4.0927 H   0  0  0  0  0  0  0  0  0  0  0  0
    4.1384   -7.1695    2.3689 H   0  0  0  0  0  0  0  0  0  0  0  0
    5.6831   -6.6963    3.0560 H   0  0  0  0  0  0  0  0  0  0  0  0
    5.4191   -6.6266    1.3277 H   0  0  0  0  0  0  0  0  0  0  0  0
    2.7895   -5.7651    3.7579 H   0  0  0  0  0  0  0  0  0  0  0  0
    3.2183   -4.1098    4.1456 H   0  0  0  0  0  0  0  0  0  0  0  0
    4.2684   -5.4089    4.6314 H   0  0  0  0  0  0  0  0  0  0  0  0
    2.5079   -4.9246    1.3381 H   0  0  0  0  0  0  0  0  0  0  0  0
    3.1463   -3.3475    2.1652 H   0  0  0  0  0  0  0  0  0  0  0  0
    2.3195   -1.4793   -1.4337 H   0  0  0  0  0  0  0  0  0  0  0  0
  1  2  1  0
  1 20  1  0
  1 21  1  0
  1 22  1  0
  2  9  1  0
  2  3  1  0
  2 46  1  1
  3  4  1  0
  3 23  1  0
  3 24  1  0
  4  5  1  0
  4 25  1  0
  4 26  1  0
  5 19  1  0
  5  6  1  0
  6 14  1  0
  6  7  1  0
  6 27  1  6
  7 14  1  0
  7  8  1  0
  7 28  1  1
  8 19  1  0
  8  9  1  0
  8 29  1  1
  9 10  1  0
  9 30  1  6
 10 18  1  0
 10 11  1  0
 10 31  1  6
 11 12  1  0
 11 32  1  0
 11 33  1  0
 12 13  1  0
 12 34  1  0
 12 35  1  0
 13 14  1  0
 13 15  1  0
 13 36  1  1
 14 37  1  1
 15 16  1  0
 15 17  1  0
 15 18  1  0
 16 38  1  0
 16 39  1  0
 16 40  1  0
 17 41  1  0
 17 42  1  0
 17 43  1  0
 18 19  1  0
 18 44  1  6
 19 45  1  1
M  CHG  1   2   1
M  END
>  <i_m_ct_stereo_status>  (99) 
1

>  <s_m_source_file>  (99) 
/var/tmp/pbs.5076255.sched01/tmpr7id634h/0ay6m0hv_.sdf

>  <i_m_source_file_index>  (99) 
42

>  <i_lp_mmshare_version>  (99) 
48012

>  <i_f3d_flags>  (99) 
0

>  <s_epik_input>  (99) 
TjEyW0NASF0zW0NASF00W0NASF01W0NAQEhdKE4oW0NIM10pW0NIMl1bQ0gyXTEpW0NAQEhdNltDQEhdKFtDQEBIXTI1KUMoW0NIM10pKFtDSDNdKVtDQEhdKFtDQEBIXTM0KVtDSDJdW0NIMl02

>  <s_epik_cmdline>  (99) 
J2VwaWtfcHl0aG9uJywgJy1waHQnLCAnMi4wJywgJy1waCcsICc3LjAnLCAnLXRuJywgJzgnLCAnLW1hJywgJzIwMCcsICctaW1hZScsICc8aW5maWxlLm1hZT4nLCAnLW9tYWUnLCAnPG91dGZpbGUubWFlPic=

>  <r_epik_Ionization_Penalty>  (99) 
0.0677287

>  <r_epik_Ionization_Penalty_Charging>  (99) 
0.00124165

>  <r_epik_Ionization_Penalty_Neutral>  (99) 
0.0664871

>  <r_epik_State_Penalty>  (99) 
2.65165

>  <r_epik_Charging_Adjusted_Penalty>  (99) 
2.6529

>  <i_epik_Tot_Q>  (99) 
1

>  <i_epik_Tot_abs_Q>  (99) 
1

>  <s_lp_Force_Field>  (99) 
OPLS3e

>  <r_lp_Energy>  (99) 
404.776

>  <b_lp_Chiralities_Consistent>  (99) 
1

>  <s_lp_Variant>  (99) 
28:0-2

>  <s_i_glide_gridfile>  (99) 
pfpi4k_grid

>  <i_i_glide_lignum>  (99) 
42

>  <i_i_glide_rotatable_bonds>  (99) 
0

>  <r_i_docking_score>  (99) 
-3.7728

>  <r_i_glide_ligand_efficiency>  (99) 
-0.198569

>  <r_i_glide_ligand_efficiency_sa>  (99) 
-0.529861

>  <r_i_glide_ligand_efficiency_ln>  (99) 
-0.956486

>  <r_i_glide_gscore>  (99) 
-3.7728

>  <r_i_glide_lipo>  (99) 
-0.320128

>  <r_i_glide_hbond>  (99) 
-0.192733

>  <r_i_glide_metal>  (99) 
-0

>  <r_i_glide_rewards>  (99) 
-1.64039

>  <r_i_glide_evdw>  (99) 
-13.9452

>  <r_i_glide_ecoul>  (99) 
-5.61529

>  <r_i_glide_erotb>  (99) 
0

>  <r_i_glide_esite>  (99) 
-0.0799959

>  <r_i_glide_emodel>  (99) 
-24.9679

>  <r_i_glide_energy>  (99) 
-19.5605

>  <r_i_glide_einternal>  (99) 
0

>  <r_i_glide_intrahb_reward>  (99) 
-0

>  <i_i_glide_confnum>  (99) 
2

>  <i_i_glide_posenum>  (99) 
38

>  <r_i_glide_eff_state_penalty>  (99) 
0

>  <ligand_id>  (99) 
28

>  <original_smiles>  (99) 
CN1CCN2C3C4C5C1C1CCC(C43)C(C)(C)C1C52

>  <smiles>  (99) 
[H]C([H])([H])C1(C([H])([H])[H])C2([H])C([H])([H])C([H])([H])C3([H])C1([H])C1([H])N4C([H])([H])C([H])([H])[N+]([H])(C([H])([H])[H])C3([H])C1([H])C1([H])C4([H])C12[H]

$$$$
29:0:0
     RDKit          3D

 58 63  0  0  1  0  0  0  0  0999 V2000
    0.7210   -7.1815    2.5673 C   0  0  0  0  0  0  0  0  0  0  0  0
    2.2628   -7.0138    2.5855 C   0  0  0  0  0  0  0  0  0  0  0  0
    2.6620   -7.0264    4.0820 C   0  0  0  0  0  0  0  0  0  0  0  0
    2.8981   -8.2550    1.9155 C   0  0  0  0  0  0  0  0  0  0  0  0
    2.4200   -9.3692    2.0385 O   0  0  0  0  0  0  0  0  0  0  0  0
    4.1858   -8.0397    1.1237 C   0  0  0  0  0  0  0  0  0  0  0  0
    5.0158   -6.8885    1.6969 C   0  0  0  0  0  0  0  0  0  0  0  0
    4.3005   -5.5038    1.7047 C   0  0  1  0  0  0  0  0  0  0  0  0
    4.7879   -4.6921    2.9299 C   0  0  0  0  0  0  0  0  0  0  0  0
    4.6317   -4.7591    0.3520 C   0  0  1  0  0  0  0  0  0  0  0  0
    3.7061   -3.5893    0.0270 C   0  0  2  0  0  0  0  0  0  0  0  0
    2.2700   -4.0673   -0.1435 C   0  0  1  0  0  0  0  0  0  0  0  0
    1.8053   -4.1519   -1.4709 O   0  0  0  0  0  0  0  0  0  0  0  0
    1.9947   -5.4555    0.5102 C   0  0  0  0  0  0  0  0  0  0  0  0
    2.7239   -5.6828    1.8623 C   0  0  1  0  0  0  0  0  0  0  0  0
    4.3003   -2.8610   -1.1572 C   0  0  2  0  0  0  0  0  0  0  0  0
    3.9065   -1.3975   -1.2742 C   0  0  0  0  0  0  0  0  0  0  0  0
    4.7851   -3.5927   -2.3893 C   0  0  0  0  0  0  0  0  0  0  0  0
    5.7308   -3.2960   -1.2546 C   0  0  1  0  0  0  0  0  0  0  0  0
    6.8266   -2.2982   -1.4989 C   0  0  0  0  0  0  0  0  0  0  0  0
    6.9900   -1.4886   -0.3610 O   0  0  0  0  0  0  0  0  0  0  0  0
    7.4877   -2.2632    0.6976 C   0  0  1  0  0  0  0  0  0  0  0  0
    6.5343   -2.6435    1.6780 O   0  0  0  0  0  0  0  0  0  0  0  0
    7.0215   -3.7063    0.8450 C   0  0  2  0  0  0  0  0  0  0  0  0
    8.0285   -4.7144    1.3833 C   0  0  0  0  0  0  0  0  0  0  0  0
    6.0312   -4.2936   -0.1357 C   0  0  1  0  0  0  0  0  0  0  0  0
    0.2205   -6.2703    2.9011 H   0  0  0  0  0  0  0  0  0  0  0  0
    0.3953   -7.9899    3.2238 H   0  0  0  0  0  0  0  0  0  0  0  0
    0.3517   -7.4418    1.5740 H   0  0  0  0  0  0  0  0  0  0  0  0
    2.3457   -6.1118    4.5886 H   0  0  0  0  0  0  0  0  0  0  0  0
    3.7348   -7.1384    4.2279 H   0  0  0  0  0  0  0  0  0  0  0  0
    2.2055   -7.8647    4.6114 H   0  0  0  0  0  0  0  0  0  0  0  0
    4.7523   -8.9690    1.1278 H   0  0  0  0  0  0  0  0  0  0  0  0
    3.9390   -7.8493    0.0842 H   0  0  0  0  0  0  0  0  0  0  0  0
    5.3443   -7.1600    2.7021 H   0  0  0  0  0  0  0  0  0  0  0  0
    5.9265   -6.8312    1.1085 H   0  0  0  0  0  0  0  0  0  0  0  0
    4.4942   -3.6437    2.8647 H   0  0  0  0  0  0  0  0  0  0  0  0
    5.8664   -4.7403    3.0554 H   0  0  0  0  0  0  0  0  0  0  0  0
    4.3676   -5.0680    3.8609 H   0  0  0  0  0  0  0  0  0  0  0  0
    4.3989   -5.5041   -0.4068 H   0  0  0  0  0  0  0  0  0  0  0  0
    3.7220   -2.8842    0.8620 H   0  0  0  0  0  0  0  0  0  0  0  0
    1.7389   -3.2355    0.3079 H   0  0  0  0  0  0  0  0  0  0  0  0
    2.2522   -4.8652   -1.9239 H   0  0  0  0  0  0  0  0  0  0  0  0
    0.9248   -5.5380    0.6433 H   0  0  0  0  0  0  0  0  0  0  0  0
    2.2478   -6.2399   -0.1866 H   0  0  0  0  0  0  0  0  0  0  0  0
    2.3670   -4.8672    2.4933 H   0  0  0  0  0  0  0  0  0  0  0  0
    4.3799   -0.9403   -2.1438 H   0  0  0  0  0  0  0  0  0  0  0  0
    4.2152   -0.8437   -0.3839 H   0  0  0  0  0  0  0  0  0  0  0  0
    2.8289   -1.3075   -1.4071 H   0  0  0  0  0  0  0  0  0  0  0  0
    4.5630   -4.6412   -2.5314 H   0  0  0  0  0  0  0  0  0  0  0  0
    4.9019   -3.0115   -3.3011 H   0  0  0  0  0  0  0  0  0  0  0  0
    7.7608   -2.8065   -1.7457 H   0  0  0  0  0  0  0  0  0  0  0  0
    6.5305   -1.6439   -2.3107 H   0  0  0  0  0  0  0  0  0  0  0  0
    8.4600   -1.9514    1.0269 H   0  0  0  0  0  0  0  0  0  0  0  0
    8.6124   -5.1533    0.5742 H   0  0  0  0  0  0  0  0  0  0  0  0
    7.5609   -5.5290    1.9319 H   0  0  0  0  0  0  0  0  0  0  0  0
    8.7371   -4.2250    2.0432 H   0  0  0  0  0  0  0  0  0  0  0  0
    6.5018   -5.1649   -0.5469 H   0  0  0  0  0  0  0  0  0  0  0  0
  1  2  1  0
  1 27  1  0
  1 28  1  0
  1 29  1  0
  2 15  1  0
  2  3  1  0
  2  4  1  0
  3 30  1  0
  3 31  1  0
  3 32  1  0
  4  5  2  0
  4  6  1  0
  6  7  1  0
  6 33  1  0
  6 34  1  0
  7  8  1  0
  7 35  1  0
  7 36  1  0
  8 15  1  0
  8  9  1  1
  8 10  1  0
  9 37  1  0
  9 38  1  0
  9 39  1  0
 10 26  1  0
 10 11  1  0
 10 40  1  6
 11 12  1  0
 11 16  1  0
 11 41  1  1
 12 13  1  0
 12 14  1  0
 12 42  1  1
 13 43  1  0
 14 15  1  0
 14 44  1  0
 14 45  1  0
 15 46  1  1
 16 19  1  0
 16 17  1  6
 16 18  1  0
 17 47  1  0
 17 48  1  0
 17 49  1  0
 19 18  1  6
 18 50  1  0
 18 51  1  0
 19 26  1  0
 19 20  1  0
 20 21  1  0
 20 52  1  0
 20 53  1  0
 21 22  1  0
 22 24  1  0
 22 23  1  0
 22 54  1  1
 23 24  1  0
 24 25  1  1
 24 26  1  0
 25 55  1  0
 25 56  1  0
 25 57  1  0
 26 58  1  6
M  END
>  <i_m_ct_stereo_status>  (100) 
1

>  <s_m_source_file>  (100) 
/var/tmp/pbs.5076255.sched01/tmpr7id634h/0ay6m0hv_.sdf

>  <i_m_source_file_index>  (100) 
43

>  <i_lp_mmshare_version>  (100) 
48012

>  <i_f3d_flags>  (100) 
0

>  <s_epik_input>  (100) 
W0NIMl0xW0NIMl1DKD1PKUMoW0NIM10pKFtDSDNdKVtDQEhdKFtDSDJdW0NAQEhdMltPSF0pW0NAXTEoW0NIM10pW0NAQEhdKFtDQEhdMltDQF0oW0NAQF0zNDUpKFtDSDNdKVtDSDJdMylbQ0BASF01W0NAQF02KFtDSDNdKVtDQEhdKE82KU9bQ0gyXTQ=

>  <s_epik_cmdline>  (100) 
J2VwaWtfcHl0aG9uJywgJy1waHQnLCAnMi4wJywgJy1waCcsICc3LjAnLCAnLXRuJywgJzgnLCAnLW1hJywgJzIwMCcsICctaW1hZScsICc8aW5maWxlLm1hZT4nLCAnLW9tYWUnLCAnPG91dGZpbGUubWFlPic=

>  <r_lp_tautomer_probability>  (100) 
1

>  <r_epik_Ionization_Penalty>  (100) 
1.34716e-06

>  <r_epik_Ionization_Penalty_Charging>  (100) 
0

>  <r_epik_Ionization_Penalty_Neutral>  (100) 
1.34716e-06

>  <r_epik_State_Penalty>  (100) 
-0

>  <r_epik_Charging_Adjusted_Penalty>  (100) 
0

>  <i_epik_Tot_Q>  (100) 
0

>  <i_epik_Tot_abs_Q>  (100) 
0

>  <s_epik_Chemistry_Notes>  (100) 
This compound contains an acetal/aminal-like group ( X-CH(R)-Y where X, Y are N, S, or O) that may be acid/base labile, releasing an aldehyde.

>  <s_lp_Force_Field>  (100) 
OPLS3e

>  <r_lp_Energy>  (100) 
69.4079

>  <b_lp_Chiralities_Consistent>  (100) 
1

>  <s_lp_Variant>  (100) 
29:0-1

>  <s_i_glide_gridfile>  (100) 
pfpi4k_grid

>  <i_i_glide_lignum>  (100) 
43

>  <i_i_glide_rotatable_bonds>  (100) 
1

>  <r_i_docking_score>  (100) 
-3.48471

>  <r_i_glide_ligand_efficiency>  (100) 
-0.134027

>  <r_i_glide_ligand_efficiency_sa>  (100) 
-0.397055

>  <r_i_glide_ligand_efficiency_ln>  (100) 
-0.818372

>  <r_i_glide_gscore>  (100) 
-3.48471

>  <r_i_glide_lipo>  (100) 
-0.550742

>  <r_i_glide_hbond>  (100) 
-0.444708

>  <r_i_glide_metal>  (100) 
-0

>  <r_i_glide_rewards>  (100) 
-1.08228

>  <r_i_glide_evdw>  (100) 
-13.1865

>  <r_i_glide_ecoul>  (100) 
-4.89949

>  <r_i_glide_erotb>  (100) 
0

>  <r_i_glide_esite>  (100) 
-0.0127285

>  <r_i_glide_emodel>  (100) 
-21.2744

>  <r_i_glide_energy>  (100) 
-18.086

>  <r_i_glide_einternal>  (100) 
0.0737962

>  <r_i_glide_intrahb_reward>  (100) 
-0

>  <i_i_glide_confnum>  (100) 
1

>  <i_i_glide_posenum>  (100) 
1

>  <r_i_glide_eff_state_penalty>  (100) 
0

>  <ligand_id>  (100) 
29

>  <original_smiles>  (100) 
CC1(C)C(=O)CCC2(C)C3C(C(O)CC12)C1(C)CC12COC1OC1(C)C32

>  <smiles>  (100) 
[H]OC1([H])C([H])([H])C2([H])C(C([H])([H])[H])(C([H])([H])[H])C(=O)C([H])([H])C([H])([H])C2(C([H])([H])[H])C2([H])C1([H])C1(C([H])([H])[H])C([H])([H])C13C([H])([H])OC1([H])OC1(C([H])([H])[H])C23[H]

$$$$
29:0:1
     RDKit          3D

 58 63  0  0  1  0  0  0  0  0999 V2000
    1.4007   -6.0038    4.5244 C   0  0  0  0  0  0  0  0  0  0  0  0
    2.7585   -6.4419    3.9167 C   0  0  0  0  0  0  0  0  0  0  0  0
    3.6093   -6.9394    5.1127 C   0  0  0  0  0  0  0  0  0  0  0  0
    2.5154   -7.6346    2.9716 C   0  0  0  0  0  0  0  0  0  0  0  0
    1.6657   -8.4903    3.2221 O   0  0  0  0  0  0  0  0  0  0  0  0
    3.3854   -7.7512    1.7293 C   0  0  0  0  0  0  0  0  0  0  0  0
    4.7803   -7.1671    1.9786 C   0  0  0  0  0  0  0  0  0  0  0  0
    4.7933   -5.6571    2.3634 C   0  0  1  0  0  0  0  0  0  0  0  0
    5.9784   -5.3988    3.3212 C   0  0  0  0  0  0  0  0  0  0  0  0
    4.9280   -4.7920    1.0521 C   0  0  1  0  0  0  0  0  0  0  0  0
    4.5552   -3.3096    1.2187 C   0  0  2  0  0  0  0  0  0  0  0  0
    3.0743   -3.1563    1.6281 C   0  0  1  0  0  0  0  0  0  0  0  0
    2.2454   -2.8417    0.5276 O   0  0  0  0  0  0  0  0  0  0  0  0
    2.4775   -4.4411    2.2483 C   0  0  0  0  0  0  0  0  0  0  0  0
    3.4624   -5.2504    3.1451 C   0  0  1  0  0  0  0  0  0  0  0  0
    4.9625   -2.6271   -0.0795 C   0  0  2  0  0  0  0  0  0  0  0  0
    5.2263   -1.1352    0.0527 C   0  0  0  0  0  0  0  0  0  0  0  0
    4.6139   -3.2034   -1.4365 C   0  0  0  0  0  0  0  0  0  0  0  0
    5.9368   -3.5420   -0.7797 C   0  0  1  0  0  0  0  0  0  0  0  0
    7.2220   -3.0078   -1.3946 C   0  0  0  0  0  0  0  0  0  0  0  0
    8.1094   -2.6383   -0.3577 O   0  0  0  0  0  0  0  0  0  0  0  0
    8.5782   -3.7741    0.3381 C   0  0  1  0  0  0  0  0  0  0  0  0
    7.9168   -3.9955    1.5754 O   0  0  0  0  0  0  0  0  0  0  0  0
    7.5717   -4.9182    0.5538 C   0  0  2  0  0  0  0  0  0  0  0  0
    8.1643   -6.3064    0.6326 C   0  0  0  0  0  0  0  0  0  0  0  0
    6.1297   -4.8230    0.0492 C   0  0  1  0  0  0  0  0  0  0  0  0
    1.4928   -5.0676    5.0775 H   0  0  0  0  0  0  0  0  0  0  0  0
    1.0025   -6.7509    5.2120 H   0  0  0  0  0  0  0  0  0  0  0  0
    0.6394   -5.8694    3.7550 H   0  0  0  0  0  0  0  0  0  0  0  0
    3.9242   -6.1146    5.7544 H   0  0  0  0  0  0  0  0  0  0  0  0
    4.4996   -7.4782    4.7998 H   0  0  0  0  0  0  0  0  0  0  0  0
    3.0540   -7.6399    5.7380 H   0  0  0  0  0  0  0  0  0  0  0  0
    3.4618   -8.8010    1.4544 H   0  0  0  0  0  0  0  0  0  0  0  0
    2.8898   -7.2483    0.8996 H   0  0  0  0  0  0  0  0  0  0  0  0
    5.2834   -7.7630    2.7445 H   0  0  0  0  0  0  0  0  0  0  0  0
    5.3661   -7.3298    1.0784 H   0  0  0  0  0  0  0  0  0  0  0  0
    6.1703   -4.3341    3.4381 H   0  0  0  0  0  0  0  0  0  0  0  0
    6.9007   -5.8743    2.9959 H   0  0  0  0  0  0  0  0  0  0  0  0
    5.7989   -5.7807    4.3228 H   0  0  0  0  0  0  0  0  0  0  0  0
    4.1436   -5.2020    0.4153 H   0  0  0  0  0  0  0  0  0  0  0  0
    5.1780   -2.8866    2.0114 H   0  0  0  0  0  0  0  0  0  0  0  0
    2.9955   -2.3425    2.3481 H   0  0  0  0  0  0  0  0  0  0  0  0
    2.3372   -1.9319    0.2750 H   0  0  0  0  0  0  0  0  0  0  0  0
    1.6071   -4.1136    2.8117 H   0  0  0  0  0  0  0  0  0  0  0  0
    2.0895   -5.0945    1.4659 H   0  0  0  0  0  0  0  0  0  0  0  0
    3.7507   -4.5288    3.9120 H   0  0  0  0  0  0  0  0  0  0  0  0
    5.5043   -0.7123   -0.9108 H   0  0  0  0  0  0  0  0  0  0  0  0
    6.0445   -0.9510    0.7494 H   0  0  0  0  0  0  0  0  0  0  0  0
    4.3365   -0.6100    0.3963 H   0  0  0  0  0  0  0  0  0  0  0  0
    3.8619   -3.9824   -1.4897 H   0  0  0  0  0  0  0  0  0  0  0  0
    4.6386   -2.5348   -2.2934 H   0  0  0  0  0  0  0  0  0  0  0  0
    7.6765   -3.7444   -2.0587 H   0  0  0  0  0  0  0  0  0  0  0  0
    7.0013   -2.1235   -1.9881 H   0  0  0  0  0  0  0  0  0  0  0  0
    9.6609   -3.8932    0.3762 H   0  0  0  0  0  0  0  0  0  0  0  0
    8.2347   -6.7448   -0.3585 H   0  0  0  0  0  0  0  0  0  0  0  0
    7.5827   -6.9798    1.2549 H   0  0  0  0  0  0  0  0  0  0  0  0
    9.1763   -6.2438    1.0260 H   0  0  0  0  0  0  0  0  0  0  0  0
    5.9461   -5.6636   -0.6181 H   0  0  0  0  0  0  0  0  0  0  0  0
  1  2  1  0
  1 27  1  0
  1 28  1  0
  1 29  1  0
  2 15  1  0
  2  3  1  0
  2  4  1  0
  3 30  1  0
  3 31  1  0
  3 32  1  0
  4  5  2  0
  4  6  1  0
  6  7  1  0
  6 33  1  0
  6 34  1  0
  7  8  1  0
  7 35  1  0
  7 36  1  0
  8 15  1  0
  8  9  1  1
  8 10  1  0
  9 37  1  0
  9 38  1  0
  9 39  1  0
 10 26  1  0
 10 11  1  0
 10 40  1  6
 11 12  1  0
 11 16  1  0
 11 41  1  1
 12 13  1  0
 12 14  1  0
 12 42  1  1
 13 43  1  0
 14 15  1  0
 14 44  1  0
 14 45  1  0
 15 46  1  1
 16 19  1  0
 16 17  1  1
 16 18  1  0
 17 47  1  0
 17 48  1  0
 17 49  1  0
 19 18  1  6
 18 50  1  0
 18 51  1  0
 19 26  1  0
 19 20  1  0
 20 21  1  0
 20 52  1  0
 20 53  1  0
 21 22  1  0
 22 24  1  0
 22 23  1  0
 22 54  1  1
 23 24  1  0
 24 25  1  1
 24 26  1  0
 25 55  1  0
 25 56  1  0
 25 57  1  0
 26 58  1  6
M  END
>  <i_m_ct_stereo_status>  (101) 
1

>  <s_m_source_file>  (101) 
/var/tmp/pbs.5076255.sched01/tmpr7id634h/0ay6m0hv_.sdf

>  <i_m_source_file_index>  (101) 
43

>  <i_lp_mmshare_version>  (101) 
48012

>  <i_f3d_flags>  (101) 
0

>  <s_epik_input>  (101) 
W0NIMl0xW0NIMl1DKD1PKUMoW0NIM10pKFtDSDNdKVtDQEhdKFtDSDJdW0NAQEhdMltPSF0pW0NAXTEoW0NIM10pW0NAQEhdKFtDQEhdMltDQF0oW0NAQF0zNDUpKFtDSDNdKVtDSDJdMylbQ0BASF01W0NAQF02KFtDSDNdKVtDQEhdKE82KU9bQ0gyXTQ=

>  <s_epik_cmdline>  (101) 
J2VwaWtfcHl0aG9uJywgJy1waHQnLCAnMi4wJywgJy1waCcsICc3LjAnLCAnLXRuJywgJzgnLCAnLW1hJywgJzIwMCcsICctaW1hZScsICc8aW5maWxlLm1hZT4nLCAnLW9tYWUnLCAnPG91dGZpbGUubWFlPic=

>  <r_lp_tautomer_probability>  (101) 
1

>  <r_epik_Ionization_Penalty>  (101) 
1.34716e-06

>  <r_epik_Ionization_Penalty_Charging>  (101) 
0

>  <r_epik_Ionization_Penalty_Neutral>  (101) 
1.34716e-06

>  <r_epik_State_Penalty>  (101) 
-0

>  <r_epik_Charging_Adjusted_Penalty>  (101) 
0

>  <i_epik_Tot_Q>  (101) 
0

>  <i_epik_Tot_abs_Q>  (101) 
0

>  <s_epik_Chemistry_Notes>  (101) 
This compound contains an acetal/aminal-like group ( X-CH(R)-Y where X, Y are N, S, or O) that may be acid/base labile, releasing an aldehyde.

>  <s_lp_Force_Field>  (101) 
OPLS3e

>  <r_lp_Energy>  (101) 
69.4079

>  <b_lp_Chiralities_Consistent>  (101) 
1

>  <s_lp_Variant>  (101) 
29:0-1

>  <s_i_glide_gridfile>  (101) 
pfpi4k_grid

>  <i_i_glide_lignum>  (101) 
43

>  <i_i_glide_rotatable_bonds>  (101) 
1

>  <r_i_docking_score>  (101) 
-2.4887

>  <r_i_glide_ligand_efficiency>  (101) 
-0.0957193

>  <r_i_glide_ligand_efficiency_sa>  (101) 
-0.283568

>  <r_i_glide_ligand_efficiency_ln>  (101) 
-0.584463

>  <r_i_glide_gscore>  (101) 
-2.4887

>  <r_i_glide_lipo>  (101) 
-0.44503

>  <r_i_glide_hbond>  (101) 
-0.0520042

>  <r_i_glide_metal>  (101) 
-0

>  <r_i_glide_rewards>  (101) 
-1.12375

>  <r_i_glide_evdw>  (101) 
-18.0531

>  <r_i_glide_ecoul>  (101) 
0.26314

>  <r_i_glide_erotb>  (101) 
0

>  <r_i_glide_esite>  (101) 
-0.00473068

>  <r_i_glide_emodel>  (101) 
-19.8717

>  <r_i_glide_energy>  (101) 
-17.79

>  <r_i_glide_einternal>  (101) 
0.500928

>  <r_i_glide_intrahb_reward>  (101) 
-0

>  <i_i_glide_confnum>  (101) 
2

>  <i_i_glide_posenum>  (101) 
40

>  <r_i_glide_eff_state_penalty>  (101) 
0

>  <ligand_id>  (101) 
29

>  <original_smiles>  (101) 
CC1(C)C(=O)CCC2(C)C3C(C(O)CC12)C1(C)CC12COC1OC1(C)C32

>  <smiles>  (101) 
[H]OC1([H])C([H])([H])C2([H])C(C([H])([H])[H])(C([H])([H])[H])C(=O)C([H])([H])C([H])([H])C2(C([H])([H])[H])C2([H])C1([H])C1(C([H])([H])[H])C([H])([H])C13C([H])([H])OC1([H])OC1(C([H])([H])[H])C23[H]

$$$$
30:2:0
     RDKit          3D

 61 66  0  0  1  0  0  0  0  0999 V2000
   -1.6914   -9.1651    2.3337 C   0  0  0  0  0  0  0  0  0  0  0  0
   -0.5347   -8.6398    3.1901 C   0  0  2  0  0  0  0  0  0  0  0  0
   -0.5534   -7.0530    3.2062 C   0  0  0  0  0  0  0  0  0  0  0  0
    0.4492   -6.3012    4.1400 C   0  0  0  0  0  0  0  0  0  0  0  0
   -0.0042   -5.8515    5.1957 O   0  0  0  0  0  0  0  0  0  0  0  0
    1.9355   -6.2029    3.6820 C   0  0  2  0  0  0  0  0  0  0  0  0
    2.1124   -7.2753    2.6372 C   0  0  0  0  0  0  0  0  0  0  0  0
    1.9415   -8.5889    3.4024 C   0  0  2  0  0  0  0  0  0  0  0  0
    3.3138   -9.0268    3.8946 C   0  0  0  0  0  0  0  0  0  0  0  0
    3.9102   -7.8227    4.7292 C   0  0  0  0  0  0  0  0  0  0  0  0
    3.0504   -6.4758    4.7729 C   0  0  1  0  0  0  0  0  0  0  0  0
    3.6908   -5.2483    4.1396 C   0  0  0  0  0  0  0  0  0  0  0  0
    4.5374   -5.1956    3.0957 C   0  0  0  0  0  0  0  0  0  0  0  0
    3.5250   -4.3754    2.2682 C   0  0  2  0  0  0  0  0  0  0  0  0
    3.2301   -4.8825    0.8545 C   0  0  0  0  0  0  0  0  0  0  0  0
    3.9831   -2.9243    2.2367 C   0  0  0  0  0  0  0  0  0  0  0  0
    5.1551   -2.5601    2.1294 O   0  0  0  0  0  0  0  0  0  0  0  0
    2.8181   -1.9072    2.3249 C   0  0  1  0  0  0  0  0  0  0  0  0
    1.9033   -2.2952    3.5042 C   0  0  0  0  0  0  0  0  0  0  0  0
    1.7998   -3.5440    3.9933 C   0  0  0  0  0  0  0  0  0  0  0  0
    2.4964   -4.7536    3.3812 C   0  0  1  0  0  0  0  0  0  0  0  0
    1.1368   -1.3276    4.1194 O   0  0  0  0  0  0  0  0  0  0  0  0
    1.0266   -0.0289    3.6634 C   0  0  0  0  0  0  0  0  0  0  0  0
    0.2467    0.7617    4.2625 N   0  0  0  0  0  0  0  0  0  0  0  0
    1.8801    0.3765    2.4590 C   0  0  1  0  0  0  0  0  0  0  0  0
    2.0674    1.8371    2.4829 C   0  0  0  0  0  0  0  0  0  0  0  0
    2.2167    2.9864    2.5131 N   0  0  0  0  0  0  0  0  0  0  0  0
    3.2112   -0.4016    2.3451 C   0  0  0  0  0  0  0  0  0  0  0  0
    4.1473   -0.0263    3.5304 C   0  0  0  0  0  0  0  0  0  0  0  0
    3.8800    0.0042    1.0079 C   0  0  0  0  0  0  0  0  0  0  0  0
    0.7979   -9.3753    2.7927 C   0  0  0  0  0  0  0  0  0  0  0  0
   -1.5740   -8.8858    1.2859 H   0  0  0  0  0  0  0  0  0  0  0  0
   -2.6347   -8.7582    2.6853 H   0  0  0  0  0  0  0  0  0  0  0  0
   -1.7502  -10.2515    2.3862 H   0  0  0  0  0  0  0  0  0  0  0  0
   -0.7559   -8.9378    4.2187 H   0  0  0  0  0  0  0  0  0  0  0  0
   -0.4641   -6.6588    2.1936 H   0  0  0  0  0  0  0  0  0  0  0  0
   -1.5398   -6.7430    3.5455 H   0  0  0  0  0  0  0  0  0  0  0  0
    1.4762   -7.1509    1.7658 H   0  0  0  0  0  0  0  0  0  0  0  0
    3.1095   -7.2667    2.2119 H   0  0  0  0  0  0  0  0  0  0  0  0
    1.5270   -8.4976    4.4108 H   0  0  0  0  0  0  0  0  0  0  0  0
    3.2203   -9.9219    4.5126 H   0  0  0  0  0  0  0  0  0  0  0  0
    3.9650   -9.2830    3.0573 H   0  0  0  0  0  0  0  0  0  0  0  0
    4.0599   -8.1865    5.7465 H   0  0  0  0  0  0  0  0  0  0  0  0
    4.9281   -7.6321    4.3750 H   0  0  0  0  0  0  0  0  0  0  0  0
    2.6511   -6.2883    5.7709 H   0  0  0  0  0  0  0  0  0  0  0  0
    5.4337   -5.7531    2.8202 H   0  0  0  0  0  0  0  0  0  0  0  0
    3.5534   -4.1877    0.0789 H   0  0  0  0  0  0  0  0  0  0  0  0
    2.1535   -5.0036    0.7390 H   0  0  0  0  0  0  0  0  0  0  0  0
    3.6924   -5.8458    0.6588 H   0  0  0  0  0  0  0  0  0  0  0  0
    2.2410   -2.0710    1.4147 H   0  0  0  0  0  0  0  0  0  0  0  0
    1.1544   -3.7198    4.8379 H   0  0  0  0  0  0  0  0  0  0  0  0
    0.2419    1.7098    3.9006 H   0  0  0  0  0  0  0  0  0  0  0  0
    1.2840    0.1865    1.5643 H   0  0  0  0  0  0  0  0  0  0  0  0
    4.2829    1.0547    3.6156 H   0  0  0  0  0  0  0  0  0  0  0  0
    5.1419   -0.4550    3.4272 H   0  0  0  0  0  0  0  0  0  0  0  0
    3.7433   -0.3699    4.4833 H   0  0  0  0  0  0  0  0  0  0  0  0
    4.0405    1.0775    0.9388 H   0  0  0  0  0  0  0  0  0  0  0  0
    3.2487   -0.2717    0.1646 H   0  0  0  0  0  0  0  0  0  0  0  0
    4.8523   -0.4564    0.8573 H   0  0  0  0  0  0  0  0  0  0  0  0
    0.7791  -10.3964    3.1791 H   0  0  0  0  0  0  0  0  0  0  0  0
    0.9155   -9.4392    1.7089 H   0  0  0  0  0  0  0  0  0  0  0  0
  1  2  1  0
  1 32  1  0
  1 33  1  0
  1 34  1  0
  2 31  1  0
  2  3  1  0
  2 35  1  1
  3  4  1  0
  3 36  1  0
  3 37  1  0
  4  5  2  0
  6  4  1  1
  6 11  1  0
  6 21  1  0
  6  7  1  0
  7  8  1  0
  7 38  1  0
  7 39  1  0
  8  9  1  0
  8 31  1  0
  8 40  1  1
  9 10  1  0
  9 41  1  0
  9 42  1  0
 10 11  1  0
 10 43  1  0
 10 44  1  0
 11 12  1  0
 11 45  1  1
 12 21  1  0
 12 13  2  0
 13 14  1  0
 13 46  1  0
 14 21  1  0
 14 15  1  6
 14 16  1  0
 15 47  1  0
 15 48  1  0
 15 49  1  0
 16 17  2  0
 16 18  1  0
 18 28  1  0
 18 19  1  0
 18 50  1  6
 19 20  2  0
 19 22  1  0
 21 20  1  1
 20 51  1  0
 22 23  1  0
 23 24  2  3
 23 25  1  0
 24 52  1  0
 25 26  1  0
 25 28  1  0
 25 53  1  6
 26 27  3  0
 28 29  1  0
 28 30  1  0
 29 54  1  0
 29 55  1  0
 29 56  1  0
 30 57  1  0
 30 58  1  0
 30 59  1  0
 31 60  1  0
 31 61  1  0
M  END
>  <i_m_ct_stereo_status>  (102) 
1

>  <s_m_source_file>  (102) 
/var/tmp/pbs.5076255.sched01/tmpr7id634h/0ay6m0hv_.sdf

>  <i_m_source_file_index>  (102) 
46

>  <i_lp_mmshare_version>  (102) 
48012

>  <i_f3d_flags>  (102) 
0

>  <s_epik_input>  (102) 
Tz1DMVtDSDJdW0NAQEhdKFtDSDNdKVtDSDJdW0NASF0oW0NIMl0yKVtDSDJdW0NIMl1bQ0BIXTNDKEM0NVtDQEBdMTIzKT1bQ0hdW0NAXTQoW0NIM10pQyg9TylbQ0BIXTZDKD1bQ0hdNSlPL0MoPU5cW0hdKVtDQEBIXShDI04pQzYoW0NIM10pW0NIM10=

>  <s_epik_cmdline>  (102) 
J2VwaWtfcHl0aG9uJywgJy1waHQnLCAnMi4wJywgJy1waCcsICc3LjAnLCAnLXRuJywgJzgnLCAnLW1hJywgJzIwMCcsICctaW1hZScsICc8aW5maWxlLm1hZT4nLCAnLW9tYWUnLCAnPG91dGZpbGUubWFlPic=

>  <r_lp_tautomer_probability>  (102) 
0.99995

>  <r_epik_Ionization_Penalty>  (102) 
0.00763931

>  <r_epik_Ionization_Penalty_Charging>  (102) 
0

>  <r_epik_Ionization_Penalty_Neutral>  (102) 
0.00763931

>  <r_epik_State_Penalty>  (102) 
0.413483

>  <r_epik_Charging_Adjusted_Penalty>  (102) 
0.413483

>  <i_epik_Tot_Q>  (102) 
0

>  <i_epik_Tot_abs_Q>  (102) 
0

>  <s_epik_Chemistry_Notes>  (102) 
This compound has an imine and may undergo hydrolysis.

>  <s_lp_Force_Field>  (102) 
OPLS3e

>  <r_lp_Energy>  (102) 
112.303

>  <b_lp_Chiralities_Consistent>  (102) 
1

>  <s_lp_Variant>  (102) 
30:0-3

>  <s_i_glide_gridfile>  (102) 
pfpi4k_grid

>  <i_i_glide_lignum>  (102) 
46

>  <i_i_glide_rotatable_bonds>  (102) 
1

>  <r_i_docking_score>  (102) 
-2.39481

>  <r_i_glide_ligand_efficiency>  (102) 
-0.0772519

>  <r_i_glide_ligand_efficiency_sa>  (102) 
-0.242678

>  <r_i_glide_ligand_efficiency_ln>  (102) 
-0.540103

>  <r_i_glide_gscore>  (102) 
-2.39481

>  <r_i_glide_lipo>  (102) 
-0.3602

>  <r_i_glide_hbond>  (102) 
0

>  <r_i_glide_metal>  (102) 
-0

>  <r_i_glide_rewards>  (102) 
-0.596341

>  <r_i_glide_evdw>  (102) 
-25.3935

>  <r_i_glide_ecoul>  (102) 
-0.874423

>  <r_i_glide_erotb>  (102) 
0

>  <r_i_glide_esite>  (102) 
-0.0374286

>  <r_i_glide_emodel>  (102) 
-29.0881

>  <r_i_glide_energy>  (102) 
-26.2679

>  <r_i_glide_einternal>  (102) 
1.03805

>  <r_i_glide_intrahb_reward>  (102) 
-0

>  <i_i_glide_confnum>  (102) 
2

>  <i_i_glide_posenum>  (102) 
38

>  <r_i_glide_eff_state_penalty>  (102) 
0

>  <ligand_id>  (102) 
30

>  <original_smiles>  (102) 
CC1CC(=O)C23CC(CCC2C2=CC4(C)C(=O)C5C(=CC243)OC(=N)C(C#N)C5(C)C)C1

>  <smiles>  (102) 
[H]N=C1OC2=C([H])C34C(=C([H])C3(C([H])([H])[H])C(=O)C2([H])C(C([H])([H])[H])(C([H])([H])[H])C1([H])C#N)C1([H])C([H])([H])C([H])([H])C2([H])C([H])([H])C([H])(C([H])([H])[H])C([H])([H])C(=O)C14C2([H])[H]

$$$$
30:2:1
     RDKit          3D

 61 66  0  0  1  0  0  0  0  0999 V2000
   -2.5203    3.2234    3.1566 C   0  0  0  0  0  0  0  0  0  0  0  0
   -1.0189    3.1040    3.4610 C   0  0  2  0  0  0  0  0  0  0  0  0
   -0.4024    1.8520    2.7024 C   0  0  0  0  0  0  0  0  0  0  0  0
    1.1461    1.6215    2.7539 C   0  0  0  0  0  0  0  0  0  0  0  0
    1.8107    1.9487    1.7716 O   0  0  0  0  0  0  0  0  0  0  0  0
    1.7503    1.0399    4.0588 C   0  0  2  0  0  0  0  0  0  0  0  0
    0.7150    1.2600    5.1268 C   0  0  0  0  0  0  0  0  0  0  0  0
    0.6431    2.7796    5.2841 C   0  0  2  0  0  0  0  0  0  0  0  0
    1.6489    3.1884    6.3525 C   0  0  0  0  0  0  0  0  0  0  0  0
    3.0551    2.6147    5.9088 C   0  0  0  0  0  0  0  0  0  0  0  0
    3.0819    1.7072    4.5939 C   0  0  1  0  0  0  0  0  0  0  0  0
    3.4997    0.2577    4.7835 C   0  0  0  0  0  0  0  0  0  0  0  0
    3.3024   -0.5324    5.8563 C   0  0  0  0  0  0  0  0  0  0  0  0
    2.4286   -1.4992    5.0253 C   0  0  2  0  0  0  0  0  0  0  0  0
    1.0680   -1.8691    5.6222 C   0  0  0  0  0  0  0  0  0  0  0  0
    3.2421   -2.7466    4.7190 C   0  0  0  0  0  0  0  0  0  0  0  0
    4.0116   -3.2930    5.5073 O   0  0  0  0  0  0  0  0  0  0  0  0
    2.9907   -3.3132    3.2966 C   0  0  1  0  0  0  0  0  0  0  0  0
    3.1153   -2.1653    2.2763 C   0  0  0  0  0  0  0  0  0  0  0  0
    2.9104   -0.8687    2.5739 C   0  0  0  0  0  0  0  0  0  0  0  0
    2.4382   -0.3804    3.9390 C   0  0  1  0  0  0  0  0  0  0  0  0
    3.4707   -2.4500    0.9742 O   0  0  0  0  0  0  0  0  0  0  0  0
    3.5866   -3.7290    0.4719 C   0  0  0  0  0  0  0  0  0  0  0  0
    3.8494   -3.8732   -0.7528 N   0  0  0  0  0  0  0  0  0  0  0  0
    3.4010   -4.8960    1.4462 C   0  0  1  0  0  0  0  0  0  0  0  0
    4.0692   -6.0969    0.9096 C   0  0  0  0  0  0  0  0  0  0  0  0
    4.5956   -7.0414    0.4902 N   0  0  0  0  0  0  0  0  0  0  0  0
    3.8198   -4.5690    2.8940 C   0  0  0  0  0  0  0  0  0  0  0  0
    5.3563   -4.3334    2.9576 C   0  0  0  0  0  0  0  0  0  0  0  0
    3.4521   -5.7879    3.7776 C   0  0  0  0  0  0  0  0  0  0  0  0
   -0.7774    3.2425    5.0122 C   0  0  0  0  0  0  0  0  0  0  0  0
   -3.0767    2.3786    3.5626 H   0  0  0  0  0  0  0  0  0  0  0  0
   -2.7058    3.2600    2.0828 H   0  0  0  0  0  0  0  0  0  0  0  0
   -2.9321    4.1325    3.5894 H   0  0  0  0  0  0  0  0  0  0  0  0
   -0.5436    3.9714    2.9989 H   0  0  0  0  0  0  0  0  0  0  0  0
   -0.9094    0.9329    2.9999 H   0  0  0  0  0  0  0  0  0  0  0  0
   -0.6322    1.9650    1.6448 H   0  0  0  0  0  0  0  0  0  0  0  0
   -0.2279    0.7616    4.9291 H   0  0  0  0  0  0  0  0  0  0  0  0
    1.0230    0.8412    6.0798 H   0  0  0  0  0  0  0  0  0  0  0  0
    1.1337    3.3602    4.4960 H   0  0  0  0  0  0  0  0  0  0  0  0
    1.6823    4.2759    6.4410 H   0  0  0  0  0  0  0  0  0  0  0  0
    1.3627    2.7947    7.3290 H   0  0  0  0  0  0  0  0  0  0  0  0
    3.7187    3.4703    5.7681 H   0  0  0  0  0  0  0  0  0  0  0  0
    3.4950    2.0888    6.7600 H   0  0  0  0  0  0  0  0  0  0  0  0
    3.6074    2.2039    3.7733 H   0  0  0  0  0  0  0  0  0  0  0  0
    3.4351   -0.3999    6.9304 H   0  0  0  0  0  0  0  0  0  0  0  0
    0.9928   -2.9269    5.8706 H   0  0  0  0  0  0  0  0  0  0  0  0
    0.2911   -1.6604    4.8842 H   0  0  0  0  0  0  0  0  0  0  0  0
    0.8449   -1.2914    6.5131 H   0  0  0  0  0  0  0  0  0  0  0  0
    1.9432   -3.6085    3.3058 H   0  0  0  0  0  0  0  0  0  0  0  0
    3.0444   -0.1294    1.7998 H   0  0  0  0  0  0  0  0  0  0  0  0
    3.9207   -4.8322   -1.0794 H   0  0  0  0  0  0  0  0  0  0  0  0
    2.3391   -5.1520    1.4426 H   0  0  0  0  0  0  0  0  0  0  0  0
    5.9111   -5.1730    2.5300 H   0  0  0  0  0  0  0  0  0  0  0  0
    5.7190   -4.2151    3.9768 H   0  0  0  0  0  0  0  0  0  0  0  0
    5.6487   -3.4403    2.4044 H   0  0  0  0  0  0  0  0  0  0  0  0
    3.9330   -6.7062    3.4328 H   0  0  0  0  0  0  0  0  0  0  0  0
    2.3772   -5.9672    3.7655 H   0  0  0  0  0  0  0  0  0  0  0  0
    3.7482   -5.6664    4.8163 H   0  0  0  0  0  0  0  0  0  0  0  0
   -0.9038    4.2839    5.3141 H   0  0  0  0  0  0  0  0  0  0  0  0
   -1.4944    2.6460    5.5804 H   0  0  0  0  0  0  0  0  0  0  0  0
  1  2  1  0
  1 32  1  0
  1 33  1  0
  1 34  1  0
  2 31  1  0
  2  3  1  0
  2 35  1  6
  3  4  1  0
  3 36  1  0
  3 37  1  0
  4  5  2  0
  6  4  1  6
  6 11  1  0
  6 21  1  0
  6  7  1  0
  7  8  1  0
  7 38  1  0
  7 39  1  0
  8  9  1  0
  8 31  1  0
  8 40  1  6
  9 10  1  0
  9 41  1  0
  9 42  1  0
 10 11  1  0
 10 43  1  0
 10 44  1  0
 11 12  1  0
 11 45  1  6
 12 21  1  0
 12 13  2  0
 13 14  1  0
 13 46  1  0
 14 21  1  0
 14 15  1  1
 14 16  1  0
 15 47  1  0
 15 48  1  0
 15 49  1  0
 16 17  2  0
 16 18  1  0
 18 28  1  0
 18 19  1  0
 18 50  1  1
 19 20  2  0
 19 22  1  0
 21 20  1  6
 20 51  1  0
 22 23  1  0
 23 24  2  3
 23 25  1  0
 24 52  1  0
 25 26  1  0
 25 28  1  0
 25 53  1  1
 26 27  3  0
 28 29  1  0
 28 30  1  0
 29 54  1  0
 29 55  1  0
 29 56  1  0
 30 57  1  0
 30 58  1  0
 30 59  1  0
 31 60  1  0
 31 61  1  0
M  END
>  <i_m_ct_stereo_status>  (103) 
1

>  <s_m_source_file>  (103) 
/var/tmp/pbs.5076255.sched01/tmpr7id634h/0ay6m0hv_.sdf

>  <i_m_source_file_index>  (103) 
46

>  <i_lp_mmshare_version>  (103) 
48012

>  <i_f3d_flags>  (103) 
0

>  <s_epik_input>  (103) 
Tz1DMVtDSDJdW0NAQEhdKFtDSDNdKVtDSDJdW0NASF0oW0NIMl0yKVtDSDJdW0NIMl1bQ0BIXTNDKEM0NVtDQEBdMTIzKT1bQ0hdW0NAXTQoW0NIM10pQyg9TylbQ0BIXTZDKD1bQ0hdNSlPL0MoPU5cW0hdKVtDQEBIXShDI04pQzYoW0NIM10pW0NIM10=

>  <s_epik_cmdline>  (103) 
J2VwaWtfcHl0aG9uJywgJy1waHQnLCAnMi4wJywgJy1waCcsICc3LjAnLCAnLXRuJywgJzgnLCAnLW1hJywgJzIwMCcsICctaW1hZScsICc8aW5maWxlLm1hZT4nLCAnLW9tYWUnLCAnPG91dGZpbGUubWFlPic=

>  <r_lp_tautomer_probability>  (103) 
0.99995

>  <r_epik_Ionization_Penalty>  (103) 
0.00763931

>  <r_epik_Ionization_Penalty_Charging>  (103) 
0

>  <r_epik_Ionization_Penalty_Neutral>  (103) 
0.00763931

>  <r_epik_State_Penalty>  (103) 
0.413483

>  <r_epik_Charging_Adjusted_Penalty>  (103) 
0.413483

>  <i_epik_Tot_Q>  (103) 
0

>  <i_epik_Tot_abs_Q>  (103) 
0

>  <s_epik_Chemistry_Notes>  (103) 
This compound has an imine and may undergo hydrolysis.

>  <s_lp_Force_Field>  (103) 
OPLS3e

>  <r_lp_Energy>  (103) 
112.303

>  <b_lp_Chiralities_Consistent>  (103) 
1

>  <s_lp_Variant>  (103) 
30:0-3

>  <s_i_glide_gridfile>  (103) 
pfpi4k_grid

>  <i_i_glide_lignum>  (103) 
46

>  <i_i_glide_rotatable_bonds>  (103) 
1

>  <r_i_docking_score>  (103) 
-2.18714

>  <r_i_glide_ligand_efficiency>  (103) 
-0.070553

>  <r_i_glide_ligand_efficiency_sa>  (103) 
-0.221634

>  <r_i_glide_ligand_efficiency_ln>  (103) 
-0.493268

>  <r_i_glide_gscore>  (103) 
-2.18714

>  <r_i_glide_lipo>  (103) 
-0.0253155

>  <r_i_glide_hbond>  (103) 
-0.136743

>  <r_i_glide_metal>  (103) 
-0

>  <r_i_glide_rewards>  (103) 
-0.66754

>  <r_i_glide_evdw>  (103) 
-21.6092

>  <r_i_glide_ecoul>  (103) 
-1.58819

>  <r_i_glide_erotb>  (103) 
0

>  <r_i_glide_esite>  (103) 
-0.0388576

>  <r_i_glide_emodel>  (103) 
-25.7008

>  <r_i_glide_energy>  (103) 
-23.1974

>  <r_i_glide_einternal>  (103) 
1.01448

>  <r_i_glide_intrahb_reward>  (103) 
-0

>  <i_i_glide_confnum>  (103) 
1

>  <i_i_glide_posenum>  (103) 
5

>  <r_i_glide_eff_state_penalty>  (103) 
0

>  <ligand_id>  (103) 
30

>  <original_smiles>  (103) 
CC1CC(=O)C23CC(CCC2C2=CC4(C)C(=O)C5C(=CC243)OC(=N)C(C#N)C5(C)C)C1

>  <smiles>  (103) 
[H]N=C1OC2=C([H])C34C(=C([H])C3(C([H])([H])[H])C(=O)C2([H])C(C([H])([H])[H])(C([H])([H])[H])C1([H])C#N)C1([H])C([H])([H])C([H])([H])C2([H])C([H])([H])C([H])(C([H])([H])[H])C([H])([H])C(=O)C14C2([H])[H]

$$$$
30:2:2
     RDKit          3D

 61 66  0  0  1  0  0  0  0  0999 V2000
    0.2367  -10.0916    2.5814 C   0  0  0  0  0  0  0  0  0  0  0  0
    0.4167   -9.2775    3.8704 C   0  0  2  0  0  0  0  0  0  0  0  0
    0.3071   -7.7276    3.5533 C   0  0  0  0  0  0  0  0  0  0  0  0
    0.3061   -6.7190    4.7461 C   0  0  0  0  0  0  0  0  0  0  0  0
   -0.7876   -6.2636    5.0893 O   0  0  0  0  0  0  0  0  0  0  0  0
    1.6660   -6.4015    5.4367 C   0  0  2  0  0  0  0  0  0  0  0  0
    2.5911   -7.5235    5.0439 C   0  0  0  0  0  0  0  0  0  0  0  0
    2.0007   -8.7642    5.7171 C   0  0  2  0  0  0  0  0  0  0  0  0
    2.6361   -8.8972    7.0948 C   0  0  0  0  0  0  0  0  0  0  0  0
    2.3944   -7.5282    7.8497 C   0  0  0  0  0  0  0  0  0  0  0  0
    1.6849   -6.3600    7.0200 C   0  0  1  0  0  0  0  0  0  0  0  0
    2.5145   -5.1062    6.7806 C   0  0  0  0  0  0  0  0  0  0  0  0
    3.8481   -5.0064    6.6269 C   0  0  0  0  0  0  0  0  0  0  0  0
    3.6795   -4.4681    5.1896 C   0  0  2  0  0  0  0  0  0  0  0  0
    4.5056   -5.1574    4.1024 C   0  0  0  0  0  0  0  0  0  0  0  0
    3.9439   -2.9690    5.1955 C   0  0  0  0  0  0  0  0  0  0  0  0
    4.8256   -2.4136    5.8509 O   0  0  0  0  0  0  0  0  0  0  0  0
    3.0073   -2.1722    4.2537 C   0  0  1  0  0  0  0  0  0  0  0  0
    1.5478   -2.5957    4.5220 C   0  0  0  0  0  0  0  0  0  0  0  0
    1.1976   -3.7909    5.0358 C   0  0  0  0  0  0  0  0  0  0  0  0
    2.1889   -4.9110    5.3288 C   0  0  1  0  0  0  0  0  0  0  0  0
    0.5195   -1.7212    4.2357 O   0  0  0  0  0  0  0  0  0  0  0  0
    0.6962   -0.5109    3.5927 C   0  0  0  0  0  0  0  0  0  0  0  0
   -0.3179    0.1904    3.3262 N   0  0  0  0  0  0  0  0  0  0  0  0
    2.1275   -0.0905    3.2492 C   0  0  1  0  0  0  0  0  0  0  0  0
    2.1800    1.3738    3.0905 C   0  0  0  0  0  0  0  0  0  0  0  0
    2.2206    2.5274    2.9684 N   0  0  0  0  0  0  0  0  0  0  0  0
    3.1836   -0.6248    4.2391 C   0  0  0  0  0  0  0  0  0  0  0  0
    2.9773    0.0262    5.6365 C   0  0  0  0  0  0  0  0  0  0  0  0
    4.5779   -0.2272    3.6911 C   0  0  0  0  0  0  0  0  0  0  0  0
    1.6748   -9.8014    4.6584 C   0  0  0  0  0  0  0  0  0  0  0  0
    1.0471   -9.9074    1.8759 H   0  0  0  0  0  0  0  0  0  0  0  0
   -0.7038   -9.8451    2.0890 H   0  0  0  0  0  0  0  0  0  0  0  0
    0.2219  -11.1596    2.7930 H   0  0  0  0  0  0  0  0  0  0  0  0
   -0.4508   -9.4972    4.4953 H   0  0  0  0  0  0  0  0  0  0  0  0
    1.0629   -7.4225    2.8294 H   0  0  0  0  0  0  0  0  0  0  0  0
   -0.6423   -7.5658    3.0455 H   0  0  0  0  0  0  0  0  0  0  0  0
    2.7560   -7.6011    3.9729 H   0  0  0  0  0  0  0  0  0  0  0  0
    3.5922   -7.3783    5.4347 H   0  0  0  0  0  0  0  0  0  0  0  0
    0.9884   -8.6481    6.1143 H   0  0  0  0  0  0  0  0  0  0  0  0
    2.1829   -9.7313    7.6358 H   0  0  0  0  0  0  0  0  0  0  0  0
    3.7025   -9.1134    7.0129 H   0  0  0  0  0  0  0  0  0  0  0  0
    1.7978   -7.7551    8.7341 H   0  0  0  0  0  0  0  0  0  0  0  0
    3.3496   -7.1942    8.2669 H   0  0  0  0  0  0  0  0  0  0  0  0
    0.6849   -6.1479    7.4011 H   0  0  0  0  0  0  0  0  0  0  0  0
    4.7040   -5.4194    7.1626 H   0  0  0  0  0  0  0  0  0  0  0  0
    5.2459   -4.4969    3.6496 H   0  0  0  0  0  0  0  0  0  0  0  0
    3.8387   -5.4809    3.3022 H   0  0  0  0  0  0  0  0  0  0  0  0
    5.0221   -6.0372    4.4766 H   0  0  0  0  0  0  0  0  0  0  0  0
    3.2576   -2.5317    3.2563 H   0  0  0  0  0  0  0  0  0  0  0  0
    0.1538   -3.9968    5.2115 H   0  0  0  0  0  0  0  0  0  0  0  0
   -0.1276    1.0716    2.8606 H   0  0  0  0  0  0  0  0  0  0  0  0
    2.3452   -0.4816    2.2526 H   0  0  0  0  0  0  0  0  0  0  0  0
    2.9579    1.1176    5.5752 H   0  0  0  0  0  0  0  0  0  0  0  0
    3.7713   -0.2289    6.3370 H   0  0  0  0  0  0  0  0  0  0  0  0
    2.0351   -0.2859    6.0894 H   0  0  0  0  0  0  0  0  0  0  0  0
    4.6715    0.8534    3.5673 H   0  0  0  0  0  0  0  0  0  0  0  0
    4.7549   -0.6809    2.7164 H   0  0  0  0  0  0  0  0  0  0  0  0
    5.3946   -0.5295    4.3421 H   0  0  0  0  0  0  0  0  0  0  0  0
    1.4449  -10.7628    5.1222 H   0  0  0  0  0  0  0  0  0  0  0  0
    2.5257   -9.9558    3.9913 H   0  0  0  0  0  0  0  0  0  0  0  0
  1  2  1  0
  1 32  1  0
  1 33  1  0
  1 34  1  0
  2 31  1  0
  2  3  1  0
  2 35  1  1
  3  4  1  0
  3 36  1  0
  3 37  1  0
  4  5  2  0
  6  4  1  1
  6 11  1  0
  6 21  1  0
  6  7  1  0
  7  8  1  0
  7 38  1  0
  7 39  1  0
  8  9  1  0
  8 31  1  0
  8 40  1  1
  9 10  1  0
  9 41  1  0
  9 42  1  0
 10 11  1  0
 10 43  1  0
 10 44  1  0
 11 12  1  0
 11 45  1  1
 12 21  1  0
 12 13  2  0
 13 14  1  0
 13 46  1  0
 14 21  1  0
 14 15  1  6
 14 16  1  0
 15 47  1  0
 15 48  1  0
 15 49  1  0
 16 17  2  0
 16 18  1  0
 18 28  1  0
 18 19  1  0
 18 50  1  6
 19 20  2  0
 19 22  1  0
 21 20  1  1
 20 51  1  0
 22 23  1  0
 23 24  2  3
 23 25  1  0
 24 52  1  0
 25 26  1  0
 25 28  1  0
 25 53  1  6
 26 27  3  0
 28 29  1  0
 28 30  1  0
 29 54  1  0
 29 55  1  0
 29 56  1  0
 30 57  1  0
 30 58  1  0
 30 59  1  0
 31 60  1  0
 31 61  1  0
M  END
>  <i_m_ct_stereo_status>  (104) 
1

>  <s_m_source_file>  (104) 
/var/tmp/pbs.5076255.sched01/tmpr7id634h/0ay6m0hv_.sdf

>  <i_m_source_file_index>  (104) 
46

>  <i_lp_mmshare_version>  (104) 
48012

>  <i_f3d_flags>  (104) 
0

>  <s_epik_input>  (104) 
Tz1DMVtDSDJdW0NAQEhdKFtDSDNdKVtDSDJdW0NASF0oW0NIMl0yKVtDSDJdW0NIMl1bQ0BIXTNDKEM0NVtDQEBdMTIzKT1bQ0hdW0NAXTQoW0NIM10pQyg9TylbQ0BIXTZDKD1bQ0hdNSlPL0MoPU5cW0hdKVtDQEBIXShDI04pQzYoW0NIM10pW0NIM10=

>  <s_epik_cmdline>  (104) 
J2VwaWtfcHl0aG9uJywgJy1waHQnLCAnMi4wJywgJy1waCcsICc3LjAnLCAnLXRuJywgJzgnLCAnLW1hJywgJzIwMCcsICctaW1hZScsICc8aW5maWxlLm1hZT4nLCAnLW9tYWUnLCAnPG91dGZpbGUubWFlPic=

>  <r_lp_tautomer_probability>  (104) 
0.99995

>  <r_epik_Ionization_Penalty>  (104) 
0.00763931

>  <r_epik_Ionization_Penalty_Charging>  (104) 
0

>  <r_epik_Ionization_Penalty_Neutral>  (104) 
0.00763931

>  <r_epik_State_Penalty>  (104) 
0.413483

>  <r_epik_Charging_Adjusted_Penalty>  (104) 
0.413483

>  <i_epik_Tot_Q>  (104) 
0

>  <i_epik_Tot_abs_Q>  (104) 
0

>  <s_epik_Chemistry_Notes>  (104) 
This compound has an imine and may undergo hydrolysis.

>  <s_lp_Force_Field>  (104) 
OPLS3e

>  <r_lp_Energy>  (104) 
112.303

>  <b_lp_Chiralities_Consistent>  (104) 
1

>  <s_lp_Variant>  (104) 
30:0-3

>  <s_i_glide_gridfile>  (104) 
pfpi4k_grid

>  <i_i_glide_lignum>  (104) 
46

>  <i_i_glide_rotatable_bonds>  (104) 
1

>  <r_i_docking_score>  (104) 
-1.85185

>  <r_i_glide_ligand_efficiency>  (104) 
-0.0597371

>  <r_i_glide_ligand_efficiency_sa>  (104) 
-0.187657

>  <r_i_glide_ligand_efficiency_ln>  (104) 
-0.417649

>  <r_i_glide_gscore>  (104) 
-1.85185

>  <r_i_glide_lipo>  (104) 
-0.186858

>  <r_i_glide_hbond>  (104) 
0

>  <r_i_glide_metal>  (104) 
-0

>  <r_i_glide_rewards>  (104) 
-0.555491

>  <r_i_glide_evdw>  (104) 
-19.6816

>  <r_i_glide_ecoul>  (104) 
-0.61589

>  <r_i_glide_erotb>  (104) 
0

>  <r_i_glide_esite>  (104) 
-0.0330338

>  <r_i_glide_emodel>  (104) 
-22.271

>  <r_i_glide_energy>  (104) 
-20.2975

>  <r_i_glide_einternal>  (104) 
1.03657

>  <r_i_glide_intrahb_reward>  (104) 
-0

>  <i_i_glide_confnum>  (104) 
2

>  <i_i_glide_posenum>  (104) 
22

>  <r_i_glide_eff_state_penalty>  (104) 
0

>  <ligand_id>  (104) 
30

>  <original_smiles>  (104) 
CC1CC(=O)C23CC(CCC2C2=CC4(C)C(=O)C5C(=CC243)OC(=N)C(C#N)C5(C)C)C1

>  <smiles>  (104) 
[H]N=C1OC2=C([H])C34C(=C([H])C3(C([H])([H])[H])C(=O)C2([H])C(C([H])([H])[H])(C([H])([H])[H])C1([H])C#N)C1([H])C([H])([H])C([H])([H])C2([H])C([H])([H])C([H])(C([H])([H])[H])C([H])([H])C(=O)C14C2([H])[H]

$$$$
30:3:0
     RDKit          3D

 61 66  0  0  1  0  0  0  0  0999 V2000
   -1.6459   -9.1599    2.3321 C   0  0  0  0  0  0  0  0  0  0  0  0
   -0.4829   -8.6384    3.1825 C   0  0  2  0  0  0  0  0  0  0  0  0
   -0.5036   -7.0537    3.2075 C   0  0  0  0  0  0  0  0  0  0  0  0
    0.5062   -6.3015    4.1338 C   0  0  0  0  0  0  0  0  0  0  0  0
    0.0604   -5.8542    5.1932 O   0  0  0  0  0  0  0  0  0  0  0  0
    1.9873   -6.1996    3.6620 C   0  0  2  0  0  0  0  0  0  0  0  0
    2.1547   -7.2666    2.6107 C   0  0  0  0  0  0  0  0  0  0  0  0
    1.9935   -8.5839    3.3714 C   0  0  2  0  0  0  0  0  0  0  0  0
    3.3709   -9.0223    3.8474 C   0  0  0  0  0  0  0  0  0  0  0  0
    3.9755   -7.8218    4.6805 C   0  0  0  0  0  0  0  0  0  0  0  0
    3.1131   -6.4769    4.7404 C   0  0  1  0  0  0  0  0  0  0  0  0
    3.7449   -5.2443    4.1077 C   0  0  0  0  0  0  0  0  0  0  0  0
    4.5819   -5.1837    3.0569 C   0  0  0  0  0  0  0  0  0  0  0  0
    3.5599   -4.3617    2.2426 C   0  0  2  0  0  0  0  0  0  0  0  0
    3.2563   -4.8637    0.8300 C   0  0  0  0  0  0  0  0  0  0  0  0
    4.0128   -2.9088    2.2135 C   0  0  0  0  0  0  0  0  0  0  0  0
    5.1824   -2.5391    2.1000 O   0  0  0  0  0  0  0  0  0  0  0  0
    2.8450   -1.8975    2.3136 C   0  0  1  0  0  0  0  0  0  0  0  0
    1.9502   -2.2940    3.5051 C   0  0  0  0  0  0  0  0  0  0  0  0
    1.8539   -3.5431    3.9901 C   0  0  0  0  0  0  0  0  0  0  0  0
    2.5423   -4.7482    3.3629 C   0  0  1  0  0  0  0  0  0  0  0  0
    1.2008   -1.3307    4.1403 O   0  0  0  0  0  0  0  0  0  0  0  0
    1.0570   -0.0449    3.6663 C   0  0  0  0  0  0  0  0  0  0  0  0
    0.2596    0.7305    4.2516 N   0  0  0  0  0  0  0  0  0  0  0  0
    1.8932    0.3799    2.4564 C   0  0  1  0  0  0  0  0  0  0  0  0
    2.0715    1.8440    2.4847 C   0  0  0  0  0  0  0  0  0  0  0  0
    2.2148    2.9962    2.5105 N   0  0  0  0  0  0  0  0  0  0  0  0
    3.2276   -0.3899    2.3284 C   0  0  0  0  0  0  0  0  0  0  0  0
    4.1763   -0.0082    3.5010 C   0  0  0  0  0  0  0  0  0  0  0  0
    3.8794    0.0137    0.9836 C   0  0  0  0  0  0  0  0  0  0  0  0
    0.8469   -9.3699    2.7676 C   0  0  0  0  0  0  0  0  0  0  0  0
   -1.5393   -8.8764    1.2849 H   0  0  0  0  0  0  0  0  0  0  0  0
   -2.5882   -8.7633    2.6976 H   0  0  0  0  0  0  0  0  0  0  0  0
   -1.7011  -10.2458    2.3771 H   0  0  0  0  0  0  0  0  0  0  0  0
   -0.6953   -8.9435    4.2119 H   0  0  0  0  0  0  0  0  0  0  0  0
   -0.4263   -6.6584    2.1937 H   0  0  0  0  0  0  0  0  0  0  0  0
   -1.4871   -6.7452    3.5572 H   0  0  0  0  0  0  0  0  0  0  0  0
    1.5100   -7.1377    1.7463 H   0  0  0  0  0  0  0  0  0  0  0  0
    3.1474   -7.2544    2.1764 H   0  0  0  0  0  0  0  0  0  0  0  0
    1.5881   -8.4983    4.3835 H   0  0  0  0  0  0  0  0  0  0  0  0
    3.2839   -9.9207    4.4616 H   0  0  0  0  0  0  0  0  0  0  0  0
    4.0136   -9.2738    3.0023 H   0  0  0  0  0  0  0  0  0  0  0  0
    4.1384   -8.1908    5.6938 H   0  0  0  0  0  0  0  0  0  0  0  0
    4.9889   -7.6279    4.3148 H   0  0  0  0  0  0  0  0  0  0  0  0
    2.7220   -6.2949    5.7423 H   0  0  0  0  0  0  0  0  0  0  0  0
    5.4774   -5.7376    2.7715 H   0  0  0  0  0  0  0  0  0  0  0  0
    3.5704   -4.1645    0.0541 H   0  0  0  0  0  0  0  0  0  0  0  0
    2.1793   -4.9884    0.7235 H   0  0  0  0  0  0  0  0  0  0  0  0
    3.7202   -5.8253    0.6269 H   0  0  0  0  0  0  0  0  0  0  0  0
    2.2575   -2.0662    1.4112 H   0  0  0  0  0  0  0  0  0  0  0  0
    1.2226   -3.7241    4.8448 H   0  0  0  0  0  0  0  0  0  0  0  0
   -0.1895    0.2922    5.0419 H   0  0  0  0  0  0  0  0  0  0  0  0
    1.2886    0.1911    1.5670 H   0  0  0  0  0  0  0  0  0  0  0  0
    4.3041    1.0733    3.5863 H   0  0  0  0  0  0  0  0  0  0  0  0
    5.1738   -0.4295    3.3852 H   0  0  0  0  0  0  0  0  0  0  0  0
    3.7878   -0.3551    4.4590 H   0  0  0  0  0  0  0  0  0  0  0  0
    4.0331    1.0874    0.9068 H   0  0  0  0  0  0  0  0  0  0  0  0
    3.2411   -0.2726    0.1497 H   0  0  0  0  0  0  0  0  0  0  0  0
    4.8531   -0.4421    0.8228 H   0  0  0  0  0  0  0  0  0  0  0  0
    0.8327  -10.3922    3.1490 H   0  0  0  0  0  0  0  0  0  0  0  0
    0.9540   -9.4273    1.6821 H   0  0  0  0  0  0  0  0  0  0  0  0
  1  2  1  0
  1 32  1  0
  1 33  1  0
  1 34  1  0
  2 31  1  0
  2  3  1  0
  2 35  1  1
  3  4  1  0
  3 36  1  0
  3 37  1  0
  4  5  2  0
  6  4  1  1
  6 11  1  0
  6 21  1  0
  6  7  1  0
  7  8  1  0
  7 38  1  0
  7 39  1  0
  8  9  1  0
  8 31  1  0
  8 40  1  1
  9 10  1  0
  9 41  1  0
  9 42  1  0
 10 11  1  0
 10 43  1  0
 10 44  1  0
 11 12  1  0
 11 45  1  1
 12 21  1  0
 12 13  2  0
 13 14  1  0
 13 46  1  0
 14 21  1  0
 14 15  1  6
 14 16  1  0
 15 47  1  0
 15 48  1  0
 15 49  1  0
 16 17  2  0
 16 18  1  0
 18 28  1  0
 18 19  1  0
 18 50  1  6
 19 20  2  0
 19 22  1  0
 21 20  1  1
 20 51  1  0
 22 23  1  0
 23 24  2  3
 23 25  1  0
 24 52  1  0
 25 26  1  0
 25 28  1  0
 25 53  1  6
 26 27  3  0
 28 29  1  0
 28 30  1  0
 29 54  1  0
 29 55  1  0
 29 56  1  0
 30 57  1  0
 30 58  1  0
 30 59  1  0
 31 60  1  0
 31 61  1  0
M  END
>  <i_m_ct_stereo_status>  (105) 
1

>  <s_m_source_file>  (105) 
/var/tmp/pbs.5076255.sched01/tmpr7id634h/0ay6m0hv_.sdf

>  <i_m_source_file_index>  (105) 
47

>  <i_lp_mmshare_version>  (105) 
48012

>  <i_f3d_flags>  (105) 
0

>  <s_epik_input>  (105) 
Tz1DMVtDSDJdW0NAQEhdKFtDSDNdKVtDSDJdW0NASF0oW0NIMl0yKVtDSDJdW0NIMl1bQ0BIXTNDKEM0NVtDQEBdMTIzKT1bQ0hdW0NAXTQoW0NIM10pQyg9TylbQ0BIXTZDKD1bQ0hdNSlPL0MoPU5cW0hdKVtDQEBIXShDI04pQzYoW0NIM10pW0NIM10=

>  <s_epik_cmdline>  (105) 
J2VwaWtfcHl0aG9uJywgJy1waHQnLCAnMi4wJywgJy1waCcsICc3LjAnLCAnLXRuJywgJzgnLCAnLW1hJywgJzIwMCcsICctaW1hZScsICc8aW5maWxlLm1hZT4nLCAnLW9tYWUnLCAnPG91dGZpbGUubWFlPic=

>  <r_lp_tautomer_probability>  (105) 
0.99995

>  <r_epik_Ionization_Penalty>  (105) 
0.00763931

>  <r_epik_Ionization_Penalty_Charging>  (105) 
0

>  <r_epik_Ionization_Penalty_Neutral>  (105) 
0.00763931

>  <r_epik_State_Penalty>  (105) 
0.413483

>  <r_epik_Charging_Adjusted_Penalty>  (105) 
0.413483

>  <i_epik_Tot_Q>  (105) 
0

>  <i_epik_Tot_abs_Q>  (105) 
0

>  <s_epik_Chemistry_Notes>  (105) 
This compound has an imine and may undergo hydrolysis.

>  <s_lp_Force_Field>  (105) 
OPLS3e

>  <r_lp_Energy>  (105) 
113.452

>  <b_lp_Chiralities_Consistent>  (105) 
1

>  <s_lp_Variant>  (105) 
30:0-4

>  <s_i_glide_gridfile>  (105) 
pfpi4k_grid

>  <i_i_glide_lignum>  (105) 
47

>  <i_i_glide_rotatable_bonds>  (105) 
1

>  <r_i_docking_score>  (105) 
-2.30034

>  <r_i_glide_ligand_efficiency>  (105) 
-0.0742044

>  <r_i_glide_ligand_efficiency_sa>  (105) 
-0.233104

>  <r_i_glide_ligand_efficiency_ln>  (105) 
-0.518797

>  <r_i_glide_gscore>  (105) 
-2.30034

>  <r_i_glide_lipo>  (105) 
-0.34915

>  <r_i_glide_hbond>  (105) 
0

>  <r_i_glide_metal>  (105) 
-0

>  <r_i_glide_rewards>  (105) 
-0.595107

>  <r_i_glide_evdw>  (105) 
-25.4817

>  <r_i_glide_ecoul>  (105) 
-0.307763

>  <r_i_glide_erotb>  (105) 
0

>  <r_i_glide_esite>  (105) 
-0.0358328

>  <r_i_glide_emodel>  (105) 
-28.2879

>  <r_i_glide_energy>  (105) 
-25.7894

>  <r_i_glide_einternal>  (105) 
1.01421

>  <r_i_glide_intrahb_reward>  (105) 
-0

>  <i_i_glide_confnum>  (105) 
2

>  <i_i_glide_posenum>  (105) 
25

>  <r_i_glide_eff_state_penalty>  (105) 
0

>  <ligand_id>  (105) 
30

>  <original_smiles>  (105) 
CC1CC(=O)C23CC(CCC2C2=CC4(C)C(=O)C5C(=CC243)OC(=N)C(C#N)C5(C)C)C1

>  <smiles>  (105) 
[H]N=C1OC2=C([H])C34C(=C([H])C3(C([H])([H])[H])C(=O)C2([H])C(C([H])([H])[H])(C([H])([H])[H])C1([H])C#N)C1([H])C([H])([H])C([H])([H])C2([H])C([H])([H])C([H])(C([H])([H])[H])C([H])([H])C(=O)C14C2([H])[H]

$$$$
30:3:1
     RDKit          3D

 61 66  0  0  1  0  0  0  0  0999 V2000
   -2.2534    3.9102    3.1549 C   0  0  0  0  0  0  0  0  0  0  0  0
   -1.1643    3.4413    4.1288 C   0  0  2  0  0  0  0  0  0  0  0  0
   -0.0907    2.5718    3.3480 C   0  0  0  0  0  0  0  0  0  0  0  0
    1.1908    2.1069    4.1090 C   0  0  0  0  0  0  0  0  0  0  0  0
    2.2253    2.7532    3.9247 O   0  0  0  0  0  0  0  0  0  0  0  0
    1.0537    0.9077    5.0925 C   0  0  2  0  0  0  0  0  0  0  0  0
   -0.4173    0.7935    5.3948 C   0  0  0  0  0  0  0  0  0  0  0  0
   -0.7506    2.0732    6.1660 C   0  0  2  0  0  0  0  0  0  0  0  0
   -0.5570    1.7918    7.6507 C   0  0  0  0  0  0  0  0  0  0  0  0
    0.9191    1.2536    7.8286 C   0  0  0  0  0  0  0  0  0  0  0  0
    1.7751    1.0395    6.4950 C   0  0  1  0  0  0  0  0  0  0  0  0
    2.1961   -0.3895    6.1886 C   0  0  0  0  0  0  0  0  0  0  0  0
    1.5457   -1.5310    6.4809 C   0  0  0  0  0  0  0  0  0  0  0  0
    1.3956   -1.8692    4.9825 C   0  0  2  0  0  0  0  0  0  0  0  0
   -0.0100   -2.2402    4.5131 C   0  0  0  0  0  0  0  0  0  0  0  0
    2.3903   -2.9627    4.6235 C   0  0  0  0  0  0  0  0  0  0  0  0
    2.6609   -3.9242    5.3423 O   0  0  0  0  0  0  0  0  0  0  0  0
    3.0254   -2.7846    3.2240 C   0  0  1  0  0  0  0  0  0  0  0  0
    3.5551   -1.3405    3.1003 C   0  0  0  0  0  0  0  0  0  0  0  0
    3.0633   -0.3003    3.7971 C   0  0  0  0  0  0  0  0  0  0  0  0
    1.8614   -0.4023    4.7274 C   0  0  1  0  0  0  0  0  0  0  0  0
    4.6002   -1.0686    2.2466 O   0  0  0  0  0  0  0  0  0  0  0  0
    5.0932   -1.9798    1.3374 C   0  0  0  0  0  0  0  0  0  0  0  0
    5.9633   -1.6047    0.5098 N   0  0  0  0  0  0  0  0  0  0  0  0
    4.5563   -3.4138    1.3958 C   0  0  1  0  0  0  0  0  0  0  0  0
    5.5582   -4.3398    0.8419 C   0  0  0  0  0  0  0  0  0  0  0  0
    6.3469   -5.0782    0.4160 N   0  0  0  0  0  0  0  0  0  0  0  0
    4.0791   -3.8469    2.7975 C   0  0  0  0  0  0  0  0  0  0  0  0
    5.2905   -3.9333    3.7688 C   0  0  0  0  0  0  0  0  0  0  0  0
    3.4377   -5.2527    2.6649 C   0  0  0  0  0  0  0  0  0  0  0  0
   -1.8289    2.8357    5.4227 C   0  0  0  0  0  0  0  0  0  0  0  0
   -2.8238    3.0740    2.7492 H   0  0  0  0  0  0  0  0  0  0  0  0
   -1.8210    4.4627    2.3198 H   0  0  0  0  0  0  0  0  0  0  0  0
   -2.9587    4.5635    3.6525 H   0  0  0  0  0  0  0  0  0  0  0  0
   -0.6260    4.3344    4.4524 H   0  0  0  0  0  0  0  0  0  0  0  0
   -0.5608    1.7122    2.8648 H   0  0  0  0  0  0  0  0  0  0  0  0
    0.2827    3.1718    2.5206 H   0  0  0  0  0  0  0  0  0  0  0  0
   -1.0298    0.5943    4.5202 H   0  0  0  0  0  0  0  0  0  0  0  0
   -0.6292   -0.0487    6.0408 H   0  0  0  0  0  0  0  0  0  0  0  0
    0.0157    2.8535    6.1380 H   0  0  0  0  0  0  0  0  0  0  0  0
   -0.7105    2.7052    8.2289 H   0  0  0  0  0  0  0  0  0  0  0  0
   -1.2818    1.0607    8.0104 H   0  0  0  0  0  0  0  0  0  0  0  0
    1.4372    1.9578    8.4805 H   0  0  0  0  0  0  0  0  0  0  0  0
    0.8825    0.3373    8.4275 H   0  0  0  0  0  0  0  0  0  0  0  0
    2.5972    1.7534    6.4249 H   0  0  0  0  0  0  0  0  0  0  0  0
    1.0593   -1.9169    7.3784 H   0  0  0  0  0  0  0  0  0  0  0  0
   -0.0801   -3.2684    4.1583 H   0  0  0  0  0  0  0  0  0  0  0  0
   -0.2731   -1.5937    3.6784 H   0  0  0  0  0  0  0  0  0  0  0  0
   -0.7558   -2.0938    5.2889 H   0  0  0  0  0  0  0  0  0  0  0  0
    2.1882   -2.8728    2.5328 H   0  0  0  0  0  0  0  0  0  0  0  0
    3.5070    0.6731    3.6638 H   0  0  0  0  0  0  0  0  0  0  0  0
    6.1955   -0.6306    0.6380 H   0  0  0  0  0  0  0  0  0  0  0  0
    3.7141   -3.4683    0.7028 H   0  0  0  0  0  0  0  0  0  0  0  0
    6.0792   -4.5784    3.3728 H   0  0  0  0  0  0  0  0  0  0  0  0
    5.0200   -4.3446    4.7399 H   0  0  0  0  0  0  0  0  0  0  0  0
    5.7305   -2.9513    3.9452 H   0  0  0  0  0  0  0  0  0  0  0  0
    4.1346   -5.9875    2.2560 H   0  0  0  0  0  0  0  0  0  0  0  0
    2.5770   -5.2239    1.9995 H   0  0  0  0  0  0  0  0  0  0  0  0
    3.0988   -5.6557    3.6155 H   0  0  0  0  0  0  0  0  0  0  0  0
   -2.2401    3.6332    6.0439 H   0  0  0  0  0  0  0  0  0  0  0  0
   -2.6438    2.1663    5.1557 H   0  0  0  0  0  0  0  0  0  0  0  0
  1  2  1  0
  1 32  1  0
  1 33  1  0
  1 34  1  0
  2 31  1  0
  2  3  1  0
  2 35  1  1
  3  4  1  0
  3 36  1  0
  3 37  1  0
  4  5  2  0
  6  4  1  6
  6 11  1  0
  6 21  1  0
  6  7  1  0
  7  8  1  0
  7 38  1  0
  7 39  1  0
  8  9  1  0
  8 31  1  0
  8 40  1  6
  9 10  1  0
  9 41  1  0
  9 42  1  0
 10 11  1  0
 10 43  1  0
 10 44  1  0
 11 12  1  0
 11 45  1  6
 12 21  1  0
 12 13  2  0
 13 14  1  0
 13 46  1  0
 14 21  1  0
 14 15  1  1
 14 16  1  0
 15 47  1  0
 15 48  1  0
 15 49  1  0
 16 17  2  0
 16 18  1  0
 18 28  1  0
 18 19  1  0
 18 50  1  6
 19 20  2  0
 19 22  1  0
 21 20  1  6
 20 51  1  0
 22 23  1  0
 23 24  2  3
 23 25  1  0
 24 52  1  0
 25 26  1  0
 25 28  1  0
 25 53  1  6
 26 27  3  0
 28 29  1  0
 28 30  1  0
 29 54  1  0
 29 55  1  0
 29 56  1  0
 30 57  1  0
 30 58  1  0
 30 59  1  0
 31 60  1  0
 31 61  1  0
M  END
>  <i_m_ct_stereo_status>  (106) 
1

>  <s_m_source_file>  (106) 
/var/tmp/pbs.5076255.sched01/tmpr7id634h/0ay6m0hv_.sdf

>  <i_m_source_file_index>  (106) 
47

>  <i_lp_mmshare_version>  (106) 
48012

>  <i_f3d_flags>  (106) 
0

>  <s_epik_input>  (106) 
Tz1DMVtDSDJdW0NAQEhdKFtDSDNdKVtDSDJdW0NASF0oW0NIMl0yKVtDSDJdW0NIMl1bQ0BIXTNDKEM0NVtDQEBdMTIzKT1bQ0hdW0NAXTQoW0NIM10pQyg9TylbQ0BIXTZDKD1bQ0hdNSlPL0MoPU5cW0hdKVtDQEBIXShDI04pQzYoW0NIM10pW0NIM10=

>  <s_epik_cmdline>  (106) 
J2VwaWtfcHl0aG9uJywgJy1waHQnLCAnMi4wJywgJy1waCcsICc3LjAnLCAnLXRuJywgJzgnLCAnLW1hJywgJzIwMCcsICctaW1hZScsICc8aW5maWxlLm1hZT4nLCAnLW9tYWUnLCAnPG91dGZpbGUubWFlPic=

>  <r_lp_tautomer_probability>  (106) 
0.99995

>  <r_epik_Ionization_Penalty>  (106) 
0.00763931

>  <r_epik_Ionization_Penalty_Charging>  (106) 
0

>  <r_epik_Ionization_Penalty_Neutral>  (106) 
0.00763931

>  <r_epik_State_Penalty>  (106) 
0.413483

>  <r_epik_Charging_Adjusted_Penalty>  (106) 
0.413483

>  <i_epik_Tot_Q>  (106) 
0

>  <i_epik_Tot_abs_Q>  (106) 
0

>  <s_epik_Chemistry_Notes>  (106) 
This compound has an imine and may undergo hydrolysis.

>  <s_lp_Force_Field>  (106) 
OPLS3e

>  <r_lp_Energy>  (106) 
113.452

>  <b_lp_Chiralities_Consistent>  (106) 
1

>  <s_lp_Variant>  (106) 
30:0-4

>  <s_i_glide_gridfile>  (106) 
pfpi4k_grid

>  <i_i_glide_lignum>  (106) 
47

>  <i_i_glide_rotatable_bonds>  (106) 
1

>  <r_i_docking_score>  (106) 
-2.106

>  <r_i_glide_ligand_efficiency>  (106) 
-0.0679355

>  <r_i_glide_ligand_efficiency_sa>  (106) 
-0.213411

>  <r_i_glide_ligand_efficiency_ln>  (106) 
-0.474968

>  <r_i_glide_gscore>  (106) 
-2.106

>  <r_i_glide_lipo>  (106) 
-0.117767

>  <r_i_glide_hbond>  (106) 
0

>  <r_i_glide_metal>  (106) 
-0

>  <r_i_glide_rewards>  (106) 
-0.719657

>  <r_i_glide_evdw>  (106) 
-19.4503

>  <r_i_glide_ecoul>  (106) 
-1.86131

>  <r_i_glide_erotb>  (106) 
0

>  <r_i_glide_esite>  (106) 
-0.0168646

>  <r_i_glide_emodel>  (106) 
-23.4916

>  <r_i_glide_energy>  (106) 
-21.3116

>  <r_i_glide_einternal>  (106) 
1.01373

>  <r_i_glide_intrahb_reward>  (106) 
-0

>  <i_i_glide_confnum>  (106) 
2

>  <i_i_glide_posenum>  (106) 
28

>  <r_i_glide_eff_state_penalty>  (106) 
0

>  <ligand_id>  (106) 
30

>  <original_smiles>  (106) 
CC1CC(=O)C23CC(CCC2C2=CC4(C)C(=O)C5C(=CC243)OC(=N)C(C#N)C5(C)C)C1

>  <smiles>  (106) 
[H]N=C1OC2=C([H])C34C(=C([H])C3(C([H])([H])[H])C(=O)C2([H])C(C([H])([H])[H])(C([H])([H])[H])C1([H])C#N)C1([H])C([H])([H])C([H])([H])C2([H])C([H])([H])C([H])(C([H])([H])[H])C([H])([H])C(=O)C14C2([H])[H]

$$$$
30:3:2
     RDKit          3D

 61 66  0  0  1  0  0  0  0  0999 V2000
   -2.5421    3.1780    3.1694 C   0  0  0  0  0  0  0  0  0  0  0  0
   -1.0485    3.0522    3.5068 C   0  0  2  0  0  0  0  0  0  0  0  0
   -0.4152    1.8134    2.7405 C   0  0  0  0  0  0  0  0  0  0  0  0
    1.1305    1.5811    2.8283 C   0  0  0  0  0  0  0  0  0  0  0  0
    1.8140    1.9288    1.8679 O   0  0  0  0  0  0  0  0  0  0  0  0
    1.7035    0.9745    4.1369 C   0  0  2  0  0  0  0  0  0  0  0  0
    0.6413    1.1766    5.1820 C   0  0  0  0  0  0  0  0  0  0  0  0
    0.5663    2.6929    5.3654 C   0  0  2  0  0  0  0  0  0  0  0  0
    1.5449    3.0819    6.4661 C   0  0  0  0  0  0  0  0  0  0  0  0
    2.9611    2.5128    6.0498 C   0  0  0  0  0  0  0  0  0  0  0  0
    3.0212    1.6306    4.7188 C   0  0  1  0  0  0  0  0  0  0  0  0
    3.4321    0.1762    4.8922 C   0  0  0  0  0  0  0  0  0  0  0  0
    3.2081   -0.6324    5.9433 C   0  0  0  0  0  0  0  0  0  0  0  0
    2.3536   -1.5829    5.0744 C   0  0  2  0  0  0  0  0  0  0  0  0
    0.9789   -1.9593    5.6332 C   0  0  0  0  0  0  0  0  0  0  0  0
    3.1712   -2.8268    4.7643 C   0  0  0  0  0  0  0  0  0  0  0  0
    3.9204   -3.3902    5.5592 O   0  0  0  0  0  0  0  0  0  0  0  0
    2.9487   -3.3672    3.3289 C   0  0  1  0  0  0  0  0  0  0  0  0
    3.1064   -2.2001    2.3362 C   0  0  0  0  0  0  0  0  0  0  0  0
    2.8998   -0.9073    2.6510 C   0  0  0  0  0  0  0  0  0  0  0  0
    2.3919   -0.4441    4.0088 C   0  0  1  0  0  0  0  0  0  0  0  0
    3.4949   -2.4569    1.0436 O   0  0  0  0  0  0  0  0  0  0  0  0
    3.5946   -3.7253    0.5180 C   0  0  0  0  0  0  0  0  0  0  0  0
    3.8523   -3.8561   -0.7041 N   0  0  0  0  0  0  0  0  0  0  0  0
    3.3913   -4.9182    1.4581 C   0  0  1  0  0  0  0  0  0  0  0  0
    4.0667   -6.1133    0.9125 C   0  0  0  0  0  0  0  0  0  0  0  0
    4.5979   -7.0581    0.4928 N   0  0  0  0  0  0  0  0  0  0  0  0
    3.7758   -4.6226    2.9216 C   0  0  0  0  0  0  0  0  0  0  0  0
    5.3122   -4.4027    3.0252 C   0  0  0  0  0  0  0  0  0  0  0  0
    3.3756   -5.8530    3.7741 C   0  0  0  0  0  0  0  0  0  0  0  0
   -0.8461    3.1627    5.0658 C   0  0  0  0  0  0  0  0  0  0  0  0
   -3.1063    2.3255    3.5472 H   0  0  0  0  0  0  0  0  0  0  0  0
   -2.7025    3.2338    2.0923 H   0  0  0  0  0  0  0  0  0  0  0  0
   -2.9666    4.0777    3.6094 H   0  0  0  0  0  0  0  0  0  0  0  0
   -0.5618    3.9273    3.0721 H   0  0  0  0  0  0  0  0  0  0  0  0
   -0.9309    0.8901    3.0089 H   0  0  0  0  0  0  0  0  0  0  0  0
   -0.6208    1.9466    1.6793 H   0  0  0  0  0  0  0  0  0  0  0  0
   -0.2969    0.6828    4.9523 H   0  0  0  0  0  0  0  0  0  0  0  0
    0.9252    0.7411    6.1347 H   0  0  0  0  0  0  0  0  0  0  0  0
    1.0774    3.2859    4.6005 H   0  0  0  0  0  0  0  0  0  0  0  0
    1.5775    4.1676    6.5737 H   0  0  0  0  0  0  0  0  0  0  0  0
    1.2330    2.6731    7.4284 H   0  0  0  0  0  0  0  0  0  0  0  0
    3.6299    3.3691    5.9435 H   0  0  0  0  0  0  0  0  0  0  0  0
    3.3765    1.9694    6.9024 H   0  0  0  0  0  0  0  0  0  0  0  0
    3.5681    2.1409    3.9216 H   0  0  0  0  0  0  0  0  0  0  0  0
    3.3169   -0.5195    7.0233 H   0  0  0  0  0  0  0  0  0  0  0  0
    0.8948   -3.0213    5.8606 H   0  0  0  0  0  0  0  0  0  0  0  0
    0.2206   -1.7353    4.8811 H   0  0  0  0  0  0  0  0  0  0  0  0
    0.7349   -1.3972    6.5291 H   0  0  0  0  0  0  0  0  0  0  0  0
    1.8990   -3.6526    3.3074 H   0  0  0  0  0  0  0  0  0  0  0  0
    3.0591   -0.1558    1.8936 H   0  0  0  0  0  0  0  0  0  0  0  0
    3.9354   -2.9667   -1.1786 H   0  0  0  0  0  0  0  0  0  0  0  0
    2.3290   -5.1735    1.4227 H   0  0  0  0  0  0  0  0  0  0  0  0
    5.8696   -5.2387    2.5949 H   0  0  0  0  0  0  0  0  0  0  0  0
    5.6514   -4.3067    4.0545 H   0  0  0  0  0  0  0  0  0  0  0  0
    5.6254   -3.5023    2.4959 H   0  0  0  0  0  0  0  0  0  0  0  0
    3.8572   -6.7690    3.4262 H   0  0  0  0  0  0  0  0  0  0  0  0
    2.3002   -6.0219    3.7323 H   0  0  0  0  0  0  0  0  0  0  0  0
    3.6459   -5.7497    4.8214 H   0  0  0  0  0  0  0  0  0  0  0  0
   -0.9786    4.1986    5.3829 H   0  0  0  0  0  0  0  0  0  0  0  0
   -1.5778    2.5579    5.6058 H   0  0  0  0  0  0  0  0  0  0  0  0
  1  2  1  0
  1 32  1  0
  1 33  1  0
  1 34  1  0
  2 31  1  0
  2  3  1  0
  2 35  1  6
  3  4  1  0
  3 36  1  0
  3 37  1  0
  4  5  2  0
  6  4  1  6
  6 11  1  0
  6 21  1  0
  6  7  1  0
  7  8  1  0
  7 38  1  0
  7 39  1  0
  8  9  1  0
  8 31  1  0
  8 40  1  6
  9 10  1  0
  9 41  1  0
  9 42  1  0
 10 11  1  0
 10 43  1  0
 10 44  1  0
 11 12  1  0
 11 45  1  6
 12 21  1  0
 12 13  2  0
 13 14  1  0
 13 46  1  0
 14 21  1  0
 14 15  1  1
 14 16  1  0
 15 47  1  0
 15 48  1  0
 15 49  1  0
 16 17  2  0
 16 18  1  0
 18 28  1  0
 18 19  1  0
 18 50  1  1
 19 20  2  0
 19 22  1  0
 21 20  1  6
 20 51  1  0
 22 23  1  0
 23 24  2  3
 23 25  1  0
 24 52  1  0
 25 26  1  0
 25 28  1  0
 25 53  1  1
 26 27  3  0
 28 29  1  0
 28 30  1  0
 29 54  1  0
 29 55  1  0
 29 56  1  0
 30 57  1  0
 30 58  1  0
 30 59  1  0
 31 60  1  0
 31 61  1  0
M  END
>  <i_m_ct_stereo_status>  (107) 
1

>  <s_m_source_file>  (107) 
/var/tmp/pbs.5076255.sched01/tmpr7id634h/0ay6m0hv_.sdf

>  <i_m_source_file_index>  (107) 
47

>  <i_lp_mmshare_version>  (107) 
48012

>  <i_f3d_flags>  (107) 
0

>  <s_epik_input>  (107) 
Tz1DMVtDSDJdW0NAQEhdKFtDSDNdKVtDSDJdW0NASF0oW0NIMl0yKVtDSDJdW0NIMl1bQ0BIXTNDKEM0NVtDQEBdMTIzKT1bQ0hdW0NAXTQoW0NIM10pQyg9TylbQ0BIXTZDKD1bQ0hdNSlPL0MoPU5cW0hdKVtDQEBIXShDI04pQzYoW0NIM10pW0NIM10=

>  <s_epik_cmdline>  (107) 
J2VwaWtfcHl0aG9uJywgJy1waHQnLCAnMi4wJywgJy1waCcsICc3LjAnLCAnLXRuJywgJzgnLCAnLW1hJywgJzIwMCcsICctaW1hZScsICc8aW5maWxlLm1hZT4nLCAnLW9tYWUnLCAnPG91dGZpbGUubWFlPic=

>  <r_lp_tautomer_probability>  (107) 
0.99995

>  <r_epik_Ionization_Penalty>  (107) 
0.00763931

>  <r_epik_Ionization_Penalty_Charging>  (107) 
0

>  <r_epik_Ionization_Penalty_Neutral>  (107) 
0.00763931

>  <r_epik_State_Penalty>  (107) 
0.413483

>  <r_epik_Charging_Adjusted_Penalty>  (107) 
0.413483

>  <i_epik_Tot_Q>  (107) 
0

>  <i_epik_Tot_abs_Q>  (107) 
0

>  <s_epik_Chemistry_Notes>  (107) 
This compound has an imine and may undergo hydrolysis.

>  <s_lp_Force_Field>  (107) 
OPLS3e

>  <r_lp_Energy>  (107) 
113.452

>  <b_lp_Chiralities_Consistent>  (107) 
1

>  <s_lp_Variant>  (107) 
30:0-4

>  <s_i_glide_gridfile>  (107) 
pfpi4k_grid

>  <i_i_glide_lignum>  (107) 
47

>  <i_i_glide_rotatable_bonds>  (107) 
1

>  <r_i_docking_score>  (107) 
-1.81098

>  <r_i_glide_ligand_efficiency>  (107) 
-0.0584186

>  <r_i_glide_ligand_efficiency_sa>  (107) 
-0.183515

>  <r_i_glide_ligand_efficiency_ln>  (107) 
-0.40843

>  <r_i_glide_gscore>  (107) 
-1.81098

>  <r_i_glide_lipo>  (107) 
-0.0231373

>  <r_i_glide_hbond>  (107) 
0

>  <r_i_glide_metal>  (107) 
-0

>  <r_i_glide_rewards>  (107) 
-0.668509

>  <r_i_glide_evdw>  (107) 
-21.6517

>  <r_i_glide_ecoul>  (107) 
0.00296848

>  <r_i_glide_erotb>  (107) 
0

>  <r_i_glide_esite>  (107) 
-0.037188

>  <r_i_glide_emodel>  (107) 
-23.4029

>  <r_i_glide_energy>  (107) 
-21.6487

>  <r_i_glide_einternal>  (107) 
0.991495

>  <r_i_glide_intrahb_reward>  (107) 
-0

>  <i_i_glide_confnum>  (107) 
1

>  <i_i_glide_posenum>  (107) 
2

>  <r_i_glide_eff_state_penalty>  (107) 
0

>  <ligand_id>  (107) 
30

>  <original_smiles>  (107) 
CC1CC(=O)C23CC(CCC2C2=CC4(C)C(=O)C5C(=CC243)OC(=N)C(C#N)C5(C)C)C1

>  <smiles>  (107) 
[H]N=C1OC2=C([H])C34C(=C([H])C3(C([H])([H])[H])C(=O)C2([H])C(C([H])([H])[H])(C([H])([H])[H])C1([H])C#N)C1([H])C([H])([H])C([H])([H])C2([H])C([H])([H])C([H])(C([H])([H])[H])C([H])([H])C(=O)C14C2([H])[H]

$$$$
32:0:0
     RDKit          3D

 39 42  0  0  1  0  0  0  0  0999 V2000
    5.9321   -0.8011    0.4150 C   0  0  0  0  0  0  0  0  0  0  0  0
    5.0247   -2.0036    0.2347 C   0  0  0  0  0  0  0  0  0  0  0  0
    4.7243   -2.5623   -0.9662 C   0  0  0  0  0  0  0  0  0  0  0  0
    5.2289   -2.0533   -2.3123 C   0  0  0  0  0  0  0  0  0  0  0  0
    4.0561   -1.4150   -3.0507 C   0  0  0  0  0  0  0  0  0  0  0  0
    4.2170   -0.5004   -3.8561 O   0  0  0  0  0  0  0  0  0  0  0  0
    2.6738   -1.9807   -2.7671 C   0  0  0  0  0  0  0  0  0  0  0  0
    2.7451   -3.4360   -2.2932 C   0  0  0  0  0  0  0  0  0  0  0  0
    3.7301   -3.7120   -1.1129 C   0  0  2  0  0  0  0  0  0  0  0  0
    3.0064   -4.0700    0.2107 C   0  0  1  0  0  0  0  0  0  0  0  0
    2.3321   -5.4534    0.1911 C   0  0  0  0  0  0  0  0  0  0  0  0
    1.5488   -5.6839    1.3541 O   0  0  0  0  0  0  0  0  0  0  0  0
    2.1517   -5.3961    2.5547 C   0  0  0  0  0  0  0  0  0  0  0  0
    1.6182   -5.9547    3.7343 C   0  0  0  0  0  0  0  0  0  0  0  0
    2.2421   -5.6839    4.9654 C   0  0  0  0  0  0  0  0  0  0  0  0
    3.3907   -4.8700    4.9644 C   0  0  0  0  0  0  0  0  0  0  0  0
    3.9257   -4.3362    3.8448 N   0  0  0  0  0  0  0  0  0  0  0  0
    3.3051   -4.5731    2.6674 C   0  0  0  0  0  0  0  0  0  0  0  0
    3.9641   -4.0009    1.4124 C   0  0  2  0  0  0  0  0  0  0  0  0
    4.4564   -2.5465    1.5403 C   0  0  0  0  0  0  0  0  0  0  0  0
    5.4883   -0.1060    1.1281 H   0  0  0  0  0  0  0  0  0  0  0  0
    6.0692   -0.2520   -0.5088 H   0  0  0  0  0  0  0  0  0  0  0  0
    6.9121   -1.1024    0.7910 H   0  0  0  0  0  0  0  0  0  0  0  0
    6.0386   -1.3407   -2.2229 H   0  0  0  0  0  0  0  0  0  0  0  0
    5.6050   -2.8843   -2.9069 H   0  0  0  0  0  0  0  0  0  0  0  0
    2.2168   -1.3690   -1.9965 H   0  0  0  0  0  0  0  0  0  0  0  0
    2.0530   -1.9064   -3.6596 H   0  0  0  0  0  0  0  0  0  0  0  0
    1.7434   -3.8050   -2.0714 H   0  0  0  0  0  0  0  0  0  0  0  0
    3.0867   -3.9780   -3.1737 H   0  0  0  0  0  0  0  0  0  0  0  0
    4.3377   -4.5773   -1.3890 H   0  0  0  0  0  0  0  0  0  0  0  0
    2.2285   -3.3203    0.3692 H   0  0  0  0  0  0  0  0  0  0  0  0
    1.6597   -5.5364   -0.6611 H   0  0  0  0  0  0  0  0  0  0  0  0
    3.0746   -6.2496    0.0878 H   0  0  0  0  0  0  0  0  0  0  0  0
    0.7566   -6.6035    3.6909 H   0  0  0  0  0  0  0  0  0  0  0  0
    1.8615   -6.1038    5.8838 H   0  0  0  0  0  0  0  0  0  0  0  0
    3.8886   -4.6386    5.8938 H   0  0  0  0  0  0  0  0  0  0  0  0
    4.8244   -4.6410    1.2115 H   0  0  0  0  0  0  0  0  0  0  0  0
    5.2317   -2.4830    2.3065 H   0  0  0  0  0  0  0  0  0  0  0  0
    3.6384   -1.8898    1.8463 H   0  0  0  0  0  0  0  0  0  0  0  0
  1  2  1  0
  1 21  1  0
  1 22  1  0
  1 23  1  0
  2 20  1  0
  2  3  2  0
  3  9  1  0
  3  4  1  0
  4  5  1  0
  4 24  1  0
  4 25  1  0
  5  6  2  0
  5  7  1  0
  7  8  1  0
  7 26  1  0
  7 27  1  0
  8  9  1  0
  8 28  1  0
  8 29  1  0
  9 10  1  0
  9 30  1  6
 10 19  1  0
 10 11  1  0
 10 31  1  1
 11 12  1  0
 11 32  1  0
 11 33  1  0
 12 13  1  0
 13 18  2  0
 13 14  1  0
 14 15  2  0
 14 34  1  0
 15 16  1  0
 15 35  1  0
 16 17  2  0
 16 36  1  0
 17 18  1  0
 18 19  1  0
 19 20  1  0
 19 37  1  6
 20 38  1  0
 20 39  1  0
M  END
>  <i_m_ct_stereo_status>  (108) 
1

>  <s_m_source_file>  (108) 
/var/tmp/pbs.5076255.sched01/tmpr7id634h/0ay6m0hv_.sdf

>  <i_m_source_file_index>  (108) 
49

>  <i_lp_mmshare_version>  (108) 
48012

>  <i_f3d_flags>  (108) 
0

>  <s_epik_input>  (108) 
bjFbY0hdW2NIXVtjSF1jKE9bQ0gyXTIpYzFbQ0BIXShbQ0gyXUM9M1tDSDNdKVtDQEhdMltDQEhdKEMzNClbQ0gyXVtDSDJdQyg9TylbQ0gyXTQ=

>  <s_epik_cmdline>  (108) 
J2VwaWtfcHl0aG9uJywgJy1waHQnLCAnMi4wJywgJy1waCcsICc3LjAnLCAnLXRuJywgJzgnLCAnLW1hJywgJzIwMCcsICctaW1hZScsICc8aW5maWxlLm1hZT4nLCAnLW9tYWUnLCAnPG91dGZpbGUubWFlPic=

>  <r_lp_tautomer_probability>  (108) 
0.99995

>  <r_epik_Ionization_Penalty>  (108) 
0.0109865

>  <r_epik_Ionization_Penalty_Charging>  (108) 
0

>  <r_epik_Ionization_Penalty_Neutral>  (108) 
0.0109865

>  <r_epik_State_Penalty>  (108) 
0.00843138

>  <r_epik_Charging_Adjusted_Penalty>  (108) 
0.00843138

>  <i_epik_Tot_Q>  (108) 
0

>  <i_epik_Tot_abs_Q>  (108) 
0

>  <s_lp_Force_Field>  (108) 
OPLS3e

>  <r_lp_Energy>  (108) 
36.1969

>  <b_lp_Chiralities_Consistent>  (108) 
1

>  <s_lp_Variant>  (108) 
32:0-1

>  <s_i_glide_gridfile>  (108) 
pfpi4k_grid

>  <i_i_glide_lignum>  (108) 
49

>  <i_i_glide_rotatable_bonds>  (108) 
0

>  <r_i_docking_score>  (108) 
-3.29917

>  <r_i_glide_ligand_efficiency>  (108) 
-0.164958

>  <r_i_glide_ligand_efficiency_sa>  (108) 
-0.447766

>  <r_i_glide_ligand_efficiency_ln>  (108) 
-0.825673

>  <r_i_glide_gscore>  (108) 
-3.29917

>  <r_i_glide_lipo>  (108) 
-0.23994

>  <r_i_glide_hbond>  (108) 
-0.122452

>  <r_i_glide_metal>  (108) 
-0

>  <r_i_glide_rewards>  (108) 
-1.60931

>  <r_i_glide_evdw>  (108) 
-18.2111

>  <r_i_glide_ecoul>  (108) 
-2.77941

>  <r_i_glide_erotb>  (108) 
0

>  <r_i_glide_esite>  (108) 
0

>  <r_i_glide_emodel>  (108) 
-25.1605

>  <r_i_glide_energy>  (108) 
-20.9905

>  <r_i_glide_einternal>  (108) 
0

>  <r_i_glide_intrahb_reward>  (108) 
-0

>  <i_i_glide_confnum>  (108) 
1

>  <i_i_glide_posenum>  (108) 
2

>  <r_i_glide_eff_state_penalty>  (108) 
0

>  <ligand_id>  (108) 
32

>  <original_smiles>  (108) 
CC1=C2CC(=O)CCC2C2COc3cccnc3C2C1

>  <smiles>  (108) 
[H]c1nc2c(c([H])c1[H])OC([H])([H])C1([H])C3([H])C(=C(C([H])([H])[H])C([H])([H])C21[H])C([H])([H])C(=O)C([H])([H])C3([H])[H]

$$$$
32:0:1
     RDKit          3D

 39 42  0  0  1  0  0  0  0  0999 V2000
    1.4213   -6.5382    1.2885 C   0  0  0  0  0  0  0  0  0  0  0  0
    2.6193   -5.6160    1.0900 C   0  0  0  0  0  0  0  0  0  0  0  0
    3.7629   -5.6852    1.8071 C   0  0  0  0  0  0  0  0  0  0  0  0
    4.0101   -6.6716    2.9430 C   0  0  0  0  0  0  0  0  0  0  0  0
    3.9695   -5.8901    4.2575 C   0  0  0  0  0  0  0  0  0  0  0  0
    3.5925   -6.4005    5.3073 O   0  0  0  0  0  0  0  0  0  0  0  0
    4.4233   -4.4283    4.2028 C   0  0  0  0  0  0  0  0  0  0  0  0
    5.4073   -4.1841    3.0364 C   0  0  0  0  0  0  0  0  0  0  0  0
    4.9051   -4.6706    1.6448 C   0  0  2  0  0  0  0  0  0  0  0  0
    4.5627   -3.4925    0.6909 C   0  0  1  0  0  0  0  0  0  0  0  0
    5.8013   -2.7193    0.1990 C   0  0  0  0  0  0  0  0  0  0  0  0
    5.4414   -1.5637   -0.5545 O   0  0  0  0  0  0  0  0  0  0  0  0
    4.4902   -1.7451   -1.5283 C   0  0  0  0  0  0  0  0  0  0  0  0
    4.3599   -0.7790   -2.5441 C   0  0  0  0  0  0  0  0  0  0  0  0
    3.4224   -0.9797   -3.5735 C   0  0  0  0  0  0  0  0  0  0  0  0
    2.6273   -2.1398   -3.5281 C   0  0  0  0  0  0  0  0  0  0  0  0
    2.7299   -3.0687   -2.5581 N   0  0  0  0  0  0  0  0  0  0  0  0
    3.6243   -2.8691   -1.5674 C   0  0  0  0  0  0  0  0  0  0  0  0
    3.7622   -3.9811   -0.5240 C   0  0  2  0  0  0  0  0  0  0  0  0
    2.4324   -4.5721   -0.0086 C   0  0  0  0  0  0  0  0  0  0  0  0
    0.4966   -5.9643    1.2585 H   0  0  0  0  0  0  0  0  0  0  0  0
    1.4329   -7.0629    2.2419 H   0  0  0  0  0  0  0  0  0  0  0  0
    1.3775   -7.2833    0.4922 H   0  0  0  0  0  0  0  0  0  0  0  0
    3.2937   -7.4872    2.9706 H   0  0  0  0  0  0  0  0  0  0  0  0
    4.9872   -7.1353    2.8256 H   0  0  0  0  0  0  0  0  0  0  0  0
    3.5444   -3.7902    4.0949 H   0  0  0  0  0  0  0  0  0  0  0  0
    4.8928   -4.1644    5.1516 H   0  0  0  0  0  0  0  0  0  0  0  0
    5.6824   -3.1267    3.0140 H   0  0  0  0  0  0  0  0  0  0  0  0
    6.3256   -4.7257    3.2665 H   0  0  0  0  0  0  0  0  0  0  0  0
    5.7158   -5.2337    1.1846 H   0  0  0  0  0  0  0  0  0  0  0  0
    3.9218   -2.7970    1.2394 H   0  0  0  0  0  0  0  0  0  0  0  0
    6.3906   -2.3797    1.0459 H   0  0  0  0  0  0  0  0  0  0  0  0
    6.4413   -3.3647   -0.4031 H   0  0  0  0  0  0  0  0  0  0  0  0
    4.9916    0.0937   -2.5510 H   0  0  0  0  0  0  0  0  0  0  0  0
    3.3036   -0.2576   -4.3724 H   0  0  0  0  0  0  0  0  0  0  0  0
    1.8844   -2.3243   -4.2918 H   0  0  0  0  0  0  0  0  0  0  0  0
    4.3206   -4.7804   -1.0193 H   0  0  0  0  0  0  0  0  0  0  0  0
    1.8831   -5.0342   -0.8264 H   0  0  0  0  0  0  0  0  0  0  0  0
    1.8255   -3.7533    0.3810 H   0  0  0  0  0  0  0  0  0  0  0  0
  1  2  1  0
  1 21  1  0
  1 22  1  0
  1 23  1  0
  2 20  1  0
  2  3  2  0
  3  9  1  0
  3  4  1  0
  4  5  1  0
  4 24  1  0
  4 25  1  0
  5  6  2  0
  5  7  1  0
  7  8  1  0
  7 26  1  0
  7 27  1  0
  8  9  1  0
  8 28  1  0
  8 29  1  0
  9 10  1  0
  9 30  1  6
 10 19  1  0
 10 11  1  0
 10 31  1  1
 11 12  1  0
 11 32  1  0
 11 33  1  0
 12 13  1  0
 13 18  2  0
 13 14  1  0
 14 15  2  0
 14 34  1  0
 15 16  1  0
 15 35  1  0
 16 17  2  0
 16 36  1  0
 17 18  1  0
 18 19  1  0
 19 20  1  0
 19 37  1  6
 20 38  1  0
 20 39  1  0
M  END
>  <i_m_ct_stereo_status>  (109) 
1

>  <s_m_source_file>  (109) 
/var/tmp/pbs.5076255.sched01/tmpr7id634h/0ay6m0hv_.sdf

>  <i_m_source_file_index>  (109) 
49

>  <i_lp_mmshare_version>  (109) 
48012

>  <i_f3d_flags>  (109) 
0

>  <s_epik_input>  (109) 
bjFbY0hdW2NIXVtjSF1jKE9bQ0gyXTIpYzFbQ0BIXShbQ0gyXUM9M1tDSDNdKVtDQEhdMltDQEhdKEMzNClbQ0gyXVtDSDJdQyg9TylbQ0gyXTQ=

>  <s_epik_cmdline>  (109) 
J2VwaWtfcHl0aG9uJywgJy1waHQnLCAnMi4wJywgJy1waCcsICc3LjAnLCAnLXRuJywgJzgnLCAnLW1hJywgJzIwMCcsICctaW1hZScsICc8aW5maWxlLm1hZT4nLCAnLW9tYWUnLCAnPG91dGZpbGUubWFlPic=

>  <r_lp_tautomer_probability>  (109) 
0.99995

>  <r_epik_Ionization_Penalty>  (109) 
0.0109865

>  <r_epik_Ionization_Penalty_Charging>  (109) 
0

>  <r_epik_Ionization_Penalty_Neutral>  (109) 
0.0109865

>  <r_epik_State_Penalty>  (109) 
0.00843138

>  <r_epik_Charging_Adjusted_Penalty>  (109) 
0.00843138

>  <i_epik_Tot_Q>  (109) 
0

>  <i_epik_Tot_abs_Q>  (109) 
0

>  <s_lp_Force_Field>  (109) 
OPLS3e

>  <r_lp_Energy>  (109) 
36.1969

>  <b_lp_Chiralities_Consistent>  (109) 
1

>  <s_lp_Variant>  (109) 
32:0-1

>  <s_i_glide_gridfile>  (109) 
pfpi4k_grid

>  <i_i_glide_lignum>  (109) 
49

>  <i_i_glide_rotatable_bonds>  (109) 
0

>  <r_i_docking_score>  (109) 
-3.10293

>  <r_i_glide_ligand_efficiency>  (109) 
-0.155146

>  <r_i_glide_ligand_efficiency_sa>  (109) 
-0.421132

>  <r_i_glide_ligand_efficiency_ln>  (109) 
-0.77656

>  <r_i_glide_gscore>  (109) 
-3.10293

>  <r_i_glide_lipo>  (109) 
-0.574584

>  <r_i_glide_hbond>  (109) 
0

>  <r_i_glide_metal>  (109) 
-0

>  <r_i_glide_rewards>  (109) 
-1.57269

>  <r_i_glide_evdw>  (109) 
-22.6592

>  <r_i_glide_ecoul>  (109) 
1.18206

>  <r_i_glide_erotb>  (109) 
0

>  <r_i_glide_esite>  (109) 
0

>  <r_i_glide_emodel>  (109) 
-25.4021

>  <r_i_glide_energy>  (109) 
-21.4771

>  <r_i_glide_einternal>  (109) 
0

>  <r_i_glide_intrahb_reward>  (109) 
-0

>  <i_i_glide_confnum>  (109) 
1

>  <i_i_glide_posenum>  (109) 
13

>  <r_i_glide_eff_state_penalty>  (109) 
0

>  <ligand_id>  (109) 
32

>  <original_smiles>  (109) 
CC1=C2CC(=O)CCC2C2COc3cccnc3C2C1

>  <smiles>  (109) 
[H]c1nc2c(c([H])c1[H])OC([H])([H])C1([H])C3([H])C(=C(C([H])([H])[H])C([H])([H])C21[H])C([H])([H])C(=O)C([H])([H])C3([H])[H]

$$$$
32:0:2
     RDKit          3D

 39 42  0  0  1  0  0  0  0  0999 V2000
    1.9119   -6.2836    1.5907 C   0  0  0  0  0  0  0  0  0  0  0  0
    2.8176   -5.0655    1.4658 C   0  0  0  0  0  0  0  0  0  0  0  0
    3.6567   -4.6377    2.4367 C   0  0  0  0  0  0  0  0  0  0  0  0
    3.7938   -5.2872    3.8101 C   0  0  0  0  0  0  0  0  0  0  0  0
    3.1461   -4.3544    4.8329 C   0  0  0  0  0  0  0  0  0  0  0  0
    2.6106   -4.7786    5.8554 O   0  0  0  0  0  0  0  0  0  0  0  0
    3.1909   -2.8541    4.5256 C   0  0  0  0  0  0  0  0  0  0  0  0
    4.3871   -2.4975    3.6133 C   0  0  0  0  0  0  0  0  0  0  0  0
    4.4853   -3.3487    2.3099 C   0  0  2  0  0  0  0  0  0  0  0  0
    4.1551   -2.5321    1.0304 C   0  0  1  0  0  0  0  0  0  0  0  0
    5.2307   -1.4872    0.6790 C   0  0  0  0  0  0  0  0  0  0  0  0
    4.8243   -0.6596   -0.4056 O   0  0  0  0  0  0  0  0  0  0  0  0
    4.3024   -1.3033   -1.5039 C   0  0  0  0  0  0  0  0  0  0  0  0
    4.2260   -0.6072   -2.7258 C   0  0  0  0  0  0  0  0  0  0  0  0
    3.7485   -1.2670   -3.8703 C   0  0  0  0  0  0  0  0  0  0  0  0
    3.3225   -2.5972   -3.7327 C   0  0  0  0  0  0  0  0  0  0  0  0
    3.3798   -3.2739   -2.5666 N   0  0  0  0  0  0  0  0  0  0  0  0
    3.8327   -2.6355   -1.4664 C   0  0  0  0  0  0  0  0  0  0  0  0
    3.9348   -3.4535   -0.1787 C   0  0  2  0  0  0  0  0  0  0  0  0
    2.7142   -4.3435    0.1221 C   0  0  0  0  0  0  0  0  0  0  0  0
    0.9283   -6.0626    1.1786 H   0  0  0  0  0  0  0  0  0  0  0  0
    1.7603   -6.6078    2.6191 H   0  0  0  0  0  0  0  0  0  0  0  0
    2.3308   -7.1215    1.0299 H   0  0  0  0  0  0  0  0  0  0  0  0
    3.3471   -6.2775    3.8680 H   0  0  0  0  0  0  0  0  0  0  0  0
    4.8467   -5.4191    4.0576 H   0  0  0  0  0  0  0  0  0  0  0  0
    2.2535   -2.5683    4.0453 H   0  0  0  0  0  0  0  0  0  0  0  0
    3.2503   -2.2990    5.4612 H   0  0  0  0  0  0  0  0  0  0  0  0
    4.3576   -1.4291    3.3883 H   0  0  0  0  0  0  0  0  0  0  0  0
    5.3022   -2.6475    4.1902 H   0  0  0  0  0  0  0  0  0  0  0  0
    5.5177   -3.6856    2.2201 H   0  0  0  0  0  0  0  0  0  0  0  0
    3.2168   -2.0011    1.2090 H   0  0  0  0  0  0  0  0  0  0  0  0
    5.4164   -0.8336    1.5281 H   0  0  0  0  0  0  0  0  0  0  0  0
    6.1756   -1.9759    0.4369 H   0  0  0  0  0  0  0  0  0  0  0  0
    4.5826    0.4088   -2.7943 H   0  0  0  0  0  0  0  0  0  0  0  0
    3.7011   -0.7606   -4.8267 H   0  0  0  0  0  0  0  0  0  0  0  0
    2.9305   -3.1371   -4.5827 H   0  0  0  0  0  0  0  0  0  0  0  0
    4.8072   -4.0972   -0.3025 H   0  0  0  0  0  0  0  0  0  0  0  0
    2.5956   -5.0785   -0.6700 H   0  0  0  0  0  0  0  0  0  0  0  0
    1.8175   -3.7230    0.1255 H   0  0  0  0  0  0  0  0  0  0  0  0
  1  2  1  0
  1 21  1  0
  1 22  1  0
  1 23  1  0
  2 20  1  0
  2  3  2  0
  3  9  1  0
  3  4  1  0
  4  5  1  0
  4 24  1  0
  4 25  1  0
  5  6  2  0
  5  7  1  0
  7  8  1  0
  7 26  1  0
  7 27  1  0
  8  9  1  0
  8 28  1  0
  8 29  1  0
  9 10  1  0
  9 30  1  6
 10 19  1  0
 10 11  1  0
 10 31  1  1
 11 12  1  0
 11 32  1  0
 11 33  1  0
 12 13  1  0
 13 18  2  0
 13 14  1  0
 14 15  2  0
 14 34  1  0
 15 16  1  0
 15 35  1  0
 16 17  2  0
 16 36  1  0
 17 18  1  0
 18 19  1  0
 19 20  1  0
 19 37  1  6
 20 38  1  0
 20 39  1  0
M  END
>  <i_m_ct_stereo_status>  (110) 
1

>  <s_m_source_file>  (110) 
/var/tmp/pbs.5076255.sched01/tmpr7id634h/0ay6m0hv_.sdf

>  <i_m_source_file_index>  (110) 
49

>  <i_lp_mmshare_version>  (110) 
48012

>  <i_f3d_flags>  (110) 
0

>  <s_epik_input>  (110) 
bjFbY0hdW2NIXVtjSF1jKE9bQ0gyXTIpYzFbQ0BIXShbQ0gyXUM9M1tDSDNdKVtDQEhdMltDQEhdKEMzNClbQ0gyXVtDSDJdQyg9TylbQ0gyXTQ=

>  <s_epik_cmdline>  (110) 
J2VwaWtfcHl0aG9uJywgJy1waHQnLCAnMi4wJywgJy1waCcsICc3LjAnLCAnLXRuJywgJzgnLCAnLW1hJywgJzIwMCcsICctaW1hZScsICc8aW5maWxlLm1hZT4nLCAnLW9tYWUnLCAnPG91dGZpbGUubWFlPic=

>  <r_lp_tautomer_probability>  (110) 
0.99995

>  <r_epik_Ionization_Penalty>  (110) 
0.0109865

>  <r_epik_Ionization_Penalty_Charging>  (110) 
0

>  <r_epik_Ionization_Penalty_Neutral>  (110) 
0.0109865

>  <r_epik_State_Penalty>  (110) 
0.00843138

>  <r_epik_Charging_Adjusted_Penalty>  (110) 
0.00843138

>  <i_epik_Tot_Q>  (110) 
0

>  <i_epik_Tot_abs_Q>  (110) 
0

>  <s_lp_Force_Field>  (110) 
OPLS3e

>  <r_lp_Energy>  (110) 
36.1969

>  <b_lp_Chiralities_Consistent>  (110) 
1

>  <s_lp_Variant>  (110) 
32:0-1

>  <s_i_glide_gridfile>  (110) 
pfpi4k_grid

>  <i_i_glide_lignum>  (110) 
49

>  <i_i_glide_rotatable_bonds>  (110) 
0

>  <r_i_docking_score>  (110) 
-2.95696

>  <r_i_glide_ligand_efficiency>  (110) 
-0.147848

>  <r_i_glide_ligand_efficiency_sa>  (110) 
-0.401322

>  <r_i_glide_ligand_efficiency_ln>  (110) 
-0.740031

>  <r_i_glide_gscore>  (110) 
-2.95696

>  <r_i_glide_lipo>  (110) 
-0.568084

>  <r_i_glide_hbond>  (110) 
0

>  <r_i_glide_metal>  (110) 
-0

>  <r_i_glide_rewards>  (110) 
-1.57269

>  <r_i_glide_evdw>  (110) 
-23.2644

>  <r_i_glide_ecoul>  (110) 
2.31357

>  <r_i_glide_erotb>  (110) 
0

>  <r_i_glide_esite>  (110) 
0

>  <r_i_glide_emodel>  (110) 
-24.702

>  <r_i_glide_energy>  (110) 
-20.9509

>  <r_i_glide_einternal>  (110) 
0

>  <r_i_glide_intrahb_reward>  (110) 
-0

>  <i_i_glide_confnum>  (110) 
1

>  <i_i_glide_posenum>  (110) 
6

>  <r_i_glide_eff_state_penalty>  (110) 
0

>  <ligand_id>  (110) 
32

>  <original_smiles>  (110) 
CC1=C2CC(=O)CCC2C2COc3cccnc3C2C1

>  <smiles>  (110) 
[H]c1nc2c(c([H])c1[H])OC([H])([H])C1([H])C3([H])C(=C(C([H])([H])[H])C([H])([H])C21[H])C([H])([H])C(=O)C([H])([H])C3([H])[H]

$$$$
32:1:0
     RDKit          3D

 40 43  0  0  1  0  0  0  0  0999 V2000
    2.2904   -6.4437    1.9873 C   0  0  0  0  0  0  0  0  0  0  0  0
    3.1353   -5.2003    1.7439 C   0  0  0  0  0  0  0  0  0  0  0  0
    4.0577   -4.7179    2.6082 C   0  0  0  0  0  0  0  0  0  0  0  0
    4.3657   -5.3351    3.9674 C   0  0  0  0  0  0  0  0  0  0  0  0
    3.8016   -4.3983    5.0364 C   0  0  0  0  0  0  0  0  0  0  0  0
    3.4012   -4.8167    6.1135 O   0  0  0  0  0  0  0  0  0  0  0  0
    3.7563   -2.9050    4.6986 C   0  0  0  0  0  0  0  0  0  0  0  0
    4.8312   -2.5316    3.6549 C   0  0  0  0  0  0  0  0  0  0  0  0
    4.8153   -3.4065    2.3650 C   0  0  2  0  0  0  0  0  0  0  0  0
    4.3063   -2.6282    1.1236 C   0  0  1  0  0  0  0  0  0  0  0  0
    5.2685   -1.5247    0.6345 C   0  0  0  0  0  0  0  0  0  0  0  0
    4.7036   -0.7554   -0.4242 O   0  0  0  0  0  0  0  0  0  0  0  0
    4.1283   -1.4546   -1.4541 C   0  0  0  0  0  0  0  0  0  0  0  0
    3.9312   -0.7931   -2.6923 C   0  0  0  0  0  0  0  0  0  0  0  0
    3.3726   -1.5006   -3.7791 C   0  0  0  0  0  0  0  0  0  0  0  0
    3.0195   -2.8522   -3.5924 C   0  0  0  0  0  0  0  0  0  0  0  0
    3.2388   -3.4540   -2.4045 N   0  0  0  0  0  0  0  0  0  0  0  0
    3.7432   -2.8072   -1.3230 C   0  0  0  0  0  0  0  0  0  0  0  0
    4.0032   -3.5906   -0.0364 C   0  0  2  0  0  0  0  0  0  0  0  0
    2.8580   -4.5212    0.4091 C   0  0  0  0  0  0  0  0  0  0  0  0
    1.2626   -6.2564    1.6829 H   0  0  0  0  0  0  0  0  0  0  0  0
    2.2569   -6.7377    3.0336 H   0  0  0  0  0  0  0  0  0  0  0  0
    2.6647   -7.2939    1.4142 H   0  0  0  0  0  0  0  0  0  0  0  0
    3.9597   -6.3390    4.0924 H   0  0  0  0  0  0  0  0  0  0  0  0
    5.4455   -5.4167    4.1039 H   0  0  0  0  0  0  0  0  0  0  0  0
    2.7620   -2.6666    4.3254 H   0  0  0  0  0  0  0  0  0  0  0  0
    3.8970   -2.3310    5.6129 H   0  0  0  0  0  0  0  0  0  0  0  0
    4.7401   -1.4691    3.4229 H   0  0  0  0  0  0  0  0  0  0  0  0
    5.8062   -2.6439    4.1335 H   0  0  0  0  0  0  0  0  0  0  0  0
    5.8464   -3.6975    2.1579 H   0  0  0  0  0  0  0  0  0  0  0  0
    3.3651   -2.1427    1.3972 H   0  0  0  0  0  0  0  0  0  0  0  0
    5.5061   -0.8335    1.4424 H   0  0  0  0  0  0  0  0  0  0  0  0
    6.2127   -1.9543    0.2913 H   0  0  0  0  0  0  0  0  0  0  0  0
    4.2127    0.2407   -2.8111 H   0  0  0  0  0  0  0  0  0  0  0  0
    3.2095   -1.0102   -4.7253 H   0  0  0  0  0  0  0  0  0  0  0  0
    2.5712   -3.4765   -4.3479 H   0  0  0  0  0  0  0  0  0  0  0  0
    4.8917   -4.1959   -0.2326 H   0  0  0  0  0  0  0  0  0  0  0  0
    2.6862   -5.2908   -0.3370 H   0  0  0  0  0  0  0  0  0  0  0  0
    1.9359   -3.9506    0.5086 H   0  0  0  0  0  0  0  0  0  0  0  0
    3.0184   -4.4609   -2.3245 H   0  0  0  0  0  0  0  0  0  0  0  0
  1  2  1  0
  1 21  1  0
  1 22  1  0
  1 23  1  0
  2 20  1  0
  2  3  2  0
  3  9  1  0
  3  4  1  0
  4  5  1  0
  4 24  1  0
  4 25  1  0
  5  6  2  0
  5  7  1  0
  7  8  1  0
  7 26  1  0
  7 27  1  0
  8  9  1  0
  8 28  1  0
  8 29  1  0
  9 10  1  0
  9 30  1  6
 10 19  1  0
 10 11  1  0
 10 31  1  1
 11 12  1  0
 11 32  1  0
 11 33  1  0
 12 13  1  0
 13 18  2  0
 13 14  1  0
 14 15  2  0
 14 34  1  0
 15 16  1  0
 15 35  1  0
 16 17  2  0
 16 36  1  0
 17 18  1  0
 17 40  1  0
 18 19  1  0
 19 20  1  0
 19 37  1  6
 20 38  1  0
 20 39  1  0
M  CHG  1  17   1
M  END
>  <i_m_ct_stereo_status>  (111) 
1

>  <s_m_source_file>  (111) 
/var/tmp/pbs.5076255.sched01/tmpr7id634h/0ay6m0hv_.sdf

>  <i_m_source_file_index>  (111) 
50

>  <i_lp_mmshare_version>  (111) 
48012

>  <i_f3d_flags>  (111) 
0

>  <s_epik_input>  (111) 
bjFbY0hdW2NIXVtjSF1jKE9bQ0gyXTIpYzFbQ0BIXShbQ0gyXUM9M1tDSDNdKVtDQEhdMltDQEhdKEMzNClbQ0gyXVtDSDJdQyg9TylbQ0gyXTQ=

>  <s_epik_cmdline>  (111) 
J2VwaWtfcHl0aG9uJywgJy1waHQnLCAnMi4wJywgJy1waCcsICc3LjAnLCAnLXRuJywgJzgnLCAnLW1hJywgJzIwMCcsICctaW1hZScsICc8aW5maWxlLm1hZT4nLCAnLW9tYWUnLCAnPG91dGZpbGUubWFlPic=

>  <r_lp_tautomer_probability>  (111) 
0.99995

>  <r_epik_Ionization_Penalty>  (111) 
2.36812

>  <r_epik_Ionization_Penalty_Charging>  (111) 
2.36812

>  <r_epik_Ionization_Penalty_Neutral>  (111) 
3.84545e-13

>  <r_epik_State_Penalty>  (111) 
2.52368

>  <r_epik_Charging_Adjusted_Penalty>  (111) 
4.89179

>  <i_epik_Tot_Q>  (111) 
1

>  <i_epik_Tot_abs_Q>  (111) 
1

>  <s_lp_Force_Field>  (111) 
OPLS3e

>  <r_lp_Energy>  (111) 
41.7638

>  <b_lp_Chiralities_Consistent>  (111) 
1

>  <s_lp_Variant>  (111) 
32:0-2

>  <s_i_glide_gridfile>  (111) 
pfpi4k_grid

>  <i_i_glide_lignum>  (111) 
50

>  <i_i_glide_rotatable_bonds>  (111) 
0

>  <r_i_docking_score>  (111) 
-4.19009

>  <r_i_glide_ligand_efficiency>  (111) 
-0.209504

>  <r_i_glide_ligand_efficiency_sa>  (111) 
-0.568683

>  <r_i_glide_ligand_efficiency_ln>  (111) 
-1.04864

>  <r_i_glide_gscore>  (111) 
-4.19009

>  <r_i_glide_lipo>  (111) 
-0.606809

>  <r_i_glide_hbond>  (111) 
0

>  <r_i_glide_metal>  (111) 
-0

>  <r_i_glide_rewards>  (111) 
-1.56582

>  <r_i_glide_evdw>  (111) 
-22.2492

>  <r_i_glide_ecoul>  (111) 
-5.86488

>  <r_i_glide_erotb>  (111) 
0

>  <r_i_glide_esite>  (111) 
-0.0252685

>  <r_i_glide_emodel>  (111) 
-35.7619

>  <r_i_glide_energy>  (111) 
-28.114

>  <r_i_glide_einternal>  (111) 
0

>  <r_i_glide_intrahb_reward>  (111) 
-0

>  <i_i_glide_confnum>  (111) 
2

>  <i_i_glide_posenum>  (111) 
29

>  <r_i_glide_eff_state_penalty>  (111) 
0

>  <ligand_id>  (111) 
32

>  <original_smiles>  (111) 
CC1=C2CC(=O)CCC2C2COc3cccnc3C2C1

>  <smiles>  (111) 
[H]c1c([H])c([H])[n+]([H])c2c1OC([H])([H])C1([H])C3([H])C(=C(C([H])([H])[H])C([H])([H])C21[H])C([H])([H])C(=O)C([H])([H])C3([H])[H]

$$$$
32:1:1
     RDKit          3D

 40 43  0  0  1  0  0  0  0  0999 V2000
    1.7364   -6.8494    1.5977 C   0  0  0  0  0  0  0  0  0  0  0  0
    2.8096   -5.7855    1.4095 C   0  0  0  0  0  0  0  0  0  0  0  0
    3.8963   -5.6514    2.2062 C   0  0  0  0  0  0  0  0  0  0  0  0
    4.1901   -6.5278    3.4170 C   0  0  0  0  0  0  0  0  0  0  0  0
    3.9509   -5.6779    4.6658 C   0  0  0  0  0  0  0  0  0  0  0  0
    3.5787   -6.1756    5.7203 O   0  0  0  0  0  0  0  0  0  0  0  0
    4.2042   -4.1732    4.5437 C   0  0  0  0  0  0  0  0  0  0  0  0
    5.2291   -3.8712    3.4319 C   0  0  0  0  0  0  0  0  0  0  0  0
    4.8975   -4.4985    2.0461 C   0  0  2  0  0  0  0  0  0  0  0  0
    4.4574   -3.4443    0.9981 C   0  0  1  0  0  0  0  0  0  0  0  0
    5.5897   -2.4998    0.5452 C   0  0  0  0  0  0  0  0  0  0  0  0
    5.1130   -1.4668   -0.3189 O   0  0  0  0  0  0  0  0  0  0  0  0
    4.2871   -1.8571   -1.3517 C   0  0  0  0  0  0  0  0  0  0  0  0
    4.1168   -0.9862   -2.4533 C   0  0  0  0  0  0  0  0  0  0  0  0
    3.3215   -1.3888   -3.5486 C   0  0  0  0  0  0  0  0  0  0  0  0
    2.6977   -2.6537   -3.5113 C   0  0  0  0  0  0  0  0  0  0  0  0
    2.8837   -3.4557   -2.4380 N   0  0  0  0  0  0  0  0  0  0  0  0
    3.6251   -3.1075   -1.3586 C   0  0  0  0  0  0  0  0  0  0  0  0
    3.8412   -4.1233   -0.2347 C   0  0  2  0  0  0  0  0  0  0  0  0
    2.5669   -4.8557    0.2265 C   0  0  0  0  0  0  0  0  0  0  0  0
    0.7505   -6.4094    1.4541 H   0  0  0  0  0  0  0  0  0  0  0  0
    1.7409   -7.2894    2.5916 H   0  0  0  0  0  0  0  0  0  0  0  0
    1.8487   -7.6634    0.8786 H   0  0  0  0  0  0  0  0  0  0  0  0
    3.5852   -7.4336    3.4563 H   0  0  0  0  0  0  0  0  0  0  0  0
    5.2322   -6.8479    3.4016 H   0  0  0  0  0  0  0  0  0  0  0  0
    3.2556   -3.6755    4.3432 H   0  0  0  0  0  0  0  0  0  0  0  0
    4.5635   -3.7957    5.5021 H   0  0  0  0  0  0  0  0  0  0  0  0
    5.3678   -2.7923    3.3613 H   0  0  0  0  0  0  0  0  0  0  0  0
    6.1854   -4.2774    3.7621 H   0  0  0  0  0  0  0  0  0  0  0  0
    5.8134   -4.9547    1.6709 H   0  0  0  0  0  0  0  0  0  0  0  0
    3.6833   -2.8253    1.4551 H   0  0  0  0  0  0  0  0  0  0  0  0
    6.0534   -2.0084    1.3992 H   0  0  0  0  0  0  0  0  0  0  0  0
    6.3762   -3.0485    0.0269 H   0  0  0  0  0  0  0  0  0  0  0  0
    4.6029   -0.0228   -2.4626 H   0  0  0  0  0  0  0  0  0  0  0  0
    3.1841   -0.7281   -4.3954 H   0  0  0  0  0  0  0  0  0  0  0  0
    2.0693   -3.0488   -4.2983 H   0  0  0  0  0  0  0  0  0  0  0  0
    4.5494   -4.8591   -0.6257 H   0  0  0  0  0  0  0  0  0  0  0  0
    2.1461   -5.4318   -0.5944 H   0  0  0  0  0  0  0  0  0  0  0  0
    1.8124   -4.1305    0.5311 H   0  0  0  0  0  0  0  0  0  0  0  0
    2.4846   -4.4056   -2.4600 H   0  0  0  0  0  0  0  0  0  0  0  0
  1  2  1  0
  1 21  1  0
  1 22  1  0
  1 23  1  0
  2 20  1  0
  2  3  2  0
  3  9  1  0
  3  4  1  0
  4  5  1  0
  4 24  1  0
  4 25  1  0
  5  6  2  0
  5  7  1  0
  7  8  1  0
  7 26  1  0
  7 27  1  0
  8  9  1  0
  8 28  1  0
  8 29  1  0
  9 10  1  0
  9 30  1  6
 10 19  1  0
 10 11  1  0
 10 31  1  1
 11 12  1  0
 11 32  1  0
 11 33  1  0
 12 13  1  0
 13 18  2  0
 13 14  1  0
 14 15  2  0
 14 34  1  0
 15 16  1  0
 15 35  1  0
 16 17  2  0
 16 36  1  0
 17 18  1  0
 17 40  1  0
 18 19  1  0
 19 20  1  0
 19 37  1  6
 20 38  1  0
 20 39  1  0
M  CHG  1  17   1
M  END
>  <i_m_ct_stereo_status>  (112) 
1

>  <s_m_source_file>  (112) 
/var/tmp/pbs.5076255.sched01/tmpr7id634h/0ay6m0hv_.sdf

>  <i_m_source_file_index>  (112) 
50

>  <i_lp_mmshare_version>  (112) 
48012

>  <i_f3d_flags>  (112) 
0

>  <s_epik_input>  (112) 
bjFbY0hdW2NIXVtjSF1jKE9bQ0gyXTIpYzFbQ0BIXShbQ0gyXUM9M1tDSDNdKVtDQEhdMltDQEhdKEMzNClbQ0gyXVtDSDJdQyg9TylbQ0gyXTQ=

>  <s_epik_cmdline>  (112) 
J2VwaWtfcHl0aG9uJywgJy1waHQnLCAnMi4wJywgJy1waCcsICc3LjAnLCAnLXRuJywgJzgnLCAnLW1hJywgJzIwMCcsICctaW1hZScsICc8aW5maWxlLm1hZT4nLCAnLW9tYWUnLCAnPG91dGZpbGUubWFlPic=

>  <r_lp_tautomer_probability>  (112) 
0.99995

>  <r_epik_Ionization_Penalty>  (112) 
2.36812

>  <r_epik_Ionization_Penalty_Charging>  (112) 
2.36812

>  <r_epik_Ionization_Penalty_Neutral>  (112) 
3.84545e-13

>  <r_epik_State_Penalty>  (112) 
2.52368

>  <r_epik_Charging_Adjusted_Penalty>  (112) 
4.89179

>  <i_epik_Tot_Q>  (112) 
1

>  <i_epik_Tot_abs_Q>  (112) 
1

>  <s_lp_Force_Field>  (112) 
OPLS3e

>  <r_lp_Energy>  (112) 
41.7638

>  <b_lp_Chiralities_Consistent>  (112) 
1

>  <s_lp_Variant>  (112) 
32:0-2

>  <s_i_glide_gridfile>  (112) 
pfpi4k_grid

>  <i_i_glide_lignum>  (112) 
50

>  <i_i_glide_rotatable_bonds>  (112) 
0

>  <r_i_docking_score>  (112) 
-4.01321

>  <r_i_glide_ligand_efficiency>  (112) 
-0.200661

>  <r_i_glide_ligand_efficiency_sa>  (112) 
-0.544677

>  <r_i_glide_ligand_efficiency_ln>  (112) 
-1.00437

>  <r_i_glide_gscore>  (112) 
-4.01321

>  <r_i_glide_lipo>  (112) 
-0.558343

>  <r_i_glide_hbond>  (112) 
0

>  <r_i_glide_metal>  (112) 
-0

>  <r_i_glide_rewards>  (112) 
-1.56582

>  <r_i_glide_evdw>  (112) 
-21.1532

>  <r_i_glide_ecoul>  (112) 
-5.53021

>  <r_i_glide_erotb>  (112) 
0

>  <r_i_glide_esite>  (112) 
-0.00185679

>  <r_i_glide_emodel>  (112) 
-34.0115

>  <r_i_glide_energy>  (112) 
-26.6834

>  <r_i_glide_einternal>  (112) 
0

>  <r_i_glide_intrahb_reward>  (112) 
-0

>  <i_i_glide_confnum>  (112) 
1

>  <i_i_glide_posenum>  (112) 
14

>  <r_i_glide_eff_state_penalty>  (112) 
0

>  <ligand_id>  (112) 
32

>  <original_smiles>  (112) 
CC1=C2CC(=O)CCC2C2COc3cccnc3C2C1

>  <smiles>  (112) 
[H]c1c([H])c([H])[n+]([H])c2c1OC([H])([H])C1([H])C3([H])C(=C(C([H])([H])[H])C([H])([H])C21[H])C([H])([H])C(=O)C([H])([H])C3([H])[H]

$$$$
32:1:2
     RDKit          3D

 40 43  0  0  1  0  0  0  0  0999 V2000
    4.8851   -1.0200    3.2428 C   0  0  0  0  0  0  0  0  0  0  0  0
    4.2402    0.1140    4.0244 C   0  0  0  0  0  0  0  0  0  0  0  0
    4.8946    0.9051    4.9111 C   0  0  0  0  0  0  0  0  0  0  0  0
    6.3682    0.7596    5.2800 C   0  0  0  0  0  0  0  0  0  0  0  0
    6.4413    0.1926    6.6938 C   0  0  0  0  0  0  0  0  0  0  0  0
    7.3790   -0.5152    7.0534 O   0  0  0  0  0  0  0  0  0  0  0  0
    5.2995    0.5644    7.6438 C   0  0  0  0  0  0  0  0  0  0  0  0
    4.6338    1.9009    7.2375 C   0  0  0  0  0  0  0  0  0  0  0  0
    4.1782    1.9727    5.7479 C   0  0  2  0  0  0  0  0  0  0  0  0
    2.6378    1.9378    5.5860 C   0  0  1  0  0  0  0  0  0  0  0  0
    1.9242    3.2035    6.0984 C   0  0  0  0  0  0  0  0  0  0  0  0
    0.5094    3.0565    6.0574 O   0  0  0  0  0  0  0  0  0  0  0  0
   -0.0245    2.5993    4.8756 C   0  0  0  0  0  0  0  0  0  0  0  0
   -1.3906    2.8308    4.6227 C   0  0  0  0  0  0  0  0  0  0  0  0
   -1.9513    2.3914    3.4095 C   0  0  0  0  0  0  0  0  0  0  0  0
   -1.1297    1.7229    2.4805 C   0  0  0  0  0  0  0  0  0  0  0  0
    0.1763    1.5186    2.7508 N   0  0  0  0  0  0  0  0  0  0  0  0
    0.7569    1.9130    3.9112 C   0  0  0  0  0  0  0  0  0  0  0  0
    2.2491    1.6949    4.1188 C   0  0  2  0  0  0  0  0  0  0  0  0
    2.7585    0.2961    3.7187 C   0  0  0  0  0  0  0  0  0  0  0  0
    4.2234   -1.8872    3.2310 H   0  0  0  0  0  0  0  0  0  0  0  0
    5.8144   -1.3557    3.6880 H   0  0  0  0  0  0  0  0  0  0  0  0
    5.0832   -0.7230    2.2103 H   0  0  0  0  0  0  0  0  0  0  0  0
    6.9265    0.1508    4.5758 H   0  0  0  0  0  0  0  0  0  0  0  0
    6.8511    1.7362    5.2806 H   0  0  0  0  0  0  0  0  0  0  0  0
    4.5641   -0.2413    7.6311 H   0  0  0  0  0  0  0  0  0  0  0  0
    5.6827    0.6266    8.6618 H   0  0  0  0  0  0  0  0  0  0  0  0
    3.8065    2.1024    7.9182 H   0  0  0  0  0  0  0  0  0  0  0  0
    5.3558    2.6991    7.4161 H   0  0  0  0  0  0  0  0  0  0  0  0
    4.5222    2.9286    5.3480 H   0  0  0  0  0  0  0  0  0  0  0  0
    2.2640    1.0962    6.1716 H   0  0  0  0  0  0  0  0  0  0  0  0
    2.1950    3.4107    7.1324 H   0  0  0  0  0  0  0  0  0  0  0  0
    2.2129    4.0818    5.5155 H   0  0  0  0  0  0  0  0  0  0  0  0
   -2.0004    3.3516    5.3458 H   0  0  0  0  0  0  0  0  0  0  0  0
   -2.9937    2.5576    3.1839 H   0  0  0  0  0  0  0  0  0  0  0  0
   -1.4865    1.3411    1.5356 H   0  0  0  0  0  0  0  0  0  0  0  0
    2.7462    2.4413    3.4949 H   0  0  0  0  0  0  0  0  0  0  0  0
    2.6027    0.1338    2.6521 H   0  0  0  0  0  0  0  0  0  0  0  0
    2.2074   -0.4830    4.2533 H   0  0  0  0  0  0  0  0  0  0  0  0
    0.7443    1.0545    2.0389 H   0  0  0  0  0  0  0  0  0  0  0  0
  1  2  1  0
  1 21  1  0
  1 22  1  0
  1 23  1  0
  2 20  1  0
  2  3  2  0
  3  9  1  0
  3  4  1  0
  4  5  1  0
  4 24  1  0
  4 25  1  0
  5  6  2  0
  5  7  1  0
  7  8  1  0
  7 26  1  0
  7 27  1  0
  8  9  1  0
  8 28  1  0
  8 29  1  0
  9 10  1  0
  9 30  1  6
 10 19  1  0
 10 11  1  0
 10 31  1  1
 11 12  1  0
 11 32  1  0
 11 33  1  0
 12 13  1  0
 13 18  2  0
 13 14  1  0
 14 15  2  0
 14 34  1  0
 15 16  1  0
 15 35  1  0
 16 17  2  0
 16 36  1  0
 17 18  1  0
 17 40  1  0
 18 19  1  0
 19 20  1  0
 19 37  1  6
 20 38  1  0
 20 39  1  0
M  CHG  1  17   1
M  END
>  <i_m_ct_stereo_status>  (113) 
1

>  <s_m_source_file>  (113) 
/var/tmp/pbs.5076255.sched01/tmpr7id634h/0ay6m0hv_.sdf

>  <i_m_source_file_index>  (113) 
50

>  <i_lp_mmshare_version>  (113) 
48012

>  <i_f3d_flags>  (113) 
0

>  <s_epik_input>  (113) 
bjFbY0hdW2NIXVtjSF1jKE9bQ0gyXTIpYzFbQ0BIXShbQ0gyXUM9M1tDSDNdKVtDQEhdMltDQEhdKEMzNClbQ0gyXVtDSDJdQyg9TylbQ0gyXTQ=

>  <s_epik_cmdline>  (113) 
J2VwaWtfcHl0aG9uJywgJy1waHQnLCAnMi4wJywgJy1waCcsICc3LjAnLCAnLXRuJywgJzgnLCAnLW1hJywgJzIwMCcsICctaW1hZScsICc8aW5maWxlLm1hZT4nLCAnLW9tYWUnLCAnPG91dGZpbGUubWFlPic=

>  <r_lp_tautomer_probability>  (113) 
0.99995

>  <r_epik_Ionization_Penalty>  (113) 
2.36812

>  <r_epik_Ionization_Penalty_Charging>  (113) 
2.36812

>  <r_epik_Ionization_Penalty_Neutral>  (113) 
3.84545e-13

>  <r_epik_State_Penalty>  (113) 
2.52368

>  <r_epik_Charging_Adjusted_Penalty>  (113) 
4.89179

>  <i_epik_Tot_Q>  (113) 
1

>  <i_epik_Tot_abs_Q>  (113) 
1

>  <s_lp_Force_Field>  (113) 
OPLS3e

>  <r_lp_Energy>  (113) 
41.7638

>  <b_lp_Chiralities_Consistent>  (113) 
1

>  <s_lp_Variant>  (113) 
32:0-2

>  <s_i_glide_gridfile>  (113) 
pfpi4k_grid

>  <i_i_glide_lignum>  (113) 
50

>  <i_i_glide_rotatable_bonds>  (113) 
0

>  <r_i_docking_score>  (113) 
-3.13185

>  <r_i_glide_ligand_efficiency>  (113) 
-0.156593

>  <r_i_glide_ligand_efficiency_sa>  (113) 
-0.425058

>  <r_i_glide_ligand_efficiency_ln>  (113) 
-0.783799

>  <r_i_glide_gscore>  (113) 
-3.13185

>  <r_i_glide_lipo>  (113) 
-0.31933

>  <r_i_glide_hbond>  (113) 
0

>  <r_i_glide_metal>  (113) 
-0

>  <r_i_glide_rewards>  (113) 
-1.65609

>  <r_i_glide_evdw>  (113) 
-15.6833

>  <r_i_glide_ecoul>  (113) 
-2.13508

>  <r_i_glide_erotb>  (113) 
0

>  <r_i_glide_esite>  (113) 
-0.0520052

>  <r_i_glide_emodel>  (113) 
-23.5353

>  <r_i_glide_energy>  (113) 
-17.8184

>  <r_i_glide_einternal>  (113) 
0

>  <r_i_glide_intrahb_reward>  (113) 
-0

>  <i_i_glide_confnum>  (113) 
2

>  <i_i_glide_posenum>  (113) 
7

>  <r_i_glide_eff_state_penalty>  (113) 
0

>  <ligand_id>  (113) 
32

>  <original_smiles>  (113) 
CC1=C2CC(=O)CCC2C2COc3cccnc3C2C1

>  <smiles>  (113) 
[H]c1c([H])c([H])[n+]([H])c2c1OC([H])([H])C1([H])C3([H])C(=C(C([H])([H])[H])C([H])([H])C21[H])C([H])([H])C(=O)C([H])([H])C3([H])[H]

$$$$
33:0:0
     RDKit          3D

 50 53  0  0  1  0  0  0  0  0999 V2000
   -0.0309   -4.1550    6.2919 C   0  0  0  0  0  0  0  0  0  0  0  0
    0.3564   -3.0435    5.5099 O   0  0  0  0  0  0  0  0  0  0  0  0
    1.5381   -3.4384    4.8060 N   0  0  0  0  0  0  0  0  0  0  0  0
    1.2200   -3.2455    3.3980 C   0  0  2  0  0  0  0  0  0  0  0  0
    2.2565   -3.8919    2.4873 C   0  0  0  0  0  0  0  0  0  0  0  0
    2.2895   -5.0890    2.2183 O   0  0  0  0  0  0  0  0  0  0  0  0
    3.1825   -2.8761    1.9512 C   0  0  0  0  0  0  0  0  0  0  0  0
    4.0643   -3.1801    0.9956 C   0  0  0  0  0  0  0  0  0  0  0  0
    4.9737   -2.2950    0.4809 O   0  0  0  0  0  0  0  0  0  0  0  0
    5.6490   -2.5856   -0.6763 C   0  0  0  0  0  0  0  0  0  0  0  0
    5.2292   -3.8167   -1.4861 C   0  0  0  0  0  0  0  0  0  0  0  0
    6.5648   -1.8718   -1.1049 O   0  0  0  0  0  0  0  0  0  0  0  0
    2.8911   -1.5829    2.6794 C   0  0  1  0  0  0  0  0  0  0  0  0
    3.5541   -1.5716    3.9427 O   0  0  0  0  0  0  0  0  0  0  0  0
    4.9764   -1.6301    3.8983 C   0  0  0  0  0  0  0  0  0  0  0  0
    2.9011   -0.1268    2.1220 C   0  0  0  0  0  0  0  0  0  0  0  0
    1.7589    0.4881    2.9537 C   0  0  0  0  0  0  0  0  0  0  0  0
    0.9464   -0.5076    3.4751 C   0  0  0  0  0  0  0  0  0  0  0  0
   -0.1553   -0.3422    4.2155 N   0  0  0  0  0  0  0  0  0  0  0  0
   -0.4432    0.9298    4.5546 C   0  0  0  0  0  0  0  0  0  0  0  0
   -1.5452    1.1503    5.3959 C   0  0  0  0  0  0  0  0  0  0  0  0
   -1.9269    2.4492    5.7695 C   0  0  0  0  0  0  0  0  0  0  0  0
   -1.1948    3.5496    5.2978 C   0  0  0  0  0  0  0  0  0  0  0  0
   -0.0762    3.3541    4.4677 C   0  0  0  0  0  0  0  0  0  0  0  0
    0.3180    2.0505    4.0910 C   0  0  0  0  0  0  0  0  0  0  0  0
    1.4521    1.8351    3.2602 C   0  0  0  0  0  0  0  0  0  0  0  0
    2.2926    2.9765    2.7228 C   0  0  0  0  0  0  0  0  0  0  0  0
    1.3965   -1.8045    2.9056 C   0  0  2  0  0  0  0  0  0  0  0  0
   -0.9089   -3.8910    6.8805 H   0  0  0  0  0  0  0  0  0  0  0  0
    0.7658   -4.4425    6.9793 H   0  0  0  0  0  0  0  0  0  0  0  0
   -0.2823   -5.0157    5.6690 H   0  0  0  0  0  0  0  0  0  0  0  0
    2.2527   -2.7800    5.0875 H   0  0  0  0  0  0  0  0  0  0  0  0
    0.2280   -3.6517    3.1940 H   0  0  0  0  0  0  0  0  0  0  0  0
    4.1746   -4.1970    0.6544 H   0  0  0  0  0  0  0  0  0  0  0  0
    5.3165   -4.7316   -0.9001 H   0  0  0  0  0  0  0  0  0  0  0  0
    5.8432   -3.9432   -2.3750 H   0  0  0  0  0  0  0  0  0  0  0  0
    4.1941   -3.7057   -1.8048 H   0  0  0  0  0  0  0  0  0  0  0  0
    5.3622   -1.4736    4.9032 H   0  0  0  0  0  0  0  0  0  0  0  0
    5.4042   -0.8630    3.2561 H   0  0  0  0  0  0  0  0  0  0  0  0
    5.3404   -2.5981    3.5525 H   0  0  0  0  0  0  0  0  0  0  0  0
    3.8496    0.3824    2.2758 H   0  0  0  0  0  0  0  0  0  0  0  0
    2.6618   -0.0783    1.0595 H   0  0  0  0  0  0  0  0  0  0  0  0
   -2.1082    0.3026    5.7409 H   0  0  0  0  0  0  0  0  0  0  0  0
   -2.7872    2.5991    6.4053 H   0  0  0  0  0  0  0  0  0  0  0  0
   -1.4965    4.5447    5.5724 H   0  0  0  0  0  0  0  0  0  0  0  0
    0.4603    4.2183    4.1134 H   0  0  0  0  0  0  0  0  0  0  0  0
    1.6785    3.6428    2.1256 H   0  0  0  0  0  0  0  0  0  0  0  0
    3.0837    2.6190    2.0824 H   0  0  0  0  0  0  0  0  0  0  0  0
    2.7293    3.5588    3.5342 H   0  0  0  0  0  0  0  0  0  0  0  0
    0.9074   -1.7778    1.9276 H   0  0  0  0  0  0  0  0  0  0  0  0
  1  2  1  0
  1 29  1  0
  1 30  1  0
  1 31  1  0
  2  3  1  0
  3  4  1  0
  3 32  1  0
  4 28  1  0
  4  5  1  0
  4 33  1  1
  5  6  2  0
  5  7  1  0
  7  8  2  3
  7 13  1  0
  8  9  1  0
  8 34  1  0
  9 10  1  0
 10 11  1  0
 10 12  2  0
 11 35  1  0
 11 36  1  0
 11 37  1  0
 13 28  1  0
 13 14  1  1
 13 16  1  0
 14 15  1  0
 15 38  1  0
 15 39  1  0
 15 40  1  0
 16 17  1  0
 16 41  1  0
 16 42  1  0
 17 26  1  0
 17 18  2  0
 18 19  1  0
 18 28  1  0
 19 20  2  0
 20 25  1  0
 20 21  1  0
 21 22  2  0
 21 43  1  0
 22 23  1  0
 22 44  1  0
 23 24  2  0
 23 45  1  0
 24 25  1  0
 24 46  1  0
 25 26  2  0
 26 27  1  0
 27 47  1  0
 27 48  1  0
 27 49  1  0
 28 50  1  6
M  END
>  <i_m_ct_stereo_status>  (114) 
1

>  <s_m_source_file>  (114) 
/var/tmp/pbs.5076255.sched01/tmpr7id634h/0ay6m0hv_.sdf

>  <i_m_source_file_index>  (114) 
51

>  <i_lp_mmshare_version>  (114) 
48012

>  <i_f3d_flags>  (114) 
0

>  <s_epik_input>  (114) 
W0NIM11DKD1PKU8vW0NIXT1DMVxDKD1PKVtDQEBIXShbTkhdT1tDSDNdKVtDQEhdKFtDQEBdMTJPW0NIM10pYzNjKFtDSDJdMiljKFtDSDNdKWM0YyhuMylbY0hdW2NIXVtjSF1bY0hdNA==

>  <s_epik_cmdline>  (114) 
J2VwaWtfcHl0aG9uJywgJy1waHQnLCAnMi4wJywgJy1waCcsICc3LjAnLCAnLXRuJywgJzgnLCAnLW1hJywgJzIwMCcsICctaW1hZScsICc8aW5maWxlLm1hZT4nLCAnLW9tYWUnLCAnPG91dGZpbGUubWFlPic=

>  <r_epik_Ionization_Penalty>  (114) 
0.0404879

>  <r_epik_Ionization_Penalty_Charging>  (114) 
0

>  <r_epik_Ionization_Penalty_Neutral>  (114) 
0.0404879

>  <r_epik_State_Penalty>  (114) 
0.03407

>  <r_epik_Charging_Adjusted_Penalty>  (114) 
0.03407

>  <i_epik_Tot_Q>  (114) 
0

>  <i_epik_Tot_abs_Q>  (114) 
0

>  <s_epik_Chemistry_Notes>  (114) 
This compound has a N-S or N-O group and may undergo hydrolysis at high or low pH.

>  <s_lp_Force_Field>  (114) 
OPLS3e

>  <r_lp_Energy>  (114) 
37.5751

>  <b_lp_Chiralities_Consistent>  (114) 
1

>  <s_lp_Variant>  (114) 
33:0-1

>  <s_i_glide_gridfile>  (114) 
pfpi4k_grid

>  <i_i_glide_lignum>  (114) 
51

>  <i_i_glide_rotatable_bonds>  (114) 
5

>  <r_i_docking_score>  (114) 
-3.22063

>  <r_i_glide_ligand_efficiency>  (114) 
-0.115023

>  <r_i_glide_ligand_efficiency_sa>  (114) 
-0.349276

>  <r_i_glide_ligand_efficiency_ln>  (114) 
-0.743416

>  <r_i_glide_gscore>  (114) 
-3.22063

>  <r_i_glide_lipo>  (114) 
-0.164888

>  <r_i_glide_hbond>  (114) 
-0.16

>  <r_i_glide_metal>  (114) 
-0

>  <r_i_glide_rewards>  (114) 
-1.30175

>  <r_i_glide_evdw>  (114) 
-23.5045

>  <r_i_glide_ecoul>  (114) 
-4.41039

>  <r_i_glide_erotb>  (114) 
0.265614

>  <r_i_glide_esite>  (114) 
-0.0228245

>  <r_i_glide_emodel>  (114) 
-36.3065

>  <r_i_glide_energy>  (114) 
-27.9148

>  <r_i_glide_einternal>  (114) 
6.90422

>  <r_i_glide_intrahb_reward>  (114) 
-0.5

>  <i_i_glide_confnum>  (114) 
4

>  <i_i_glide_posenum>  (114) 
23

>  <r_i_glide_eff_state_penalty>  (114) 
0

>  <ligand_id>  (114) 
33

>  <original_smiles>  (114) 
CONC1C(=O)C(=COC(C)=O)C2(OC)Cc3c(nc4ccccc4c3C)C12

>  <smiles>  (114) 
[H]C(OC(=O)C([H])([H])[H])=C1C(=O)C([H])(N([H])OC([H])([H])[H])C2([H])c3nc4c([H])c([H])c([H])c([H])c4c(C([H])([H])[H])c3C([H])([H])C12OC([H])([H])[H]

$$$$
33:0:1
     RDKit          3D

 50 53  0  0  1  0  0  0  0  0999 V2000
    4.1783   -3.7778    5.6916 C   0  0  0  0  0  0  0  0  0  0  0  0
    3.1957   -3.3189    4.7859 O   0  0  0  0  0  0  0  0  0  0  0  0
    3.7373   -3.4807    3.4727 N   0  0  0  0  0  0  0  0  0  0  0  0
    2.6045   -3.2936    2.5717 C   0  0  2  0  0  0  0  0  0  0  0  0
    2.9938   -3.5935    1.1257 C   0  0  0  0  0  0  0  0  0  0  0  0
    3.0804   -4.7202    0.6469 O   0  0  0  0  0  0  0  0  0  0  0  0
    3.2219   -2.3402    0.3824 C   0  0  0  0  0  0  0  0  0  0  0  0
    3.4122   -2.3413   -0.9469 C   0  0  0  0  0  0  0  0  0  0  0  0
    3.6647   -1.2125   -1.6752 O   0  0  0  0  0  0  0  0  0  0  0  0
    3.4994   -1.2175   -3.0349 C   0  0  0  0  0  0  0  0  0  0  0  0
    2.8675   -2.4665   -3.6624 C   0  0  0  0  0  0  0  0  0  0  0  0
    3.8202   -0.2685   -3.7524 O   0  0  0  0  0  0  0  0  0  0  0  0
    3.1970   -1.2142    1.4007 C   0  0  1  0  0  0  0  0  0  0  0  0
    4.4679   -1.1101    2.0433 O   0  0  0  0  0  0  0  0  0  0  0  0
    5.5707   -0.8052    1.1941 C   0  0  0  0  0  0  0  0  0  0  0  0
    2.6401    0.2382    1.2610 C   0  0  0  0  0  0  0  0  0  0  0  0
    2.1285    0.4772    2.6936 C   0  0  0  0  0  0  0  0  0  0  0  0
    1.9618   -0.7334    3.3565 C   0  0  0  0  0  0  0  0  0  0  0  0
    1.5024   -0.9006    4.6008 N   0  0  0  0  0  0  0  0  0  0  0  0
    1.2616    0.2239    5.3019 C   0  0  0  0  0  0  0  0  0  0  0  0
    0.8563    0.0941    6.6414 C   0  0  0  0  0  0  0  0  0  0  0  0
    0.5483    1.2209    7.4219 C   0  0  0  0  0  0  0  0  0  0  0  0
    0.6473    2.5049    6.8597 C   0  0  0  0  0  0  0  0  0  0  0  0
    1.0710    2.6612    5.5257 C   0  0  0  0  0  0  0  0  0  0  0  0
    1.3869    1.5340    4.7341 C   0  0  0  0  0  0  0  0  0  0  0  0
    1.8250    1.6711    3.3867 C   0  0  0  0  0  0  0  0  0  0  0  0
    1.9460    3.0290    2.7236 C   0  0  0  0  0  0  0  0  0  0  0  0
    2.1905   -1.8272    2.3746 C   0  0  2  0  0  0  0  0  0  0  0  0
    3.8148   -3.6452    6.7115 H   0  0  0  0  0  0  0  0  0  0  0  0
    5.1067   -3.2145    5.5873 H   0  0  0  0  0  0  0  0  0  0  0  0
    4.3846   -4.8378    5.5373 H   0  0  0  0  0  0  0  0  0  0  0  0
    4.3878   -2.7144    3.3597 H   0  0  0  0  0  0  0  0  0  0  0  0
    1.7679   -3.9247    2.8799 H   0  0  0  0  0  0  0  0  0  0  0  0
    3.4641   -3.2562   -1.4970 H   0  0  0  0  0  0  0  0  0  0  0  0
    3.4398   -3.3622   -3.4230 H   0  0  0  0  0  0  0  0  0  0  0  0
    2.8271   -2.3823   -4.7337 H   0  0  0  0  0  0  0  0  0  0  0  0
    1.8484   -2.5954   -3.2966 H   0  0  0  0  0  0  0  0  0  0  0  0
    6.4431   -0.6269    1.8180 H   0  0  0  0  0  0  0  0  0  0  0  0
    5.4008    0.0810    0.5845 H   0  0  0  0  0  0  0  0  0  0  0  0
    5.8147   -1.6318    0.5273 H   0  0  0  0  0  0  0  0  0  0  0  0
    3.4039    0.9491    0.9585 H   0  0  0  0  0  0  0  0  0  0  0  0
    1.8195    0.3124    0.5545 H   0  0  0  0  0  0  0  0  0  0  0  0
    0.7939   -0.8916    7.0702 H   0  0  0  0  0  0  0  0  0  0  0  0
    0.2384    1.1008    8.4468 H   0  0  0  0  0  0  0  0  0  0  0  0
    0.4003    3.3688    7.4543 H   0  0  0  0  0  0  0  0  0  0  0  0
    1.1356    3.6581    5.1232 H   0  0  0  0  0  0  0  0  0  0  0  0
    0.9852    3.5374    2.7550 H   0  0  0  0  0  0  0  0  0  0  0  0
    2.2226    2.9540    1.6788 H   0  0  0  0  0  0  0  0  0  0  0  0
    2.6816    3.6511    3.2328 H   0  0  0  0  0  0  0  0  0  0  0  0
    1.2172   -1.8680    1.8758 H   0  0  0  0  0  0  0  0  0  0  0  0
  1  2  1  0
  1 29  1  0
  1 30  1  0
  1 31  1  0
  2  3  1  0
  3  4  1  0
  3 32  1  0
  4 28  1  0
  4  5  1  0
  4 33  1  1
  5  6  2  0
  5  7  1  0
  7  8  2  3
  7 13  1  0
  8  9  1  0
  8 34  1  0
  9 10  1  0
 10 11  1  0
 10 12  2  0
 11 35  1  0
 11 36  1  0
 11 37  1  0
 13 28  1  0
 13 14  1  1
 13 16  1  0
 14 15  1  0
 15 38  1  0
 15 39  1  0
 15 40  1  0
 16 17  1  0
 16 41  1  0
 16 42  1  0
 17 26  1  0
 17 18  2  0
 18 19  1  0
 18 28  1  0
 19 20  2  0
 20 25  1  0
 20 21  1  0
 21 22  2  0
 21 43  1  0
 22 23  1  0
 22 44  1  0
 23 24  2  0
 23 45  1  0
 24 25  1  0
 24 46  1  0
 25 26  2  0
 26 27  1  0
 27 47  1  0
 27 48  1  0
 27 49  1  0
 28 50  1  6
M  END
>  <i_m_ct_stereo_status>  (115) 
1

>  <s_m_source_file>  (115) 
/var/tmp/pbs.5076255.sched01/tmpr7id634h/0ay6m0hv_.sdf

>  <i_m_source_file_index>  (115) 
51

>  <i_lp_mmshare_version>  (115) 
48012

>  <i_f3d_flags>  (115) 
0

>  <s_epik_input>  (115) 
W0NIM11DKD1PKU8vW0NIXT1DMVxDKD1PKVtDQEBIXShbTkhdT1tDSDNdKVtDQEhdKFtDQEBdMTJPW0NIM10pYzNjKFtDSDJdMiljKFtDSDNdKWM0YyhuMylbY0hdW2NIXVtjSF1bY0hdNA==

>  <s_epik_cmdline>  (115) 
J2VwaWtfcHl0aG9uJywgJy1waHQnLCAnMi4wJywgJy1waCcsICc3LjAnLCAnLXRuJywgJzgnLCAnLW1hJywgJzIwMCcsICctaW1hZScsICc8aW5maWxlLm1hZT4nLCAnLW9tYWUnLCAnPG91dGZpbGUubWFlPic=

>  <r_epik_Ionization_Penalty>  (115) 
0.0404879

>  <r_epik_Ionization_Penalty_Charging>  (115) 
0

>  <r_epik_Ionization_Penalty_Neutral>  (115) 
0.0404879

>  <r_epik_State_Penalty>  (115) 
0.03407

>  <r_epik_Charging_Adjusted_Penalty>  (115) 
0.03407

>  <i_epik_Tot_Q>  (115) 
0

>  <i_epik_Tot_abs_Q>  (115) 
0

>  <s_epik_Chemistry_Notes>  (115) 
This compound has a N-S or N-O group and may undergo hydrolysis at high or low pH.

>  <s_lp_Force_Field>  (115) 
OPLS3e

>  <r_lp_Energy>  (115) 
37.5751

>  <b_lp_Chiralities_Consistent>  (115) 
1

>  <s_lp_Variant>  (115) 
33:0-1

>  <s_i_glide_gridfile>  (115) 
pfpi4k_grid

>  <i_i_glide_lignum>  (115) 
51

>  <i_i_glide_rotatable_bonds>  (115) 
5

>  <r_i_docking_score>  (115) 
-3.11692

>  <r_i_glide_ligand_efficiency>  (115) 
-0.111319

>  <r_i_glide_ligand_efficiency_sa>  (115) 
-0.338029

>  <r_i_glide_ligand_efficiency_ln>  (115) 
-0.719477

>  <r_i_glide_gscore>  (115) 
-3.11692

>  <r_i_glide_lipo>  (115) 
-0.364703

>  <r_i_glide_hbond>  (115) 
0

>  <r_i_glide_metal>  (115) 
-0

>  <r_i_glide_rewards>  (115) 
-1.30175

>  <r_i_glide_evdw>  (115) 
-26.2153

>  <r_i_glide_ecoul>  (115) 
-2.65658

>  <r_i_glide_erotb>  (115) 
0.265614

>  <r_i_glide_esite>  (115) 
-0.00682572

>  <r_i_glide_emodel>  (115) 
-37.05

>  <r_i_glide_energy>  (115) 
-28.8719

>  <r_i_glide_einternal>  (115) 
6.7484

>  <r_i_glide_intrahb_reward>  (115) 
-0.5

>  <i_i_glide_confnum>  (115) 
4

>  <i_i_glide_posenum>  (115) 
1

>  <r_i_glide_eff_state_penalty>  (115) 
0

>  <ligand_id>  (115) 
33

>  <original_smiles>  (115) 
CONC1C(=O)C(=COC(C)=O)C2(OC)Cc3c(nc4ccccc4c3C)C12

>  <smiles>  (115) 
[H]C(OC(=O)C([H])([H])[H])=C1C(=O)C([H])(N([H])OC([H])([H])[H])C2([H])c3nc4c([H])c([H])c([H])c([H])c4c(C([H])([H])[H])c3C([H])([H])C12OC([H])([H])[H]

$$$$
33:0:2
     RDKit          3D

 50 53  0  0  1  0  0  0  0  0999 V2000
    5.2108   -6.7038    1.0151 C   0  0  0  0  0  0  0  0  0  0  0  0
    4.5379   -5.8809    0.0794 O   0  0  0  0  0  0  0  0  0  0  0  0
    5.0103   -4.5387    0.2880 N   0  0  0  0  0  0  0  0  0  0  0  0
    3.8638   -3.6773   -0.0051 C   0  0  2  0  0  0  0  0  0  0  0  0
    4.2464   -2.1848   -0.0418 C   0  0  0  0  0  0  0  0  0  0  0  0
    4.8313   -1.6435   -0.9778 O   0  0  0  0  0  0  0  0  0  0  0  0
    3.8540   -1.5157    1.2239 C   0  0  0  0  0  0  0  0  0  0  0  0
    3.9091   -0.1860    1.3921 C   0  0  0  0  0  0  0  0  0  0  0  0
    3.6029    0.4226    2.5664 O   0  0  0  0  0  0  0  0  0  0  0  0
    2.5001    1.1894    2.5839 C   0  0  0  0  0  0  0  0  0  0  0  0
    2.3443    1.9054    3.9146 C   0  0  0  0  0  0  0  0  0  0  0  0
    1.6737    1.3144    1.6843 O   0  0  0  0  0  0  0  0  0  0  0  0
    3.4041   -2.6190    2.1706 C   0  0  1  0  0  0  0  0  0  0  0  0
    4.5320   -3.2329    2.7957 O   0  0  0  0  0  0  0  0  0  0  0  0
    5.2689   -2.4247    3.7035 C   0  0  0  0  0  0  0  0  0  0  0  0
    2.2461   -2.6114    3.2286 C   0  0  0  0  0  0  0  0  0  0  0  0
    1.7865   -4.0787    3.1669 C   0  0  0  0  0  0  0  0  0  0  0  0
    2.2163   -4.6636    1.9808 C   0  0  0  0  0  0  0  0  0  0  0  0
    1.9163   -5.8990    1.5572 N   0  0  0  0  0  0  0  0  0  0  0  0
    1.2643   -6.6925    2.4322 C   0  0  0  0  0  0  0  0  0  0  0  0
    1.0327   -8.0322    2.0762 C   0  0  0  0  0  0  0  0  0  0  0  0
    0.3076   -8.8965    2.9104 C   0  0  0  0  0  0  0  0  0  0  0  0
   -0.1991   -8.4205    4.1318 C   0  0  0  0  0  0  0  0  0  0  0  0
    0.0393   -7.0910    4.5245 C   0  0  0  0  0  0  0  0  0  0  0  0
    0.7768   -6.2111    3.6911 C   0  0  0  0  0  0  0  0  0  0  0  0
    1.0379   -4.8617    4.0715 C   0  0  0  0  0  0  0  0  0  0  0  0
    0.5136   -4.2836    5.3752 C   0  0  0  0  0  0  0  0  0  0  0  0
    2.8446   -3.5996    1.1388 C   0  0  2  0  0  0  0  0  0  0  0  0
    4.8878   -7.7379    0.8859 H   0  0  0  0  0  0  0  0  0  0  0  0
    4.9811   -6.4065    2.0411 H   0  0  0  0  0  0  0  0  0  0  0  0
    6.2928   -6.6631    0.8684 H   0  0  0  0  0  0  0  0  0  0  0  0
    5.2257   -4.4833    1.2761 H   0  0  0  0  0  0  0  0  0  0  0  0
    3.4055   -3.9826   -0.9504 H   0  0  0  0  0  0  0  0  0  0  0  0
    4.2462    0.5190    0.6418 H   0  0  0  0  0  0  0  0  0  0  0  0
    2.3844    1.1793    4.7291 H   0  0  0  0  0  0  0  0  0  0  0  0
    1.3917    2.4374    3.9564 H   0  0  0  0  0  0  0  0  0  0  0  0
    3.1585    2.6215    4.0409 H   0  0  0  0  0  0  0  0  0  0  0  0
    5.9663   -3.0653    4.2313 H   0  0  0  0  0  0  0  0  0  0  0  0
    4.6541   -1.9608    4.4680 H   0  0  0  0  0  0  0  0  0  0  0  0
    5.8160   -1.6417    3.1811 H   0  0  0  0  0  0  0  0  0  0  0  0
    2.5599   -2.3355    4.2319 H   0  0  0  0  0  0  0  0  0  0  0  0
    1.4342   -1.9460    2.9394 H   0  0  0  0  0  0  0  0  0  0  0  0
    1.4168   -8.4069    1.1407 H   0  0  0  0  0  0  0  0  0  0  0  0
    0.1358   -9.9214    2.6079 H   0  0  0  0  0  0  0  0  0  0  0  0
   -0.7700   -9.0874    4.7641 H   0  0  0  0  0  0  0  0  0  0  0  0
   -0.3604   -6.7604    5.4674 H   0  0  0  0  0  0  0  0  0  0  0  0
   -0.5732   -4.3657    5.4102 H   0  0  0  0  0  0  0  0  0  0  0  0
    0.7697   -3.2327    5.4979 H   0  0  0  0  0  0  0  0  0  0  0  0
    0.9179   -4.8318    6.2267 H   0  0  0  0  0  0  0  0  0  0  0  0
    1.9646   -3.1360    0.6934 H   0  0  0  0  0  0  0  0  0  0  0  0
  1  2  1  0
  1 29  1  0
  1 30  1  0
  1 31  1  0
  2  3  1  0
  3  4  1  0
  3 32  1  0
  4 28  1  0
  4  5  1  0
  4 33  1  6
  5  6  2  0
  5  7  1  0
  7  8  2  3
  7 13  1  0
  8  9  1  0
  8 34  1  0
  9 10  1  0
 10 11  1  0
 10 12  2  0
 11 35  1  0
 11 36  1  0
 11 37  1  0
 13 28  1  0
 13 14  1  1
 13 16  1  0
 14 15  1  0
 15 38  1  0
 15 39  1  0
 15 40  1  0
 16 17  1  0
 16 41  1  0
 16 42  1  0
 17 26  1  0
 17 18  2  0
 18 19  1  0
 18 28  1  0
 19 20  2  0
 20 25  1  0
 20 21  1  0
 21 22  2  0
 21 43  1  0
 22 23  1  0
 22 44  1  0
 23 24  2  0
 23 45  1  0
 24 25  1  0
 24 46  1  0
 25 26  2  0
 26 27  1  0
 27 47  1  0
 27 48  1  0
 27 49  1  0
 28 50  1  6
M  END
>  <i_m_ct_stereo_status>  (116) 
1

>  <s_m_source_file>  (116) 
/var/tmp/pbs.5076255.sched01/tmpr7id634h/0ay6m0hv_.sdf

>  <i_m_source_file_index>  (116) 
51

>  <i_lp_mmshare_version>  (116) 
48012

>  <i_f3d_flags>  (116) 
0

>  <s_epik_input>  (116) 
W0NIM11DKD1PKU8vW0NIXT1DMVxDKD1PKVtDQEBIXShbTkhdT1tDSDNdKVtDQEhdKFtDQEBdMTJPW0NIM10pYzNjKFtDSDJdMiljKFtDSDNdKWM0YyhuMylbY0hdW2NIXVtjSF1bY0hdNA==

>  <s_epik_cmdline>  (116) 
J2VwaWtfcHl0aG9uJywgJy1waHQnLCAnMi4wJywgJy1waCcsICc3LjAnLCAnLXRuJywgJzgnLCAnLW1hJywgJzIwMCcsICctaW1hZScsICc8aW5maWxlLm1hZT4nLCAnLW9tYWUnLCAnPG91dGZpbGUubWFlPic=

>  <r_epik_Ionization_Penalty>  (116) 
0.0404879

>  <r_epik_Ionization_Penalty_Charging>  (116) 
0

>  <r_epik_Ionization_Penalty_Neutral>  (116) 
0.0404879

>  <r_epik_State_Penalty>  (116) 
0.03407

>  <r_epik_Charging_Adjusted_Penalty>  (116) 
0.03407

>  <i_epik_Tot_Q>  (116) 
0

>  <i_epik_Tot_abs_Q>  (116) 
0

>  <s_epik_Chemistry_Notes>  (116) 
This compound has a N-S or N-O group and may undergo hydrolysis at high or low pH.

>  <s_lp_Force_Field>  (116) 
OPLS3e

>  <r_lp_Energy>  (116) 
37.5751

>  <b_lp_Chiralities_Consistent>  (116) 
1

>  <s_lp_Variant>  (116) 
33:0-1

>  <s_i_glide_gridfile>  (116) 
pfpi4k_grid

>  <i_i_glide_lignum>  (116) 
51

>  <i_i_glide_rotatable_bonds>  (116) 
5

>  <r_i_docking_score>  (116) 
-2.80811

>  <r_i_glide_ligand_efficiency>  (116) 
-0.10029

>  <r_i_glide_ligand_efficiency_sa>  (116) 
-0.304539

>  <r_i_glide_ligand_efficiency_ln>  (116) 
-0.648195

>  <r_i_glide_gscore>  (116) 
-2.80811

>  <r_i_glide_lipo>  (116) 
-0.196383

>  <r_i_glide_hbond>  (116) 
0

>  <r_i_glide_metal>  (116) 
-0

>  <r_i_glide_rewards>  (116) 
-1.31539

>  <r_i_glide_evdw>  (116) 
-26.4524

>  <r_i_glide_ecoul>  (116) 
-1.49197

>  <r_i_glide_erotb>  (116) 
0.265614

>  <r_i_glide_esite>  (116) 
-0.0155417

>  <r_i_glide_emodel>  (116) 
-36.6824

>  <r_i_glide_energy>  (116) 
-27.9443

>  <r_i_glide_einternal>  (116) 
4.47648

>  <r_i_glide_intrahb_reward>  (116) 
-0.5

>  <i_i_glide_confnum>  (116) 
4

>  <i_i_glide_posenum>  (116) 
34

>  <r_i_glide_eff_state_penalty>  (116) 
0

>  <ligand_id>  (116) 
33

>  <original_smiles>  (116) 
CONC1C(=O)C(=COC(C)=O)C2(OC)Cc3c(nc4ccccc4c3C)C12

>  <smiles>  (116) 
[H]C(OC(=O)C([H])([H])[H])=C1C(=O)C([H])(N([H])OC([H])([H])[H])C2([H])c3nc4c([H])c([H])c([H])c([H])c4c(C([H])([H])[H])c3C([H])([H])C12OC([H])([H])[H]

$$$$
33:1:0
     RDKit          3D

 51 54  0  0  1  0  0  0  0  0999 V2000
    2.5449   -2.8699   -3.5451 C   0  0  0  0  0  0  0  0  0  0  0  0
    3.1908   -1.8495   -2.8029 O   0  0  0  0  0  0  0  0  0  0  0  0
    3.0147   -2.1855   -1.4151 N   0  0  0  0  0  0  0  0  0  0  0  0
    4.1301   -1.5584   -0.7220 C   0  0  2  0  0  0  0  0  0  0  0  0
    5.4566   -2.3179   -0.9031 C   0  0  0  0  0  0  0  0  0  0  0  0
    6.1764   -2.2353   -1.8969 O   0  0  0  0  0  0  0  0  0  0  0  0
    5.7550   -3.1462    0.2789 C   0  0  0  0  0  0  0  0  0  0  0  0
    6.9349   -3.7802    0.4272 C   0  0  0  0  0  0  0  0  0  0  0  0
    7.1916   -4.5561    1.5174 O   0  0  0  0  0  0  0  0  0  0  0  0
    8.2162   -5.4189    1.4730 C   0  0  0  0  0  0  0  0  0  0  0  0
    8.3309   -6.1838    2.7805 C   0  0  0  0  0  0  0  0  0  0  0  0
    8.9906   -5.5949    0.5272 O   0  0  0  0  0  0  0  0  0  0  0  0
    4.5205   -3.1009    1.1672 C   0  0  1  0  0  0  0  0  0  0  0  0
    3.5227   -4.0268    0.7269 O   0  0  0  0  0  0  0  0  0  0  0  0
    3.9314   -5.3850    0.6678 C   0  0  0  0  0  0  0  0  0  0  0  0
    4.4297   -3.0584    2.7270 C   0  0  0  0  0  0  0  0  0  0  0  0
    3.1856   -2.1611    2.9316 C   0  0  0  0  0  0  0  0  0  0  0  0
    2.9340   -1.4303    1.7689 C   0  0  0  0  0  0  0  0  0  0  0  0
    1.9353   -0.5408    1.6783 N   0  0  0  0  0  0  0  0  0  0  0  0
    1.0666   -0.3612    2.6906 C   0  0  0  0  0  0  0  0  0  0  0  0
    0.0004    0.5464    2.5252 C   0  0  0  0  0  0  0  0  0  0  0  0
   -0.9119    0.7601    3.5762 C   0  0  0  0  0  0  0  0  0  0  0  0
   -0.7597    0.0573    4.7863 C   0  0  0  0  0  0  0  0  0  0  0  0
    0.2943   -0.8697    4.9490 C   0  0  0  0  0  0  0  0  0  0  0  0
    1.2248   -1.0929    3.9048 C   0  0  0  0  0  0  0  0  0  0  0  0
    2.3163   -2.0150    4.0400 C   0  0  0  0  0  0  0  0  0  0  0  0
    2.5361   -2.7821    5.3369 C   0  0  0  0  0  0  0  0  0  0  0  0
    4.0326   -1.6914    0.8015 C   0  0  2  0  0  0  0  0  0  0  0  0
    2.6461   -2.6474   -4.6040 H   0  0  0  0  0  0  0  0  0  0  0  0
    1.4771   -2.9304   -3.3194 H   0  0  0  0  0  0  0  0  0  0  0  0
    2.9917   -3.8521   -3.3713 H   0  0  0  0  0  0  0  0  0  0  0  0
    2.1121   -1.7633   -1.1436 H   0  0  0  0  0  0  0  0  0  0  0  0
    4.2174   -0.5143   -1.0422 H   0  0  0  0  0  0  0  0  0  0  0  0
    7.7321   -3.7529   -0.3122 H   0  0  0  0  0  0  0  0  0  0  0  0
    8.4254   -5.4846    3.6122 H   0  0  0  0  0  0  0  0  0  0  0  0
    9.1954   -6.8438    2.7736 H   0  0  0  0  0  0  0  0  0  0  0  0
    7.4297   -6.7770    2.9343 H   0  0  0  0  0  0  0  0  0  0  0  0
    3.0584   -6.0034    0.4606 H   0  0  0  0  0  0  0  0  0  0  0  0
    4.3771   -5.7329    1.6013 H   0  0  0  0  0  0  0  0  0  0  0  0
    4.6458   -5.5558   -0.1391 H   0  0  0  0  0  0  0  0  0  0  0  0
    4.2985   -4.0484    3.1555 H   0  0  0  0  0  0  0  0  0  0  0  0
    5.2977   -2.5889    3.1974 H   0  0  0  0  0  0  0  0  0  0  0  0
   -0.1301    1.0816    1.5915 H   0  0  0  0  0  0  0  0  0  0  0  0
   -1.7308    1.4577    3.4408 H   0  0  0  0  0  0  0  0  0  0  0  0
   -1.4586    0.2431    5.5896 H   0  0  0  0  0  0  0  0  0  0  0  0
    0.3877   -1.3734    5.8989 H   0  0  0  0  0  0  0  0  0  0  0  0
    2.6715   -2.0802    6.1614 H   0  0  0  0  0  0  0  0  0  0  0  0
    3.4230   -3.4173    5.2984 H   0  0  0  0  0  0  0  0  0  0  0  0
    1.6771   -3.4140    5.5743 H   0  0  0  0  0  0  0  0  0  0  0  0
    4.7723   -0.9782    1.1751 H   0  0  0  0  0  0  0  0  0  0  0  0
    1.7711   -0.0644    0.7844 H   0  0  0  0  0  0  0  0  0  0  0  0
  1  2  1  0
  1 29  1  0
  1 30  1  0
  1 31  1  0
  2  3  1  0
  3  4  1  0
  3 32  1  0
  4 28  1  0
  4  5  1  0
  4 33  1  1
  5  6  2  0
  5  7  1  0
  7  8  2  3
  7 13  1  0
  8  9  1  0
  8 34  1  0
  9 10  1  0
 10 11  1  0
 10 12  2  0
 11 35  1  0
 11 36  1  0
 11 37  1  0
 13 28  1  0
 13 14  1  6
 13 16  1  0
 14 15  1  0
 15 38  1  0
 15 39  1  0
 15 40  1  0
 16 17  1  0
 16 41  1  0
 16 42  1  0
 17 26  1  0
 17 18  2  0
 18 19  1  0
 18 28  1  0
 19 20  2  0
 19 51  1  0
 20 25  1  0
 20 21  1  0
 21 22  2  0
 21 43  1  0
 22 23  1  0
 22 44  1  0
 23 24  2  0
 23 45  1  0
 24 25  1  0
 24 46  1  0
 25 26  2  0
 26 27  1  0
 27 47  1  0
 27 48  1  0
 27 49  1  0
 28 50  1  1
M  CHG  1  19   1
M  END
>  <i_m_ct_stereo_status>  (117) 
1

>  <s_m_source_file>  (117) 
/var/tmp/pbs.5076255.sched01/tmpr7id634h/0ay6m0hv_.sdf

>  <i_m_source_file_index>  (117) 
52

>  <i_lp_mmshare_version>  (117) 
48012

>  <i_f3d_flags>  (117) 
0

>  <s_epik_input>  (117) 
W0NIM11DKD1PKU8vW0NIXT1DMVxDKD1PKVtDQEBIXShbTkhdT1tDSDNdKVtDQEhdKFtDQEBdMTJPW0NIM10pYzNjKFtDSDJdMiljKFtDSDNdKWM0YyhuMylbY0hdW2NIXVtjSF1bY0hdNA==

>  <s_epik_cmdline>  (117) 
J2VwaWtfcHl0aG9uJywgJy1waHQnLCAnMi4wJywgJy1waCcsICc3LjAnLCAnLXRuJywgJzgnLCAnLW1hJywgJzIwMCcsICctaW1hZScsICc8aW5maWxlLm1hZT4nLCAnLW9tYWUnLCAnPG91dGZpbGUubWFlPic=

>  <r_epik_Ionization_Penalty>  (117) 
1.61015

>  <r_epik_Ionization_Penalty_Charging>  (117) 
1.61015

>  <r_epik_Ionization_Penalty_Neutral>  (117) 
4.34472e-06

>  <r_epik_State_Penalty>  (117) 
1.70904

>  <r_epik_Charging_Adjusted_Penalty>  (117) 
3.31919

>  <i_epik_Tot_Q>  (117) 
1

>  <i_epik_Tot_abs_Q>  (117) 
1

>  <s_epik_Chemistry_Notes>  (117) 
This compound has a N-S or N-O group and may undergo hydrolysis at high or low pH.

>  <s_lp_Force_Field>  (117) 
OPLS3e

>  <r_lp_Energy>  (117) 
43.2504

>  <b_lp_Chiralities_Consistent>  (117) 
1

>  <s_lp_Variant>  (117) 
33:0-2

>  <s_i_glide_gridfile>  (117) 
pfpi4k_grid

>  <i_i_glide_lignum>  (117) 
52

>  <i_i_glide_rotatable_bonds>  (117) 
5

>  <r_i_docking_score>  (117) 
-4.30139

>  <r_i_glide_ligand_efficiency>  (117) 
-0.153621

>  <r_i_glide_ligand_efficiency_sa>  (117) 
-0.466484

>  <r_i_glide_ligand_efficiency_ln>  (117) 
-0.992886

>  <r_i_glide_gscore>  (117) 
-4.30139

>  <r_i_glide_lipo>  (117) 
-0.477825

>  <r_i_glide_hbond>  (117) 
-0.308373

>  <r_i_glide_metal>  (117) 
-0

>  <r_i_glide_rewards>  (117) 
-0.883816

>  <r_i_glide_evdw>  (117) 
-26.9861

>  <r_i_glide_ecoul>  (117) 
-8.83411

>  <r_i_glide_erotb>  (117) 
0.264363

>  <r_i_glide_esite>  (117) 
-0.221314

>  <r_i_glide_emodel>  (117) 
-45.8484

>  <r_i_glide_energy>  (117) 
-35.8202

>  <r_i_glide_einternal>  (117) 
2.51833

>  <r_i_glide_intrahb_reward>  (117) 
-0

>  <i_i_glide_confnum>  (117) 
5

>  <i_i_glide_posenum>  (117) 
35

>  <r_i_glide_eff_state_penalty>  (117) 
0

>  <ligand_id>  (117) 
33

>  <original_smiles>  (117) 
CONC1C(=O)C(=COC(C)=O)C2(OC)Cc3c(nc4ccccc4c3C)C12

>  <smiles>  (117) 
[H]C(OC(=O)C([H])([H])[H])=C1C(=O)C([H])(N([H])OC([H])([H])[H])C2([H])c3c(c(C([H])([H])[H])c4c([H])c([H])c([H])c([H])c4[n+]3[H])C([H])([H])C12OC([H])([H])[H]

$$$$
33:1:1
     RDKit          3D

 51 54  0  0  1  0  0  0  0  0999 V2000
    3.1210   -0.5869   -3.4970 C   0  0  0  0  0  0  0  0  0  0  0  0
    4.2112   -0.8192   -2.6316 O   0  0  0  0  0  0  0  0  0  0  0  0
    3.6804   -1.4599   -1.4632 N   0  0  0  0  0  0  0  0  0  0  0  0
    4.6880   -1.2305   -0.4324 C   0  0  2  0  0  0  0  0  0  0  0  0
    5.8128   -2.2654   -0.4600 C   0  0  0  0  0  0  0  0  0  0  0  0
    6.7703   -2.2391   -1.2305 O   0  0  0  0  0  0  0  0  0  0  0  0
    5.6046   -3.2788    0.5920 C   0  0  0  0  0  0  0  0  0  0  0  0
    6.5538   -4.1596    0.8870 C   0  0  0  0  0  0  0  0  0  0  0  0
    6.4203   -5.1407    1.8352 O   0  0  0  0  0  0  0  0  0  0  0  0
    7.4890   -5.9148    2.2070 C   0  0  0  0  0  0  0  0  0  0  0  0
    8.8576   -5.6081    1.5837 C   0  0  0  0  0  0  0  0  0  0  0  0
    7.3855   -6.8160    3.0435 O   0  0  0  0  0  0  0  0  0  0  0  0
    4.2271   -3.0414    1.1764 C   0  0  1  0  0  0  0  0  0  0  0  0
    3.2229   -3.6521    0.3675 O   0  0  0  0  0  0  0  0  0  0  0  0
    3.3393   -5.0600    0.1926 C   0  0  0  0  0  0  0  0  0  0  0  0
    3.7592   -3.1892    2.6597 C   0  0  0  0  0  0  0  0  0  0  0  0
    2.7241   -2.0470    2.7343 C   0  0  0  0  0  0  0  0  0  0  0  0
    2.9484   -1.1426    1.7058 C   0  0  0  0  0  0  0  0  0  0  0  0
    2.2214   -0.0228    1.5459 N   0  0  0  0  0  0  0  0  0  0  0  0
    1.1697    0.2199    2.3320 C   0  0  0  0  0  0  0  0  0  0  0  0
    0.3949    1.3718    2.0982 C   0  0  0  0  0  0  0  0  0  0  0  0
   -0.6950    1.6684    2.9259 C   0  0  0  0  0  0  0  0  0  0  0  0
   -1.0193    0.8117    3.9942 C   0  0  0  0  0  0  0  0  0  0  0  0
   -0.2574   -0.3544    4.2298 C   0  0  0  0  0  0  0  0  0  0  0  0
    0.8460   -0.6675    3.4054 C   0  0  0  0  0  0  0  0  0  0  0  0
    1.6371   -1.8348    3.6195 C   0  0  0  0  0  0  0  0  0  0  0  0
    1.3465   -2.7981    4.7583 C   0  0  0  0  0  0  0  0  0  0  0  0
    4.1875   -1.5239    0.9852 C   0  0  2  0  0  0  0  0  0  0  0  0
    3.4738   -0.0960   -4.4057 H   0  0  0  0  0  0  0  0  0  0  0  0
    2.3979    0.0759   -3.0202 H   0  0  0  0  0  0  0  0  0  0  0  0
    2.6225   -1.5194   -3.7774 H   0  0  0  0  0  0  0  0  0  0  0  0
    2.7814   -1.0274   -1.2640 H   0  0  0  0  0  0  0  0  0  0  0  0
    5.0974   -0.2191   -0.5083 H   0  0  0  0  0  0  0  0  0  0  0  0
    7.4548   -4.1817    0.2974 H   0  0  0  0  0  0  0  0  0  0  0  0
    8.8174   -5.7313    0.4968 H   0  0  0  0  0  0  0  0  0  0  0  0
    9.6384   -6.2486    1.9613 H   0  0  0  0  0  0  0  0  0  0  0  0
    9.1451   -4.5860    1.8318 H   0  0  0  0  0  0  0  0  0  0  0  0
    2.4508   -5.4115   -0.3227 H   0  0  0  0  0  0  0  0  0  0  0  0
    3.4008   -5.5929    1.1394 H   0  0  0  0  0  0  0  0  0  0  0  0
    4.2061   -5.3380   -0.4088 H   0  0  0  0  0  0  0  0  0  0  0  0
    3.3245   -4.1660    2.8670 H   0  0  0  0  0  0  0  0  0  0  0  0
    4.5585   -3.0133    3.3817 H   0  0  0  0  0  0  0  0  0  0  0  0
    0.6179    2.0462    1.2862 H   0  0  0  0  0  0  0  0  0  0  0  0
   -1.2760    2.5650    2.7317 H   0  0  0  0  0  0  0  0  0  0  0  0
   -1.8608    1.0587    4.6267 H   0  0  0  0  0  0  0  0  0  0  0  0
   -0.5375   -0.9832    5.0576 H   0  0  0  0  0  0  0  0  0  0  0  0
    1.3965   -2.2607    5.7045 H   0  0  0  0  0  0  0  0  0  0  0  0
    2.0590   -3.6204    4.8083 H   0  0  0  0  0  0  0  0  0  0  0  0
    0.3458   -3.2196    4.6619 H   0  0  0  0  0  0  0  0  0  0  0  0
    4.9457   -1.0829    1.6408 H   0  0  0  0  0  0  0  0  0  0  0  0
    2.4447    0.6142    0.7852 H   0  0  0  0  0  0  0  0  0  0  0  0
  1  2  1  0
  1 29  1  0
  1 30  1  0
  1 31  1  0
  2  3  1  0
  3  4  1  0
  3 32  1  0
  4 28  1  0
  4  5  1  0
  4 33  1  1
  5  6  2  0
  5  7  1  0
  7  8  2  3
  7 13  1  0
  8  9  1  0
  8 34  1  0
  9 10  1  0
 10 11  1  0
 10 12  2  0
 11 35  1  0
 11 36  1  0
 11 37  1  0
 13 28  1  0
 13 14  1  6
 13 16  1  0
 14 15  1  0
 15 38  1  0
 15 39  1  0
 15 40  1  0
 16 17  1  0
 16 41  1  0
 16 42  1  0
 17 26  1  0
 17 18  2  0
 18 19  1  0
 18 28  1  0
 19 20  2  0
 19 51  1  0
 20 25  1  0
 20 21  1  0
 21 22  2  0
 21 43  1  0
 22 23  1  0
 22 44  1  0
 23 24  2  0
 23 45  1  0
 24 25  1  0
 24 46  1  0
 25 26  2  0
 26 27  1  0
 27 47  1  0
 27 48  1  0
 27 49  1  0
 28 50  1  1
M  CHG  1  19   1
M  END
>  <i_m_ct_stereo_status>  (118) 
1

>  <s_m_source_file>  (118) 
/var/tmp/pbs.5076255.sched01/tmpr7id634h/0ay6m0hv_.sdf

>  <i_m_source_file_index>  (118) 
52

>  <i_lp_mmshare_version>  (118) 
48012

>  <i_f3d_flags>  (118) 
0

>  <s_epik_input>  (118) 
W0NIM11DKD1PKU8vW0NIXT1DMVxDKD1PKVtDQEBIXShbTkhdT1tDSDNdKVtDQEhdKFtDQEBdMTJPW0NIM10pYzNjKFtDSDJdMiljKFtDSDNdKWM0YyhuMylbY0hdW2NIXVtjSF1bY0hdNA==

>  <s_epik_cmdline>  (118) 
J2VwaWtfcHl0aG9uJywgJy1waHQnLCAnMi4wJywgJy1waCcsICc3LjAnLCAnLXRuJywgJzgnLCAnLW1hJywgJzIwMCcsICctaW1hZScsICc8aW5maWxlLm1hZT4nLCAnLW9tYWUnLCAnPG91dGZpbGUubWFlPic=

>  <r_epik_Ionization_Penalty>  (118) 
1.61015

>  <r_epik_Ionization_Penalty_Charging>  (118) 
1.61015

>  <r_epik_Ionization_Penalty_Neutral>  (118) 
4.34472e-06

>  <r_epik_State_Penalty>  (118) 
1.70904

>  <r_epik_Charging_Adjusted_Penalty>  (118) 
3.31919

>  <i_epik_Tot_Q>  (118) 
1

>  <i_epik_Tot_abs_Q>  (118) 
1

>  <s_epik_Chemistry_Notes>  (118) 
This compound has a N-S or N-O group and may undergo hydrolysis at high or low pH.

>  <s_lp_Force_Field>  (118) 
OPLS3e

>  <r_lp_Energy>  (118) 
43.2504

>  <b_lp_Chiralities_Consistent>  (118) 
1

>  <s_lp_Variant>  (118) 
33:0-2

>  <s_i_glide_gridfile>  (118) 
pfpi4k_grid

>  <i_i_glide_lignum>  (118) 
52

>  <i_i_glide_rotatable_bonds>  (118) 
5

>  <r_i_docking_score>  (118) 
-3.60396

>  <r_i_glide_ligand_efficiency>  (118) 
-0.128713

>  <r_i_glide_ligand_efficiency_sa>  (118) 
-0.390848

>  <r_i_glide_ligand_efficiency_ln>  (118) 
-0.8319

>  <r_i_glide_gscore>  (118) 
-3.60396

>  <r_i_glide_lipo>  (118) 
-0.373043

>  <r_i_glide_hbond>  (118) 
-0.294049

>  <r_i_glide_metal>  (118) 
-0

>  <r_i_glide_rewards>  (118) 
-0.8129

>  <r_i_glide_evdw>  (118) 
-29.7508

>  <r_i_glide_ecoul>  (118) 
-4.89007

>  <r_i_glide_erotb>  (118) 
0.264363

>  <r_i_glide_esite>  (118) 
-0.167282

>  <r_i_glide_emodel>  (118) 
-40.3309

>  <r_i_glide_energy>  (118) 
-34.6409

>  <r_i_glide_einternal>  (118) 
7.08579

>  <r_i_glide_intrahb_reward>  (118) 
-0

>  <i_i_glide_confnum>  (118) 
5

>  <i_i_glide_posenum>  (118) 
1

>  <r_i_glide_eff_state_penalty>  (118) 
0

>  <ligand_id>  (118) 
33

>  <original_smiles>  (118) 
CONC1C(=O)C(=COC(C)=O)C2(OC)Cc3c(nc4ccccc4c3C)C12

>  <smiles>  (118) 
[H]C(OC(=O)C([H])([H])[H])=C1C(=O)C([H])(N([H])OC([H])([H])[H])C2([H])c3c(c(C([H])([H])[H])c4c([H])c([H])c([H])c([H])c4[n+]3[H])C([H])([H])C12OC([H])([H])[H]

$$$$
33:1:2
     RDKit          3D

 51 54  0  0  1  0  0  0  0  0999 V2000
    7.3019   -8.0492    1.6772 C   0  0  0  0  0  0  0  0  0  0  0  0
    5.9924   -7.6760    1.2814 O   0  0  0  0  0  0  0  0  0  0  0  0
    6.0398   -6.2653    1.0185 N   0  0  0  0  0  0  0  0  0  0  0  0
    4.8300   -5.9684    0.2499 C   0  0  2  0  0  0  0  0  0  0  0  0
    4.7433   -4.4796   -0.1422 C   0  0  0  0  0  0  0  0  0  0  0  0
    5.3678   -3.9715   -1.0687 O   0  0  0  0  0  0  0  0  0  0  0  0
    3.8131   -3.7609    0.7612 C   0  0  0  0  0  0  0  0  0  0  0  0
    3.4160   -2.4934    0.5500 C   0  0  0  0  0  0  0  0  0  0  0  0
    2.5442   -1.8628    1.3792 O   0  0  0  0  0  0  0  0  0  0  0  0
    2.7292   -0.5457    1.6122 C   0  0  0  0  0  0  0  0  0  0  0  0
    1.5609    0.0404    2.3875 C   0  0  0  0  0  0  0  0  0  0  0  0
    3.6989    0.1379    1.2773 O   0  0  0  0  0  0  0  0  0  0  0  0
    3.4650   -4.7372    1.8765 C   0  0  1  0  0  0  0  0  0  0  0  0
    4.5002   -4.7529    2.8634 O   0  0  0  0  0  0  0  0  0  0  0  0
    4.7406   -3.5229    3.5400 C   0  0  0  0  0  0  0  0  0  0  0  0
    2.1152   -4.9364    2.6552 C   0  0  0  0  0  0  0  0  0  0  0  0
    2.1290   -6.4575    2.9011 C   0  0  0  0  0  0  0  0  0  0  0  0
    3.0297   -7.0627    2.0330 C   0  0  0  0  0  0  0  0  0  0  0  0
    3.2330   -8.3896    2.0078 N   0  0  0  0  0  0  0  0  0  0  0  0
    2.6132   -9.2019    2.8901 C   0  0  0  0  0  0  0  0  0  0  0  0
    2.8907  -10.5792    2.8685 C   0  0  0  0  0  0  0  0  0  0  0  0
    2.2383  -11.4414    3.7610 C   0  0  0  0  0  0  0  0  0  0  0  0
    1.3065  -10.9266    4.6809 C   0  0  0  0  0  0  0  0  0  0  0  0
    1.0315   -9.5451    4.7217 C   0  0  0  0  0  0  0  0  0  0  0  0
    1.6801   -8.6563    3.8268 C   0  0  0  0  0  0  0  0  0  0  0  0
    1.4229   -7.2526    3.8367 C   0  0  0  0  0  0  0  0  0  0  0  0
    0.4248   -6.6383    4.8087 C   0  0  0  0  0  0  0  0  0  0  0  0
    3.5402   -6.0398    1.0750 C   0  0  2  0  0  0  0  0  0  0  0  0
    7.3307   -9.1171    1.8977 H   0  0  0  0  0  0  0  0  0  0  0  0
    7.6133   -7.5164    2.5778 H   0  0  0  0  0  0  0  0  0  0  0  0
    8.0317   -7.8469    0.8883 H   0  0  0  0  0  0  0  0  0  0  0  0
    5.9898   -5.8225    1.9301 H   0  0  0  0  0  0  0  0  0  0  0  0
    4.7883   -6.6081   -0.6369 H   0  0  0  0  0  0  0  0  0  0  0  0
    3.7466   -1.8756   -0.2756 H   0  0  0  0  0  0  0  0  0  0  0  0
    0.6340   -0.1540    1.8460 H   0  0  0  0  0  0  0  0  0  0  0  0
    1.6731    1.1180    2.5200 H   0  0  0  0  0  0  0  0  0  0  0  0
    1.4980   -0.4369    3.3665 H   0  0  0  0  0  0  0  0  0  0  0  0
    5.4293   -3.6993    4.3618 H   0  0  0  0  0  0  0  0  0  0  0  0
    3.8317   -3.0928    3.9568 H   0  0  0  0  0  0  0  0  0  0  0  0
    5.1925   -2.7884    2.8763 H   0  0  0  0  0  0  0  0  0  0  0  0
    2.0625   -4.3641    3.5785 H   0  0  0  0  0  0  0  0  0  0  0  0
    1.2470   -4.6739    2.0662 H   0  0  0  0  0  0  0  0  0  0  0  0
    3.5849  -10.9931    2.1544 H   0  0  0  0  0  0  0  0  0  0  0  0
    2.4549  -12.5005    3.7325 H   0  0  0  0  0  0  0  0  0  0  0  0
    0.7979  -11.6007    5.3551 H   0  0  0  0  0  0  0  0  0  0  0  0
    0.3065   -9.2058    5.4433 H   0  0  0  0  0  0  0  0  0  0  0  0
   -0.5556   -7.0918    4.6607 H   0  0  0  0  0  0  0  0  0  0  0  0
    0.3183   -5.5640    4.6788 H   0  0  0  0  0  0  0  0  0  0  0  0
    0.7230   -6.8263    5.8415 H   0  0  0  0  0  0  0  0  0  0  0  0
    2.7364   -6.0367    0.3387 H   0  0  0  0  0  0  0  0  0  0  0  0
    3.8974   -8.7843    1.3396 H   0  0  0  0  0  0  0  0  0  0  0  0
  1  2  1  0
  1 29  1  0
  1 30  1  0
  1 31  1  0
  2  3  1  0
  3  4  1  0
  3 32  1  0
  4 28  1  0
  4  5  1  0
  4 33  1  6
  5  6  2  0
  5  7  1  0
  7  8  2  3
  7 13  1  0
  8  9  1  0
  8 34  1  0
  9 10  1  0
 10 11  1  0
 10 12  2  0
 11 35  1  0
 11 36  1  0
 11 37  1  0
 13 28  1  0
 13 14  1  1
 13 16  1  0
 14 15  1  0
 15 38  1  0
 15 39  1  0
 15 40  1  0
 16 17  1  0
 16 41  1  0
 16 42  1  0
 17 26  1  0
 17 18  2  0
 18 19  1  0
 18 28  1  0
 19 20  2  0
 19 51  1  0
 20 25  1  0
 20 21  1  0
 21 22  2  0
 21 43  1  0
 22 23  1  0
 22 44  1  0
 23 24  2  0
 23 45  1  0
 24 25  1  0
 24 46  1  0
 25 26  2  0
 26 27  1  0
 27 47  1  0
 27 48  1  0
 27 49  1  0
 28 50  1  6
M  CHG  1  19   1
M  END
>  <i_m_ct_stereo_status>  (119) 
1

>  <s_m_source_file>  (119) 
/var/tmp/pbs.5076255.sched01/tmpr7id634h/0ay6m0hv_.sdf

>  <i_m_source_file_index>  (119) 
52

>  <i_lp_mmshare_version>  (119) 
48012

>  <i_f3d_flags>  (119) 
0

>  <s_epik_input>  (119) 
W0NIM11DKD1PKU8vW0NIXT1DMVxDKD1PKVtDQEBIXShbTkhdT1tDSDNdKVtDQEhdKFtDQEBdMTJPW0NIM10pYzNjKFtDSDJdMiljKFtDSDNdKWM0YyhuMylbY0hdW2NIXVtjSF1bY0hdNA==

>  <s_epik_cmdline>  (119) 
J2VwaWtfcHl0aG9uJywgJy1waHQnLCAnMi4wJywgJy1waCcsICc3LjAnLCAnLXRuJywgJzgnLCAnLW1hJywgJzIwMCcsICctaW1hZScsICc8aW5maWxlLm1hZT4nLCAnLW9tYWUnLCAnPG91dGZpbGUubWFlPic=

>  <r_epik_Ionization_Penalty>  (119) 
1.61015

>  <r_epik_Ionization_Penalty_Charging>  (119) 
1.61015

>  <r_epik_Ionization_Penalty_Neutral>  (119) 
4.34472e-06

>  <r_epik_State_Penalty>  (119) 
1.70904

>  <r_epik_Charging_Adjusted_Penalty>  (119) 
3.31919

>  <i_epik_Tot_Q>  (119) 
1

>  <i_epik_Tot_abs_Q>  (119) 
1

>  <s_epik_Chemistry_Notes>  (119) 
This compound has a N-S or N-O group and may undergo hydrolysis at high or low pH.

>  <s_lp_Force_Field>  (119) 
OPLS3e

>  <r_lp_Energy>  (119) 
43.2504

>  <b_lp_Chiralities_Consistent>  (119) 
1

>  <s_lp_Variant>  (119) 
33:0-2

>  <s_i_glide_gridfile>  (119) 
pfpi4k_grid

>  <i_i_glide_lignum>  (119) 
52

>  <i_i_glide_rotatable_bonds>  (119) 
5

>  <r_i_docking_score>  (119) 
-3.52094

>  <r_i_glide_ligand_efficiency>  (119) 
-0.125748

>  <r_i_glide_ligand_efficiency_sa>  (119) 
-0.381844

>  <r_i_glide_ligand_efficiency_ln>  (119) 
-0.812736

>  <r_i_glide_gscore>  (119) 
-3.52094

>  <r_i_glide_lipo>  (119) 
-0.263563

>  <r_i_glide_hbond>  (119) 
0

>  <r_i_glide_metal>  (119) 
-0

>  <r_i_glide_rewards>  (119) 
-1.31853

>  <r_i_glide_evdw>  (119) 
-25.3408

>  <r_i_glide_ecoul>  (119) 
-5.81514

>  <r_i_glide_erotb>  (119) 
0.264363

>  <r_i_glide_esite>  (119) 
-0.0639

>  <r_i_glide_emodel>  (119) 
-44.0317

>  <r_i_glide_energy>  (119) 
-31.1559

>  <r_i_glide_einternal>  (119) 
2.72562

>  <r_i_glide_intrahb_reward>  (119) 
-0.5

>  <i_i_glide_confnum>  (119) 
1

>  <i_i_glide_posenum>  (119) 
2

>  <r_i_glide_eff_state_penalty>  (119) 
0

>  <ligand_id>  (119) 
33

>  <original_smiles>  (119) 
CONC1C(=O)C(=COC(C)=O)C2(OC)Cc3c(nc4ccccc4c3C)C12

>  <smiles>  (119) 
[H]C(OC(=O)C([H])([H])[H])=C1C(=O)C([H])(N([H])OC([H])([H])[H])C2([H])c3c(c(C([H])([H])[H])c4c([H])c([H])c([H])c([H])c4[n+]3[H])C([H])([H])C12OC([H])([H])[H]

$$$$
34:0:0
     RDKit          3D

 15 16  0  0  1  0  0  0  0  0999 V2000
    5.7257   -2.5193   -0.2822 C   0  0  0  0  0  0  0  0  0  0  0  0
    5.9162   -1.4598   -1.1410 N   0  0  0  0  0  0  0  0  0  0  0  0
    4.8891   -1.6792   -1.9449 C   0  0  0  0  0  0  0  0  0  0  0  0
    4.1826   -2.7289   -1.6411 N   0  0  0  0  0  0  0  0  0  0  0  0
    4.6939   -3.3334   -0.5511 N   0  0  0  0  0  0  0  0  0  0  0  0
    3.0517   -3.0373   -2.4529 C   0  0  0  0  0  0  0  0  0  0  0  0
    2.9324   -1.7180   -3.2578 C   0  0  0  0  0  0  0  0  0  0  0  0
    4.3092   -1.0204   -3.1371 C   0  0  0  0  0  0  0  0  0  0  0  0
    6.3685   -2.6984    0.5672 H   0  0  0  0  0  0  0  0  0  0  0  0
    3.3094   -3.8624   -3.1131 H   0  0  0  0  0  0  0  0  0  0  0  0
    2.1785   -3.2817   -1.8513 H   0  0  0  0  0  0  0  0  0  0  0  0
    2.5662   -1.8314   -4.2827 H   0  0  0  0  0  0  0  0  0  0  0  0
    2.2141   -1.0915   -2.7285 H   0  0  0  0  0  0  0  0  0  0  0  0
    4.2477    0.0617   -3.0103 H   0  0  0  0  0  0  0  0  0  0  0  0
    4.9258   -1.2665   -4.0013 H   0  0  0  0  0  0  0  0  0  0  0  0
  1  5  2  0
  1  2  1  0
  1  9  1  0
  2  3  2  0
  3  8  1  0
  3  4  1  0
  4  5  1  0
  4  6  1  0
  6  7  1  0
  6 10  1  0
  6 11  1  0
  7  8  1  0
  7 12  1  0
  7 13  1  0
  8 14  1  0
  8 15  1  0
M  END
>  <i_m_ct_stereo_status>  (120) 
1

>  <s_m_source_file>  (120) 
/var/tmp/pbs.5076255.sched01/tmpr7id634h/0ay6m0hv_.sdf

>  <i_m_source_file_index>  (120) 
53

>  <i_lp_mmshare_version>  (120) 
48012

>  <i_f3d_flags>  (120) 
0

>  <s_epik_input>  (120) 
bjFbY0hdbm4oYzEyKVtDSDJdW0NIMl1bQ0gyXTI=

>  <s_epik_cmdline>  (120) 
J2VwaWtfcHl0aG9uJywgJy1waHQnLCAnMi4wJywgJy1waCcsICc3LjAnLCAnLXRuJywgJzgnLCAnLW1hJywgJzIwMCcsICctaW1hZScsICc8aW5maWxlLm1hZT4nLCAnLW9tYWUnLCAnPG91dGZpbGUubWFlPic=

>  <r_lp_tautomer_probability>  (120) 
1

>  <r_epik_Ionization_Penalty>  (120) 
0.000434029

>  <r_epik_Ionization_Penalty_Charging>  (120) 
0

>  <r_epik_Ionization_Penalty_Neutral>  (120) 
0.000434029

>  <r_epik_State_Penalty>  (120) 
0.000267475

>  <r_epik_Charging_Adjusted_Penalty>  (120) 
0.000267475

>  <i_epik_Tot_Q>  (120) 
0

>  <i_epik_Tot_abs_Q>  (120) 
0

>  <s_lp_Force_Field>  (120) 
OPLS3e

>  <r_lp_Energy>  (120) 
9.15258

>  <b_lp_Chiralities_Consistent>  (120) 
1

>  <s_lp_Variant>  (120) 
34:0-1

>  <s_i_glide_gridfile>  (120) 
pfpi4k_grid

>  <i_i_glide_lignum>  (120) 
53

>  <i_i_glide_rotatable_bonds>  (120) 
0

>  <r_i_docking_score>  (120) 
-3.47156

>  <r_i_glide_ligand_efficiency>  (120) 
-0.433945

>  <r_i_glide_ligand_efficiency_sa>  (120) 
-0.867889

>  <r_i_glide_ligand_efficiency_ln>  (120) 
-1.12733

>  <r_i_glide_gscore>  (120) 
-3.47156

>  <r_i_glide_lipo>  (120) 
-0.146686

>  <r_i_glide_hbond>  (120) 
-0.0892

>  <r_i_glide_metal>  (120) 
-0

>  <r_i_glide_rewards>  (120) 
-2.25

>  <r_i_glide_evdw>  (120) 
-12.9827

>  <r_i_glide_ecoul>  (120) 
-1.87405

>  <r_i_glide_erotb>  (120) 
0

>  <r_i_glide_esite>  (120) 
-0.0554287

>  <r_i_glide_emodel>  (120) 
-18.2127

>  <r_i_glide_energy>  (120) 
-14.8567

>  <r_i_glide_einternal>  (120) 
0

>  <r_i_glide_intrahb_reward>  (120) 
-0

>  <i_i_glide_confnum>  (120) 
1

>  <i_i_glide_posenum>  (120) 
22

>  <r_i_glide_eff_state_penalty>  (120) 
0

>  <ligand_id>  (120) 
34

>  <original_smiles>  (120) 
c1nc2n(n1)CCC2

>  <smiles>  (120) 
[H]c1nc2n(n1)C([H])([H])C([H])([H])C2([H])[H]

$$$$
34:0:1
     RDKit          3D

 15 16  0  0  1  0  0  0  0  0999 V2000
    4.2122   -4.0715    0.1679 C   0  0  0  0  0  0  0  0  0  0  0  0
    2.9454   -3.7737   -0.2876 N   0  0  0  0  0  0  0  0  0  0  0  0
    3.2730   -3.3734   -1.5057 C   0  0  0  0  0  0  0  0  0  0  0  0
    4.5501   -3.4247   -1.7651 N   0  0  0  0  0  0  0  0  0  0  0  0
    5.2257   -3.8638   -0.6885 N   0  0  0  0  0  0  0  0  0  0  0  0
    4.9924   -3.0436   -3.0684 C   0  0  0  0  0  0  0  0  0  0  0  0
    3.6295   -3.0229   -3.8133 C   0  0  0  0  0  0  0  0  0  0  0  0
    2.5448   -2.9003   -2.7044 C   0  0  0  0  0  0  0  0  0  0  0  0
    4.3976   -4.4524    1.1589 H   0  0  0  0  0  0  0  0  0  0  0  0
    5.4185   -2.0456   -3.0091 H   0  0  0  0  0  0  0  0  0  0  0  0
    5.7178   -3.7472   -3.4705 H   0  0  0  0  0  0  0  0  0  0  0  0
    3.5451   -2.2637   -4.5931 H   0  0  0  0  0  0  0  0  0  0  0  0
    3.5069   -3.9968   -4.2943 H   0  0  0  0  0  0  0  0  0  0  0  0
    1.6565   -3.4987   -2.8938 H   0  0  0  0  0  0  0  0  0  0  0  0
    2.2608   -1.8589   -2.5511 H   0  0  0  0  0  0  0  0  0  0  0  0
  1  5  2  0
  1  2  1  0
  1  9  1  0
  2  3  2  0
  3  8  1  0
  3  4  1  0
  4  5  1  0
  4  6  1  0
  6  7  1  0
  6 10  1  0
  6 11  1  0
  7  8  1  0
  7 12  1  0
  7 13  1  0
  8 14  1  0
  8 15  1  0
M  END
>  <i_m_ct_stereo_status>  (121) 
1

>  <s_m_source_file>  (121) 
/var/tmp/pbs.5076255.sched01/tmpr7id634h/0ay6m0hv_.sdf

>  <i_m_source_file_index>  (121) 
53

>  <i_lp_mmshare_version>  (121) 
48012

>  <i_f3d_flags>  (121) 
0

>  <s_epik_input>  (121) 
bjFbY0hdbm4oYzEyKVtDSDJdW0NIMl1bQ0gyXTI=

>  <s_epik_cmdline>  (121) 
J2VwaWtfcHl0aG9uJywgJy1waHQnLCAnMi4wJywgJy1waCcsICc3LjAnLCAnLXRuJywgJzgnLCAnLW1hJywgJzIwMCcsICctaW1hZScsICc8aW5maWxlLm1hZT4nLCAnLW9tYWUnLCAnPG91dGZpbGUubWFlPic=

>  <r_lp_tautomer_probability>  (121) 
1

>  <r_epik_Ionization_Penalty>  (121) 
0.000434029

>  <r_epik_Ionization_Penalty_Charging>  (121) 
0

>  <r_epik_Ionization_Penalty_Neutral>  (121) 
0.000434029

>  <r_epik_State_Penalty>  (121) 
0.000267475

>  <r_epik_Charging_Adjusted_Penalty>  (121) 
0.000267475

>  <i_epik_Tot_Q>  (121) 
0

>  <i_epik_Tot_abs_Q>  (121) 
0

>  <s_lp_Force_Field>  (121) 
OPLS3e

>  <r_lp_Energy>  (121) 
9.15258

>  <b_lp_Chiralities_Consistent>  (121) 
1

>  <s_lp_Variant>  (121) 
34:0-1

>  <s_i_glide_gridfile>  (121) 
pfpi4k_grid

>  <i_i_glide_lignum>  (121) 
53

>  <i_i_glide_rotatable_bonds>  (121) 
0

>  <r_i_docking_score>  (121) 
-3.44776

>  <r_i_glide_ligand_efficiency>  (121) 
-0.43097

>  <r_i_glide_ligand_efficiency_sa>  (121) 
-0.861939

>  <r_i_glide_ligand_efficiency_ln>  (121) 
-1.1196

>  <r_i_glide_gscore>  (121) 
-3.44776

>  <r_i_glide_lipo>  (121) 
-0.308936

>  <r_i_glide_hbond>  (121) 
0

>  <r_i_glide_metal>  (121) 
-0

>  <r_i_glide_rewards>  (121) 
-2.39349

>  <r_i_glide_evdw>  (121) 
-14.8574

>  <r_i_glide_ecoul>  (121) 
0.00251575

>  <r_i_glide_erotb>  (121) 
0

>  <r_i_glide_esite>  (121) 
-0.00283377

>  <r_i_glide_emodel>  (121) 
-18.0736

>  <r_i_glide_energy>  (121) 
-14.8549

>  <r_i_glide_einternal>  (121) 
0

>  <r_i_glide_intrahb_reward>  (121) 
-0

>  <i_i_glide_confnum>  (121) 
1

>  <i_i_glide_posenum>  (121) 
5

>  <r_i_glide_eff_state_penalty>  (121) 
0

>  <ligand_id>  (121) 
34

>  <original_smiles>  (121) 
c1nc2n(n1)CCC2

>  <smiles>  (121) 
[H]c1nc2n(n1)C([H])([H])C([H])([H])C2([H])[H]

$$$$
34:0:2
     RDKit          3D

 15 16  0  0  1  0  0  0  0  0999 V2000
    3.8204   -2.6735    0.1592 C   0  0  0  0  0  0  0  0  0  0  0  0
    2.9999   -3.4803   -0.6026 N   0  0  0  0  0  0  0  0  0  0  0  0
    3.0825   -2.8129   -1.7418 C   0  0  0  0  0  0  0  0  0  0  0  0
    3.8299   -1.7450   -1.6855 N   0  0  0  0  0  0  0  0  0  0  0  0
    4.3584   -1.6089   -0.4573 N   0  0  0  0  0  0  0  0  0  0  0  0
    3.9830   -0.9639   -2.8676 C   0  0  0  0  0  0  0  0  0  0  0  0
    3.4189   -1.9585   -3.9100 C   0  0  0  0  0  0  0  0  0  0  0  0
    2.5466   -2.9669   -3.1132 C   0  0  0  0  0  0  0  0  0  0  0  0
    4.0427   -2.8844    1.1931 H   0  0  0  0  0  0  0  0  0  0  0  0
    3.3604   -0.0758   -2.7898 H   0  0  0  0  0  0  0  0  0  0  0  0
    5.0145   -0.6802   -3.0298 H   0  0  0  0  0  0  0  0  0  0  0  0
    2.8876   -1.4667   -4.7212 H   0  0  0  0  0  0  0  0  0  0  0  0
    4.2624   -2.5097   -4.3345 H   0  0  0  0  0  0  0  0  0  0  0  0
    2.6335   -3.9864   -3.4785 H   0  0  0  0  0  0  0  0  0  0  0  0
    1.5026   -2.6613   -3.1109 H   0  0  0  0  0  0  0  0  0  0  0  0
  1  5  2  0
  1  2  1  0
  1  9  1  0
  2  3  2  0
  3  8  1  0
  3  4  1  0
  4  5  1  0
  4  6  1  0
  6  7  1  0
  6 10  1  0
  6 11  1  0
  7  8  1  0
  7 12  1  0
  7 13  1  0
  8 14  1  0
  8 15  1  0
M  END
>  <i_m_ct_stereo_status>  (122) 
1

>  <s_m_source_file>  (122) 
/var/tmp/pbs.5076255.sched01/tmpr7id634h/0ay6m0hv_.sdf

>  <i_m_source_file_index>  (122) 
53

>  <i_lp_mmshare_version>  (122) 
48012

>  <i_f3d_flags>  (122) 
0

>  <s_epik_input>  (122) 
bjFbY0hdbm4oYzEyKVtDSDJdW0NIMl1bQ0gyXTI=

>  <s_epik_cmdline>  (122) 
J2VwaWtfcHl0aG9uJywgJy1waHQnLCAnMi4wJywgJy1waCcsICc3LjAnLCAnLXRuJywgJzgnLCAnLW1hJywgJzIwMCcsICctaW1hZScsICc8aW5maWxlLm1hZT4nLCAnLW9tYWUnLCAnPG91dGZpbGUubWFlPic=

>  <r_lp_tautomer_probability>  (122) 
1

>  <r_epik_Ionization_Penalty>  (122) 
0.000434029

>  <r_epik_Ionization_Penalty_Charging>  (122) 
0

>  <r_epik_Ionization_Penalty_Neutral>  (122) 
0.000434029

>  <r_epik_State_Penalty>  (122) 
0.000267475

>  <r_epik_Charging_Adjusted_Penalty>  (122) 
0.000267475

>  <i_epik_Tot_Q>  (122) 
0

>  <i_epik_Tot_abs_Q>  (122) 
0

>  <s_lp_Force_Field>  (122) 
OPLS3e

>  <r_lp_Energy>  (122) 
9.15258

>  <b_lp_Chiralities_Consistent>  (122) 
1

>  <s_lp_Variant>  (122) 
34:0-1

>  <s_i_glide_gridfile>  (122) 
pfpi4k_grid

>  <i_i_glide_lignum>  (122) 
53

>  <i_i_glide_rotatable_bonds>  (122) 
0

>  <r_i_docking_score>  (122) 
-3.34205

>  <r_i_glide_ligand_efficiency>  (122) 
-0.417756

>  <r_i_glide_ligand_efficiency_sa>  (122) 
-0.835512

>  <r_i_glide_ligand_efficiency_ln>  (122) 
-1.08528

>  <r_i_glide_gscore>  (122) 
-3.34205

>  <r_i_glide_lipo>  (122) 
-0.258023

>  <r_i_glide_hbond>  (122) 
0

>  <r_i_glide_metal>  (122) 
-0

>  <r_i_glide_rewards>  (122) 
-2.25

>  <r_i_glide_evdw>  (122) 
-15.5701

>  <r_i_glide_ecoul>  (122) 
0.253187

>  <r_i_glide_erotb>  (122) 
0

>  <r_i_glide_esite>  (122) 
-0.0934986

>  <r_i_glide_emodel>  (122) 
-18.5311

>  <r_i_glide_energy>  (122) 
-15.3169

>  <r_i_glide_einternal>  (122) 
0

>  <r_i_glide_intrahb_reward>  (122) 
-0

>  <i_i_glide_confnum>  (122) 
2

>  <i_i_glide_posenum>  (122) 
25

>  <r_i_glide_eff_state_penalty>  (122) 
0

>  <ligand_id>  (122) 
34

>  <original_smiles>  (122) 
c1nc2n(n1)CCC2

>  <smiles>  (122) 
[H]c1nc2n(n1)C([H])([H])C([H])([H])C2([H])[H]

$$$$
35:0:0
     RDKit          3D

 53 57  0  0  1  0  0  0  0  0999 V2000
    2.2411   -0.2570    4.8338 C   0  0  0  0  0  0  0  0  0  0  0  0
    2.1212   -1.5174    4.1670 O   0  0  0  0  0  0  0  0  0  0  0  0
    3.0121   -2.0037    3.1324 C   0  0  1  0  0  0  0  0  0  0  0  0
    3.3826   -0.8808    2.1687 C   0  0  0  0  0  0  0  0  0  0  0  0
    4.1373   -0.8960    1.0656 C   0  0  0  0  0  0  0  0  0  0  0  0
    4.7741   -2.0580    0.3349 C   0  0  1  0  0  0  0  0  0  0  0  0
    6.3149   -1.9545    0.3008 C   0  0  0  0  0  0  0  0  0  0  0  0
    6.3186   -3.4593    0.4815 C   0  0  0  0  0  0  0  0  0  0  0  0
    4.9934   -3.3288    1.2644 C   0  0  1  0  0  0  0  0  0  0  0  0
    5.3380   -3.1487    2.7869 C   0  0  0  0  0  0  0  0  0  0  0  0
    4.2863   -2.6170    3.7894 C   0  0  1  0  0  0  0  0  0  0  0  0
    4.9947   -1.7108    4.8113 C   0  0  0  0  0  0  0  0  0  0  0  0
    4.0486   -4.5374    1.1383 C   0  0  1  0  0  0  0  0  0  0  0  0
    2.8580   -4.5330    2.1321 C   0  0  0  0  0  0  0  0  0  0  0  0
    2.1860   -3.1467    2.3998 C   0  0  0  0  0  0  0  0  0  0  0  0
    3.5822   -4.8321   -0.2853 C   0  0  0  0  0  0  0  0  0  0  0  0
    2.5881   -3.8777   -0.7448 N   0  0  0  0  0  0  0  0  0  0  0  0
    1.3102   -4.4619   -1.1373 C   0  0  0  0  0  0  0  0  0  0  0  0
    3.1254   -2.8663   -1.5656 C   0  0  0  0  0  0  0  0  0  0  0  0
    2.6296   -2.6990   -2.8811 C   0  0  0  0  0  0  0  0  0  0  0  0
    3.1180   -1.6772   -3.7103 C   0  0  0  0  0  0  0  0  0  0  0  0
    4.1006   -0.8129   -3.2336 C   0  0  0  0  0  0  0  0  0  0  0  0
    4.6038   -0.9828   -1.9431 C   0  0  0  0  0  0  0  0  0  0  0  0
    4.1542   -2.0207   -1.0895 C   0  0  0  0  0  0  0  0  0  0  0  0
    1.3712   -0.1337    5.4656 H   0  0  0  0  0  0  0  0  0  0  0  0
    2.2347    0.5756    4.1631 H   0  0  0  0  0  0  0  0  0  0  0  0
    3.0718   -0.1283    5.4635 H   0  0  0  0  0  0  0  0  0  0  0  0
    2.9894    0.0855    2.3602 H   0  0  0  0  0  0  0  0  0  0  0  0
    4.2728    0.0655    0.5839 H   0  0  0  0  0  0  0  0  0  0  0  0
    6.7678   -1.6367   -0.6388 H   0  0  0  0  0  0  0  0  0  0  0  0
    6.7399   -1.4014    1.1373 H   0  0  0  0  0  0  0  0  0  0  0  0
    6.2368   -3.9878   -0.4671 H   0  0  0  0  0  0  0  0  0  0  0  0
    7.1494   -3.8363    1.0732 H   0  0  0  0  0  0  0  0  0  0  0  0
    5.7271   -4.0998    3.1764 H   0  0  0  0  0  0  0  0  0  0  0  0
    6.1969   -2.4832    2.8568 H   0  0  0  0  0  0  0  0  0  0  0  0
    3.9605   -3.4701    4.3858 H   0  0  0  0  0  0  0  0  0  0  0  0
    5.2024   -0.7321    4.3821 H   0  0  0  0  0  0  0  0  0  0  0  0
    5.9352   -2.1316    5.1568 H   0  0  0  0  0  0  0  0  0  0  0  0
    4.4147   -1.6292    5.6916 H   0  0  0  0  0  0  0  0  0  0  0  0
    4.6308   -5.4171    1.4117 H   0  0  0  0  0  0  0  0  0  0  0  0
    2.1015   -5.2356    1.7770 H   0  0  0  0  0  0  0  0  0  0  0  0
    3.1646   -4.9729    3.0794 H   0  0  0  0  0  0  0  0  0  0  0  0
    1.2890   -3.3748    2.9849 H   0  0  0  0  0  0  0  0  0  0  0  0
    1.7907   -2.7525    1.4585 H   0  0  0  0  0  0  0  0  0  0  0  0
    4.4149   -4.8808   -0.9886 H   0  0  0  0  0  0  0  0  0  0  0  0
    3.1566   -5.8319   -0.3046 H   0  0  0  0  0  0  0  0  0  0  0  0
    0.5729   -3.7123   -1.4134 H   0  0  0  0  0  0  0  0  0  0  0  0
    0.9302   -5.1104   -0.3213 H   0  0  0  0  0  0  0  0  0  0  0  0
    1.3944   -5.1049   -1.9707 H   0  0  0  0  0  0  0  0  0  0  0  0
    1.8596   -3.3368   -3.2919 H   0  0  0  0  0  0  0  0  0  0  0  0
    2.7228   -1.5505   -4.7018 H   0  0  0  0  0  0  0  0  0  0  0  0
    4.4600   -0.0073   -3.8575 H   0  0  0  0  0  0  0  0  0  0  0  0
    5.3299   -0.2777   -1.5820 H   0  0  0  0  0  0  0  0  0  0  0  0
  1  2  1  0
  1 25  1  0
  1 26  1  0
  1 27  1  0
  3  2  1  1
  3 11  1  0
  3 15  1  0
  3  4  1  0
  4  5  2  0
  4 28  1  0
  5  6  1  0
  5 29  1  0
  6  9  1  0
  6 24  1  0
  6  7  1  6
  7  8  1  0
  7 30  1  0
  7 31  1  0
  9  8  1  6
  8 32  1  0
  8 33  1  0
  9 10  1  0
  9 13  1  0
 10 11  1  0
 10 34  1  0
 10 35  1  0
 11 12  1  0
 11 36  1  1
 12 37  1  0
 12 38  1  0
 12 39  1  0
 13 14  1  0
 13 16  1  0
 13 40  1  1
 14 15  1  0
 14 41  1  0
 14 42  1  0
 15 43  1  0
 15 44  1  0
 16 17  1  0
 16 45  1  0
 16 46  1  0
 17 18  1  0
 17 19  1  0
 18 47  1  0
 18 48  1  0
 18 49  1  0
 19 24  2  0
 19 20  1  0
 20 21  2  0
 20 50  1  0
 21 22  1  0
 21 51  1  0
 22 23  2  0
 22 52  1  0
 23 24  1  0
 23 53  1  0
M  END
>  <i_m_ct_stereo_status>  (123) 
1

>  <s_m_source_file>  (123) 
/var/tmp/pbs.5076255.sched01/tmpr7id634h/0ay6m0hv_.sdf

>  <i_m_source_file_index>  (123) 
54

>  <i_lp_mmshare_version>  (123) 
48012

>  <i_f3d_flags>  (123) 
0

>  <s_epik_input>  (123) 
W0NIM11PW0NAQF0oW0NIXT1bQ0hdMSkoW0NAQEhdKFtDSDJdMilbQ0gzXSlbQ0gyXVtDSDJdW0NASF0oW0NAXTIoW0NAQF0xMzQpW0NIMl1bQ0gyXTMpW0NIMl1OKFtDSDNdKWM1YzRbY0hdW2NIXVtjSF1bY0hdNQ==

>  <s_epik_cmdline>  (123) 
J2VwaWtfcHl0aG9uJywgJy1waHQnLCAnMi4wJywgJy1waCcsICc3LjAnLCAnLXRuJywgJzgnLCAnLW1hJywgJzIwMCcsICctaW1hZScsICc8aW5maWxlLm1hZT4nLCAnLW9tYWUnLCAnPG91dGZpbGUubWFlPic=

>  <r_epik_Ionization_Penalty>  (123) 
0.371074

>  <r_epik_Ionization_Penalty_Charging>  (123) 
0

>  <r_epik_Ionization_Penalty_Neutral>  (123) 
0.371074

>  <r_epik_State_Penalty>  (123) 
0.368519

>  <r_epik_Charging_Adjusted_Penalty>  (123) 
0.368519

>  <i_epik_Tot_Q>  (123) 
0

>  <i_epik_Tot_abs_Q>  (123) 
0

>  <s_lp_Force_Field>  (123) 
OPLS3e

>  <r_lp_Energy>  (123) 
97.0581

>  <b_lp_Chiralities_Consistent>  (123) 
1

>  <s_lp_Variant>  (123) 
35:0-1

>  <s_i_glide_gridfile>  (123) 
pfpi4k_grid

>  <i_i_glide_lignum>  (123) 
54

>  <i_i_glide_rotatable_bonds>  (123) 
1

>  <r_i_docking_score>  (123) 
-2.78611

>  <r_i_glide_ligand_efficiency>  (123) 
-0.116088

>  <r_i_glide_ligand_efficiency_sa>  (123) 
-0.334856

>  <r_i_glide_ligand_efficiency_ln>  (123) 
-0.666844

>  <r_i_glide_gscore>  (123) 
-2.78611

>  <r_i_glide_lipo>  (123) 
-0.690941

>  <r_i_glide_hbond>  (123) 
0

>  <r_i_glide_metal>  (123) 
-0

>  <r_i_glide_rewards>  (123) 
-1.2036

>  <r_i_glide_evdw>  (123) 
-20.6242

>  <r_i_glide_ecoul>  (123) 
1.1955

>  <r_i_glide_erotb>  (123) 
0

>  <r_i_glide_esite>  (123) 
-0.0396837

>  <r_i_glide_emodel>  (123) 
-14.8321

>  <r_i_glide_energy>  (123) 
-19.4287

>  <r_i_glide_einternal>  (123) 
12.7661

>  <r_i_glide_intrahb_reward>  (123) 
-0

>  <i_i_glide_confnum>  (123) 
1

>  <i_i_glide_posenum>  (123) 
34

>  <r_i_glide_eff_state_penalty>  (123) 
0

>  <ligand_id>  (123) 
35

>  <original_smiles>  (123) 
COC12C=CC34CCC3(CC1C)C(CC2)CN(C)c1ccccc14

>  <smiles>  (123) 
[H]C1=C([H])C23c4c([H])c([H])c([H])c([H])c4N(C([H])([H])[H])C([H])([H])C4([H])C([H])([H])C([H])([H])C1(OC([H])([H])[H])C([H])(C([H])([H])[H])C([H])([H])C24C([H])([H])C3([H])[H]

$$$$
35:0:1
     RDKit          3D

 53 57  0  0  1  0  0  0  0  0999 V2000
    1.6594   -2.4116    5.0142 C   0  0  0  0  0  0  0  0  0  0  0  0
    2.0947   -1.5203    3.9725 O   0  0  0  0  0  0  0  0  0  0  0  0
    2.9664   -1.9873    2.9188 C   0  0  1  0  0  0  0  0  0  0  0  0
    3.3212   -0.7693    2.0567 C   0  0  0  0  0  0  0  0  0  0  0  0
    4.0832   -0.7023    0.9346 C   0  0  0  0  0  0  0  0  0  0  0  0
    4.7315   -1.8388    0.1394 C   0  0  1  0  0  0  0  0  0  0  0  0
    6.2669   -1.7140    0.0913 C   0  0  0  0  0  0  0  0  0  0  0  0
    6.2981   -3.2257    0.2372 C   0  0  0  0  0  0  0  0  0  0  0  0
    4.9796   -3.1230    1.0244 C   0  0  1  0  0  0  0  0  0  0  0  0
    5.3536   -2.9761    2.5305 C   0  0  0  0  0  0  0  0  0  0  0  0
    4.2908   -2.5135    3.5383 C   0  0  1  0  0  0  0  0  0  0  0  0
    4.8879   -1.5091    4.5578 C   0  0  0  0  0  0  0  0  0  0  0  0
    4.0484   -4.3384    0.8805 C   0  0  1  0  0  0  0  0  0  0  0  0
    2.8443   -4.3718    1.8363 C   0  0  0  0  0  0  0  0  0  0  0  0
    2.1669   -3.0151    2.0695 C   0  0  0  0  0  0  0  0  0  0  0  0
    3.6045   -4.6124   -0.5663 C   0  0  0  0  0  0  0  0  0  0  0  0
    2.5939   -3.6945   -1.0464 N   0  0  0  0  0  0  0  0  0  0  0  0
    1.2902   -4.2313   -1.4254 C   0  0  0  0  0  0  0  0  0  0  0  0
    3.1115   -2.6524   -1.8105 C   0  0  0  0  0  0  0  0  0  0  0  0
    2.6391   -2.4360   -3.1288 C   0  0  0  0  0  0  0  0  0  0  0  0
    3.1106   -1.3876   -3.9239 C   0  0  0  0  0  0  0  0  0  0  0  0
    4.0906   -0.5284   -3.4125 C   0  0  0  0  0  0  0  0  0  0  0  0
    4.5905   -0.7357   -2.1242 C   0  0  0  0  0  0  0  0  0  0  0  0
    4.1416   -1.7870   -1.2971 C   0  0  0  0  0  0  0  0  0  0  0  0
    1.2097   -1.8235    5.8138 H   0  0  0  0  0  0  0  0  0  0  0  0
    2.4569   -2.9812    5.4866 H   0  0  0  0  0  0  0  0  0  0  0  0
    0.8972   -3.1171    4.6875 H   0  0  0  0  0  0  0  0  0  0  0  0
    2.9170    0.1729    2.4168 H   0  0  0  0  0  0  0  0  0  0  0  0
    4.2347    0.2693    0.4859 H   0  0  0  0  0  0  0  0  0  0  0  0
    6.7267   -1.4328   -0.8439 H   0  0  0  0  0  0  0  0  0  0  0  0
    6.7203   -1.1907    0.9372 H   0  0  0  0  0  0  0  0  0  0  0  0
    6.2183   -3.7250   -0.7311 H   0  0  0  0  0  0  0  0  0  0  0  0
    7.1389   -3.6065    0.8205 H   0  0  0  0  0  0  0  0  0  0  0  0
    5.7316   -3.9313    2.8935 H   0  0  0  0  0  0  0  0  0  0  0  0
    6.2038   -2.3113    2.6470 H   0  0  0  0  0  0  0  0  0  0  0  0
    4.0792   -3.4188    4.0939 H   0  0  0  0  0  0  0  0  0  0  0  0
    5.2030   -0.5697    4.1003 H   0  0  0  0  0  0  0  0  0  0  0  0
    5.7499   -1.9433    5.0595 H   0  0  0  0  0  0  0  0  0  0  0  0
    4.1754   -1.2481    5.3377 H   0  0  0  0  0  0  0  0  0  0  0  0
    4.6446   -5.2197    1.1235 H   0  0  0  0  0  0  0  0  0  0  0  0
    2.1131   -5.0753    1.4584 H   0  0  0  0  0  0  0  0  0  0  0  0
    3.1417   -4.8164    2.7793 H   0  0  0  0  0  0  0  0  0  0  0  0
    1.2188   -3.2454    2.5392 H   0  0  0  0  0  0  0  0  0  0  0  0
    1.8611   -2.5488    1.1308 H   0  0  0  0  0  0  0  0  0  0  0  0
    4.4406   -4.6596   -1.2679 H   0  0  0  0  0  0  0  0  0  0  0  0
    3.1670   -5.6043   -0.5571 H   0  0  0  0  0  0  0  0  0  0  0  0
    0.5547   -3.4507   -1.5946 H   0  0  0  0  0  0  0  0  0  0  0  0
    0.9563   -4.8878   -0.6364 H   0  0  0  0  0  0  0  0  0  0  0  0
    1.3380   -4.8487   -2.3055 H   0  0  0  0  0  0  0  0  0  0  0  0
    1.8609   -3.0679   -3.5497 H   0  0  0  0  0  0  0  0  0  0  0  0
    2.7119   -1.1960   -4.9061 H   0  0  0  0  0  0  0  0  0  0  0  0
    4.4225    0.3005   -4.0176 H   0  0  0  0  0  0  0  0  0  0  0  0
    5.3262   -0.0344   -1.7624 H   0  0  0  0  0  0  0  0  0  0  0  0
  1  2  1  0
  1 25  1  0
  1 26  1  0
  1 27  1  0
  3  2  1  1
  3 11  1  0
  3 15  1  0
  3  4  1  0
  4  5  2  0
  4 28  1  0
  5  6  1  0
  5 29  1  0
  6  9  1  0
  6 24  1  0
  6  7  1  6
  7  8  1  0
  7 30  1  0
  7 31  1  0
  9  8  1  6
  8 32  1  0
  8 33  1  0
  9 10  1  0
  9 13  1  0
 10 11  1  0
 10 34  1  0
 10 35  1  0
 11 12  1  0
 11 36  1  1
 12 37  1  0
 12 38  1  0
 12 39  1  0
 13 14  1  0
 13 16  1  0
 13 40  1  1
 14 15  1  0
 14 41  1  0
 14 42  1  0
 15 43  1  0
 15 44  1  0
 16 17  1  0
 16 45  1  0
 16 46  1  0
 17 18  1  0
 17 19  1  0
 18 47  1  0
 18 48  1  0
 18 49  1  0
 19 24  2  0
 19 20  1  0
 20 21  2  0
 20 50  1  0
 21 22  1  0
 21 51  1  0
 22 23  2  0
 22 52  1  0
 23 24  1  0
 23 53  1  0
M  END
>  <i_m_ct_stereo_status>  (124) 
1

>  <s_m_source_file>  (124) 
/var/tmp/pbs.5076255.sched01/tmpr7id634h/0ay6m0hv_.sdf

>  <i_m_source_file_index>  (124) 
54

>  <i_lp_mmshare_version>  (124) 
48012

>  <i_f3d_flags>  (124) 
0

>  <s_epik_input>  (124) 
W0NIM11PW0NAQF0oW0NIXT1bQ0hdMSkoW0NAQEhdKFtDSDJdMilbQ0gzXSlbQ0gyXVtDSDJdW0NASF0oW0NAXTIoW0NAQF0xMzQpW0NIMl1bQ0gyXTMpW0NIMl1OKFtDSDNdKWM1YzRbY0hdW2NIXVtjSF1bY0hdNQ==

>  <s_epik_cmdline>  (124) 
J2VwaWtfcHl0aG9uJywgJy1waHQnLCAnMi4wJywgJy1waCcsICc3LjAnLCAnLXRuJywgJzgnLCAnLW1hJywgJzIwMCcsICctaW1hZScsICc8aW5maWxlLm1hZT4nLCAnLW9tYWUnLCAnPG91dGZpbGUubWFlPic=

>  <r_epik_Ionization_Penalty>  (124) 
0.371074

>  <r_epik_Ionization_Penalty_Charging>  (124) 
0

>  <r_epik_Ionization_Penalty_Neutral>  (124) 
0.371074

>  <r_epik_State_Penalty>  (124) 
0.368519

>  <r_epik_Charging_Adjusted_Penalty>  (124) 
0.368519

>  <i_epik_Tot_Q>  (124) 
0

>  <i_epik_Tot_abs_Q>  (124) 
0

>  <s_lp_Force_Field>  (124) 
OPLS3e

>  <r_lp_Energy>  (124) 
97.0581

>  <b_lp_Chiralities_Consistent>  (124) 
1

>  <s_lp_Variant>  (124) 
35:0-1

>  <s_i_glide_gridfile>  (124) 
pfpi4k_grid

>  <i_i_glide_lignum>  (124) 
54

>  <i_i_glide_rotatable_bonds>  (124) 
1

>  <r_i_docking_score>  (124) 
-2.7569

>  <r_i_glide_ligand_efficiency>  (124) 
-0.114871

>  <r_i_glide_ligand_efficiency_sa>  (124) 
-0.331344

>  <r_i_glide_ligand_efficiency_ln>  (124) 
-0.659852

>  <r_i_glide_gscore>  (124) 
-2.7569

>  <r_i_glide_lipo>  (124) 
-0.688214

>  <r_i_glide_hbond>  (124) 
0

>  <r_i_glide_metal>  (124) 
-0

>  <r_i_glide_rewards>  (124) 
-1.2036

>  <r_i_glide_evdw>  (124) 
-18.9257

>  <r_i_glide_ecoul>  (124) 
0.638161

>  <r_i_glide_erotb>  (124) 
0

>  <r_i_glide_esite>  (124) 
-0.0145216

>  <r_i_glide_emodel>  (124) 
-17.3409

>  <r_i_glide_energy>  (124) 
-18.2875

>  <r_i_glide_einternal>  (124) 
6.34695

>  <r_i_glide_intrahb_reward>  (124) 
-0

>  <i_i_glide_confnum>  (124) 
1

>  <i_i_glide_posenum>  (124) 
21

>  <r_i_glide_eff_state_penalty>  (124) 
0

>  <ligand_id>  (124) 
35

>  <original_smiles>  (124) 
COC12C=CC34CCC3(CC1C)C(CC2)CN(C)c1ccccc14

>  <smiles>  (124) 
[H]C1=C([H])C23c4c([H])c([H])c([H])c([H])c4N(C([H])([H])[H])C([H])([H])C4([H])C([H])([H])C([H])([H])C1(OC([H])([H])[H])C([H])(C([H])([H])[H])C([H])([H])C24C([H])([H])C3([H])[H]

$$$$
36:0:0
     RDKit          3D

 26 28  0  0  1  0  0  0  0  0999 V2000
  -11.7930   -6.8407   -9.9828 C   0  0  0  0  0  0  0  0  0  0  0  0
  -10.4259   -6.5570   -9.3596 C   0  0  1  0  0  0  0  0  0  0  0  0
   -9.8872   -7.7549   -8.5703 C   0  0  0  0  0  0  0  0  0  0  0  0
   -8.4629   -7.2480   -8.3728 C   0  0  1  0  0  0  0  0  0  0  0  0
   -8.1375   -6.7511   -9.7971 C   0  0  0  0  0  0  0  0  0  0  0  0
   -9.4005   -6.2235  -10.3068 N   0  0  0  0  0  0  0  0  0  0  0  0
   -8.5333   -6.0758   -7.4135 C   0  0  0  0  0  0  0  0  0  0  0  0
   -7.5653   -5.8511   -6.4162 C   0  0  0  0  0  0  0  0  0  0  0  0
   -7.7104   -4.7566   -5.5445 C   0  0  0  0  0  0  0  0  0  0  0  0
   -6.5230   -4.4706   -4.3269 Cl  0  0  0  0  0  0  0  0  0  0  0  0
   -8.8255   -3.9010   -5.6604 C   0  0  0  0  0  0  0  0  0  0  0  0
   -9.8001   -4.1330   -6.6478 C   0  0  0  0  0  0  0  0  0  0  0  0
   -9.6540   -5.2212   -7.5271 C   0  0  0  0  0  0  0  0  0  0  0  0
  -10.6276   -5.4773   -8.4723 O   0  0  0  0  0  0  0  0  0  0  0  0
  -11.7482   -7.6697  -10.6891 H   0  0  0  0  0  0  0  0  0  0  0  0
  -12.1451   -5.9481  -10.5017 H   0  0  0  0  0  0  0  0  0  0  0  0
  -12.5147   -7.0702   -9.1977 H   0  0  0  0  0  0  0  0  0  0  0  0
  -10.4435   -7.9268   -7.6492 H   0  0  0  0  0  0  0  0  0  0  0  0
   -9.9120   -8.6568   -9.1820 H   0  0  0  0  0  0  0  0  0  0  0  0
   -7.7738   -8.0203   -8.0212 H   0  0  0  0  0  0  0  0  0  0  0  0
   -7.3728   -5.9799   -9.8067 H   0  0  0  0  0  0  0  0  0  0  0  0
   -7.8128   -7.5754  -10.4358 H   0  0  0  0  0  0  0  0  0  0  0  0
   -9.5966   -6.6389  -11.2043 H   0  0  0  0  0  0  0  0  0  0  0  0
   -6.7141   -6.5096   -6.3138 H   0  0  0  0  0  0  0  0  0  0  0  0
   -8.9467   -3.0657   -4.9894 H   0  0  0  0  0  0  0  0  0  0  0  0
  -10.6666   -3.4911   -6.7171 H   0  0  0  0  0  0  0  0  0  0  0  0
  2  1  1  6
  1 15  1  0
  1 16  1  0
  1 17  1  0
  2  6  1  0
  2 14  1  0
  2  3  1  0
  3  4  1  0
  3 18  1  0
  3 19  1  0
  4  5  1  0
  4  7  1  0
  4 20  1  1
  5  6  1  0
  5 21  1  0
  5 22  1  0
  6 23  1  0
  7 13  2  0
  7  8  1  0
  8  9  2  0
  8 24  1  0
  9 10  1  0
  9 11  1  0
 11 12  2  0
 11 25  1  0
 12 13  1  0
 12 26  1  0
 13 14  1  0
M  END
>  <i_m_ct_stereo_status>  (125) 
1

>  <s_m_source_file>  (125) 
/var/tmp/pbs.5076255.sched01/tmp9rjncpta/544vc0qzzn.sdf

>  <i_m_source_file_index>  (125) 
2

>  <i_lp_mmshare_version>  (125) 
48012

>  <i_f3d_flags>  (125) 
0

>  <s_epik_input>  (125) 
W0NIM11bQ0BAXTEyW0NIMl1bQ0BASF0oW0NIMl1bTkhdMSljM2MoTzIpW2NIXVtjSF1jKENsKVtjSF0z

>  <s_epik_cmdline>  (125) 
J2VwaWtfcHl0aG9uJywgJy1waHQnLCAnMi4wJywgJy1waCcsICc3LjAnLCAnLXRuJywgJzgnLCAnLW1hJywgJzIwMCcsICctaW1hZScsICc8aW5maWxlLm1hZT4nLCAnLW9tYWUnLCAnPG91dGZpbGUubWFlPic=

>  <r_lp_tautomer_probability>  (125) 
1

>  <r_epik_Ionization_Penalty>  (125) 
0.259954

>  <r_epik_Ionization_Penalty_Charging>  (125) 
0

>  <r_epik_Ionization_Penalty_Neutral>  (125) 
0.259954

>  <r_epik_State_Penalty>  (125) 
0.251643

>  <r_epik_Charging_Adjusted_Penalty>  (125) 
0.251643

>  <i_epik_Tot_Q>  (125) 
0

>  <i_epik_Tot_abs_Q>  (125) 
0

>  <s_lp_Force_Field>  (125) 
OPLS3e

>  <r_lp_Energy>  (125) 
27.8095

>  <b_lp_Chiralities_Consistent>  (125) 
1

>  <s_lp_Variant>  (125) 
36:0-1

>  <s_i_glide_gridfile>  (125) 
pfpi4k_grid

>  <i_i_glide_lignum>  (125) 
2

>  <i_i_glide_rotatable_bonds>  (125) 
0

>  <r_i_docking_score>  (125) 
-5.91619

>  <r_i_glide_ligand_efficiency>  (125) 
-0.422585

>  <r_i_glide_ligand_efficiency_sa>  (125) 
-1.01849

>  <r_i_glide_ligand_efficiency_ln>  (125) 
-1.62575

>  <r_i_glide_gscore>  (125) 
-5.91619

>  <r_i_glide_lipo>  (125) 
-2.22374

>  <r_i_glide_hbond>  (125) 
-0.00344691

>  <r_i_glide_metal>  (125) 
-0

>  <r_i_glide_rewards>  (125) 
-2.30459

>  <r_i_glide_evdw>  (125) 
-24.7074

>  <r_i_glide_ecoul>  (125) 
-0.836206

>  <r_i_glide_erotb>  (125) 
0

>  <r_i_glide_esite>  (125) 
-0.0236054

>  <r_i_glide_emodel>  (125) 
-34.751

>  <r_i_glide_energy>  (125) 
-25.5436

>  <r_i_glide_einternal>  (125) 
0

>  <r_i_glide_intrahb_reward>  (125) 
-0

>  <i_i_glide_confnum>  (125) 
1

>  <i_i_glide_posenum>  (125) 
1

>  <r_i_glide_eff_state_penalty>  (125) 
0

>  <ligand_id>  (125) 
36

>  <original_smiles>  (125) 
CC12CC(CN1)c1cc(Cl)ccc1O2

>  <smiles>  (125) 
[H]c1c([H])c2c(c([H])c1Cl)C1([H])C([H])([H])N([H])C(C([H])([H])[H])(O2)C1([H])[H]

$$$$
36:0:1
     RDKit          3D

 26 28  0  0  1  0  0  0  0  0999 V2000
   -8.6127  -10.8710   -8.5112 C   0  0  0  0  0  0  0  0  0  0  0  0
   -7.6418   -9.9125   -7.8095 C   0  0  1  0  0  0  0  0  0  0  0  0
   -7.5078  -10.2099   -6.3163 C   0  0  0  0  0  0  0  0  0  0  0  0
   -6.3000   -9.3174   -6.0316 C   0  0  1  0  0  0  0  0  0  0  0  0
   -5.3867   -9.6923   -7.2097 C   0  0  0  0  0  0  0  0  0  0  0  0
   -6.3023   -9.9374   -8.3219 N   0  0  0  0  0  0  0  0  0  0  0  0
   -6.7593   -7.8766   -6.1632 C   0  0  0  0  0  0  0  0  0  0  0  0
   -6.3087   -6.8503   -5.3131 C   0  0  0  0  0  0  0  0  0  0  0  0
   -6.8102   -5.5432   -5.4800 C   0  0  0  0  0  0  0  0  0  0  0  0
   -6.2538   -4.2675   -4.4654 Cl  0  0  0  0  0  0  0  0  0  0  0  0
   -7.7605   -5.2686   -6.4876 C   0  0  0  0  0  0  0  0  0  0  0  0
   -8.2031   -6.2975   -7.3401 C   0  0  0  0  0  0  0  0  0  0  0  0
   -7.7105   -7.6049   -7.1752 C   0  0  0  0  0  0  0  0  0  0  0  0
   -8.2021   -8.6264   -7.9679 O   0  0  0  0  0  0  0  0  0  0  0  0
   -8.2769  -11.9047   -8.4360 H   0  0  0  0  0  0  0  0  0  0  0  0
   -8.6845  -10.5996   -9.5653 H   0  0  0  0  0  0  0  0  0  0  0  0
   -9.6064  -10.7762   -8.0709 H   0  0  0  0  0  0  0  0  0  0  0  0
   -8.4102   -9.9485   -5.7688 H   0  0  0  0  0  0  0  0  0  0  0  0
   -7.2760  -11.2642   -6.1565 H   0  0  0  0  0  0  0  0  0  0  0  0
   -5.8292   -9.5095   -5.0660 H   0  0  0  0  0  0  0  0  0  0  0  0
   -4.6760   -8.9006   -7.4374 H   0  0  0  0  0  0  0  0  0  0  0  0
   -4.8310  -10.6076   -6.9920 H   0  0  0  0  0  0  0  0  0  0  0  0
   -6.1020  -10.8348   -8.7334 H   0  0  0  0  0  0  0  0  0  0  0  0
   -5.5950   -7.0630   -4.5307 H   0  0  0  0  0  0  0  0  0  0  0  0
   -8.1382   -4.2658   -6.6093 H   0  0  0  0  0  0  0  0  0  0  0  0
   -8.9341   -6.0963   -8.1085 H   0  0  0  0  0  0  0  0  0  0  0  0
  2  1  1  6
  1 15  1  0
  1 16  1  0
  1 17  1  0
  2  6  1  0
  2 14  1  0
  2  3  1  0
  3  4  1  0
  3 18  1  0
  3 19  1  0
  4  5  1  0
  4  7  1  0
  4 20  1  1
  5  6  1  0
  5 21  1  0
  5 22  1  0
  6 23  1  0
  7 13  2  0
  7  8  1  0
  8  9  2  0
  8 24  1  0
  9 10  1  0
  9 11  1  0
 11 12  2  0
 11 25  1  0
 12 13  1  0
 12 26  1  0
 13 14  1  0
M  END
>  <i_m_ct_stereo_status>  (126) 
1

>  <s_m_source_file>  (126) 
/var/tmp/pbs.5076255.sched01/tmp9rjncpta/544vc0qzzn.sdf

>  <i_m_source_file_index>  (126) 
2

>  <i_lp_mmshare_version>  (126) 
48012

>  <i_f3d_flags>  (126) 
0

>  <s_epik_input>  (126) 
W0NIM11bQ0BAXTEyW0NIMl1bQ0BASF0oW0NIMl1bTkhdMSljM2MoTzIpW2NIXVtjSF1jKENsKVtjSF0z

>  <s_epik_cmdline>  (126) 
J2VwaWtfcHl0aG9uJywgJy1waHQnLCAnMi4wJywgJy1waCcsICc3LjAnLCAnLXRuJywgJzgnLCAnLW1hJywgJzIwMCcsICctaW1hZScsICc8aW5maWxlLm1hZT4nLCAnLW9tYWUnLCAnPG91dGZpbGUubWFlPic=

>  <r_lp_tautomer_probability>  (126) 
1

>  <r_epik_Ionization_Penalty>  (126) 
0.259954

>  <r_epik_Ionization_Penalty_Charging>  (126) 
0

>  <r_epik_Ionization_Penalty_Neutral>  (126) 
0.259954

>  <r_epik_State_Penalty>  (126) 
0.251643

>  <r_epik_Charging_Adjusted_Penalty>  (126) 
0.251643

>  <i_epik_Tot_Q>  (126) 
0

>  <i_epik_Tot_abs_Q>  (126) 
0

>  <s_lp_Force_Field>  (126) 
OPLS3e

>  <r_lp_Energy>  (126) 
27.8095

>  <b_lp_Chiralities_Consistent>  (126) 
1

>  <s_lp_Variant>  (126) 
36:0-1

>  <s_i_glide_gridfile>  (126) 
pfpi4k_grid

>  <i_i_glide_lignum>  (126) 
2

>  <i_i_glide_rotatable_bonds>  (126) 
0

>  <r_i_docking_score>  (126) 
-5.83622

>  <r_i_glide_ligand_efficiency>  (126) 
-0.416873

>  <r_i_glide_ligand_efficiency_sa>  (126) 
-1.00472

>  <r_i_glide_ligand_efficiency_ln>  (126) 
-1.60377

>  <r_i_glide_gscore>  (126) 
-5.83622

>  <r_i_glide_lipo>  (126) 
-2.28711

>  <r_i_glide_hbond>  (126) 
0

>  <r_i_glide_metal>  (126) 
-0

>  <r_i_glide_rewards>  (126) 
-2.59431

>  <r_i_glide_evdw>  (126) 
-21.7785

>  <r_i_glide_ecoul>  (126) 
0.894208

>  <r_i_glide_erotb>  (126) 
0

>  <r_i_glide_esite>  (126) 
0

>  <r_i_glide_emodel>  (126) 
-29.9738

>  <r_i_glide_energy>  (126) 
-20.8843

>  <r_i_glide_einternal>  (126) 
0

>  <r_i_glide_intrahb_reward>  (126) 
-0

>  <i_i_glide_confnum>  (126) 
2

>  <i_i_glide_posenum>  (126) 
22

>  <r_i_glide_eff_state_penalty>  (126) 
0

>  <ligand_id>  (126) 
36

>  <original_smiles>  (126) 
CC12CC(CN1)c1cc(Cl)ccc1O2

>  <smiles>  (126) 
[H]c1c([H])c2c(c([H])c1Cl)C1([H])C([H])([H])N([H])C(C([H])([H])[H])(O2)C1([H])[H]

$$$$
36:0:2
     RDKit          3D

 26 28  0  0  1  0  0  0  0  0999 V2000
  -10.1859   -8.2727  -10.2552 C   0  0  0  0  0  0  0  0  0  0  0  0
   -9.0553   -7.9302   -9.2741 C   0  0  1  0  0  0  0  0  0  0  0  0
   -9.0540   -8.8462   -8.0480 C   0  0  0  0  0  0  0  0  0  0  0  0
   -7.6899   -8.4474   -7.4871 C   0  0  1  0  0  0  0  0  0  0  0  0
   -6.8331   -8.4924   -8.7629 C   0  0  0  0  0  0  0  0  0  0  0  0
   -7.7295   -8.0227   -9.8217 N   0  0  0  0  0  0  0  0  0  0  0  0
   -7.7902   -7.0153   -6.9987 C   0  0  0  0  0  0  0  0  0  0  0  0
   -7.1536   -6.5641   -5.8258 C   0  0  0  0  0  0  0  0  0  0  0  0
   -7.3455   -5.2360   -5.4031 C   0  0  0  0  0  0  0  0  0  0  0  0
   -6.5880   -4.6639   -3.9700 Cl  0  0  0  0  0  0  0  0  0  0  0  0
   -8.1672   -4.3667   -6.1497 C   0  0  0  0  0  0  0  0  0  0  0  0
   -8.8014   -4.8161   -7.3261 C   0  0  0  0  0  0  0  0  0  0  0  0
   -8.6199   -6.1445   -7.7462 C   0  0  0  0  0  0  0  0  0  0  0  0
   -9.3072   -6.6077   -8.8531 O   0  0  0  0  0  0  0  0  0  0  0  0
  -10.0985   -9.2900  -10.6342 H   0  0  0  0  0  0  0  0  0  0  0  0
  -10.1534   -7.5783  -11.0964 H   0  0  0  0  0  0  0  0  0  0  0  0
  -11.1481   -8.1526   -9.7573 H   0  0  0  0  0  0  0  0  0  0  0  0
   -9.9006   -8.6403   -7.3977 H   0  0  0  0  0  0  0  0  0  0  0  0
   -9.0748   -9.8920   -8.3504 H   0  0  0  0  0  0  0  0  0  0  0  0
   -7.3374   -9.1235   -6.7037 H   0  0  0  0  0  0  0  0  0  0  0  0
   -5.9405   -7.8745   -8.6893 H   0  0  0  0  0  0  0  0  0  0  0  0
   -6.5294   -9.5167   -8.9870 H   0  0  0  0  0  0  0  0  0  0  0  0
   -7.7024   -8.6732  -10.5888 H   0  0  0  0  0  0  0  0  0  0  0  0
   -6.5528   -7.2423   -5.2369 H   0  0  0  0  0  0  0  0  0  0  0  0
   -8.3194   -3.3539   -5.8121 H   0  0  0  0  0  0  0  0  0  0  0  0
   -9.4436   -4.1541   -7.8864 H   0  0  0  0  0  0  0  0  0  0  0  0
  2  1  1  6
  1 15  1  0
  1 16  1  0
  1 17  1  0
  2  6  1  0
  2 14  1  0
  2  3  1  0
  3  4  1  0
  3 18  1  0
  3 19  1  0
  4  5  1  0
  4  7  1  0
  4 20  1  1
  5  6  1  0
  5 21  1  0
  5 22  1  0
  6 23  1  0
  7 13  2  0
  7  8  1  0
  8  9  2  0
  8 24  1  0
  9 10  1  0
  9 11  1  0
 11 12  2  0
 11 25  1  0
 12 13  1  0
 12 26  1  0
 13 14  1  0
M  END
>  <i_m_ct_stereo_status>  (127) 
1

>  <s_m_source_file>  (127) 
/var/tmp/pbs.5076255.sched01/tmp9rjncpta/544vc0qzzn.sdf

>  <i_m_source_file_index>  (127) 
2

>  <i_lp_mmshare_version>  (127) 
48012

>  <i_f3d_flags>  (127) 
0

>  <s_epik_input>  (127) 
W0NIM11bQ0BAXTEyW0NIMl1bQ0BASF0oW0NIMl1bTkhdMSljM2MoTzIpW2NIXVtjSF1jKENsKVtjSF0z

>  <s_epik_cmdline>  (127) 
J2VwaWtfcHl0aG9uJywgJy1waHQnLCAnMi4wJywgJy1waCcsICc3LjAnLCAnLXRuJywgJzgnLCAnLW1hJywgJzIwMCcsICctaW1hZScsICc8aW5maWxlLm1hZT4nLCAnLW9tYWUnLCAnPG91dGZpbGUubWFlPic=

>  <r_lp_tautomer_probability>  (127) 
1

>  <r_epik_Ionization_Penalty>  (127) 
0.259954

>  <r_epik_Ionization_Penalty_Charging>  (127) 
0

>  <r_epik_Ionization_Penalty_Neutral>  (127) 
0.259954

>  <r_epik_State_Penalty>  (127) 
0.251643

>  <r_epik_Charging_Adjusted_Penalty>  (127) 
0.251643

>  <i_epik_Tot_Q>  (127) 
0

>  <i_epik_Tot_abs_Q>  (127) 
0

>  <s_lp_Force_Field>  (127) 
OPLS3e

>  <r_lp_Energy>  (127) 
27.8095

>  <b_lp_Chiralities_Consistent>  (127) 
1

>  <s_lp_Variant>  (127) 
36:0-1

>  <s_i_glide_gridfile>  (127) 
pfpi4k_grid

>  <i_i_glide_lignum>  (127) 
2

>  <i_i_glide_rotatable_bonds>  (127) 
0

>  <r_i_docking_score>  (127) 
-5.79804

>  <r_i_glide_ligand_efficiency>  (127) 
-0.414146

>  <r_i_glide_ligand_efficiency_sa>  (127) 
-0.99815

>  <r_i_glide_ligand_efficiency_ln>  (127) 
-1.59328

>  <r_i_glide_gscore>  (127) 
-5.79804

>  <r_i_glide_lipo>  (127) 
-2.23803

>  <r_i_glide_hbond>  (127) 
0

>  <r_i_glide_metal>  (127) 
-0

>  <r_i_glide_rewards>  (127) 
-2.53866

>  <r_i_glide_evdw>  (127) 
-21.6971

>  <r_i_glide_ecoul>  (127) 
0.423288

>  <r_i_glide_erotb>  (127) 
0

>  <r_i_glide_esite>  (127) 
0

>  <r_i_glide_emodel>  (127) 
-30.3058

>  <r_i_glide_energy>  (127) 
-21.2738

>  <r_i_glide_einternal>  (127) 
0

>  <r_i_glide_intrahb_reward>  (127) 
-0

>  <i_i_glide_confnum>  (127) 
1

>  <i_i_glide_posenum>  (127) 
7

>  <r_i_glide_eff_state_penalty>  (127) 
0

>  <ligand_id>  (127) 
36

>  <original_smiles>  (127) 
CC12CC(CN1)c1cc(Cl)ccc1O2

>  <smiles>  (127) 
[H]c1c([H])c2c(c([H])c1Cl)C1([H])C([H])([H])N([H])C(C([H])([H])[H])(O2)C1([H])[H]

$$$$
36:1:0
     RDKit          3D

 27 29  0  0  1  0  0  0  0  0999 V2000
   -9.2346   -9.0861  -10.2358 C   0  0  0  0  0  0  0  0  0  0  0  0
   -9.0788   -7.9707   -9.2068 C   0  0  1  0  0  0  0  0  0  0  0  0
   -8.8745   -6.5303   -9.7000 C   0  0  0  0  0  0  0  0  0  0  0  0
   -9.2944   -5.7460   -8.4707 C   0  0  1  0  0  0  0  0  0  0  0  0
  -10.6763   -6.3448   -8.1959 C   0  0  0  0  0  0  0  0  0  0  0  0
  -10.5295   -7.7764   -8.5530 N   0  0  0  0  0  0  0  0  0  0  0  0
   -8.3011   -6.0668   -7.3724 C   0  0  0  0  0  0  0  0  0  0  0  0
   -7.8330   -5.0846   -6.4673 C   0  0  0  0  0  0  0  0  0  0  0  0
   -6.8897   -5.4350   -5.4919 C   0  0  0  0  0  0  0  0  0  0  0  0
   -6.2270   -4.2488   -4.4368 Cl  0  0  0  0  0  0  0  0  0  0  0  0
   -6.4449   -6.7733   -5.3804 C   0  0  0  0  0  0  0  0  0  0  0  0
   -6.9141   -7.7436   -6.2639 C   0  0  0  0  0  0  0  0  0  0  0  0
   -7.8171   -7.3965   -7.2781 C   0  0  0  0  0  0  0  0  0  0  0  0
   -8.1839   -8.3560   -8.1936 O   0  0  0  0  0  0  0  0  0  0  0  0
   -9.9665   -8.8226  -11.0025 H   0  0  0  0  0  0  0  0  0  0  0  0
   -9.5219  -10.0311   -9.7637 H   0  0  0  0  0  0  0  0  0  0  0  0
   -8.2634   -9.2356  -10.7199 H   0  0  0  0  0  0  0  0  0  0  0  0
   -7.8439   -6.3576   -9.9964 H   0  0  0  0  0  0  0  0  0  0  0  0
   -9.5443   -6.3658  -10.5458 H   0  0  0  0  0  0  0  0  0  0  0  0
   -9.3739   -4.6830   -8.6451 H   0  0  0  0  0  0  0  0  0  0  0  0
  -10.9888   -6.2197   -7.1542 H   0  0  0  0  0  0  0  0  0  0  0  0
  -11.4385   -5.8910   -8.8477 H   0  0  0  0  0  0  0  0  0  0  0  0
  -11.2565   -7.9974   -9.2239 H   0  0  0  0  0  0  0  0  0  0  0  0
   -8.1491   -4.0600   -6.5752 H   0  0  0  0  0  0  0  0  0  0  0  0
   -5.7174   -7.0315   -4.6233 H   0  0  0  0  0  0  0  0  0  0  0  0
   -6.5635   -8.7647   -6.1925 H   0  0  0  0  0  0  0  0  0  0  0  0
  -10.6602   -8.3506   -7.7207 H   0  0  0  0  0  0  0  0  0  0  0  0
  2  1  1  6
  1 15  1  0
  1 16  1  0
  1 17  1  0
  2  6  1  0
  2 14  1  0
  2  3  1  0
  3  4  1  0
  3 18  1  0
  3 19  1  0
  4  5  1  0
  4  7  1  0
  4 20  1  6
  5  6  1  0
  5 21  1  0
  5 22  1  0
  6 23  1  0
  6 27  1  0
  7 13  2  0
  7  8  1  0
  8  9  2  0
  8 24  1  0
  9 10  1  0
  9 11  1  0
 11 12  2  0
 11 25  1  0
 12 13  1  0
 12 26  1  0
 13 14  1  0
M  CHG  1   6   1
M  END
>  <i_m_ct_stereo_status>  (128) 
1

>  <s_m_source_file>  (128) 
/var/tmp/pbs.5076255.sched01/tmp9rjncpta/544vc0qzzn.sdf

>  <i_m_source_file_index>  (128) 
3

>  <i_lp_mmshare_version>  (128) 
48012

>  <i_f3d_flags>  (128) 
0

>  <s_epik_input>  (128) 
W0NIM11bQ0BAXTEyW0NIMl1bQ0BASF0oW0NIMl1bTkhdMSljM2MoTzIpW2NIXVtjSF1jKENsKVtjSF0z

>  <s_epik_cmdline>  (128) 
J2VwaWtfcHl0aG9uJywgJy1waHQnLCAnMi4wJywgJy1waCcsICc3LjAnLCAnLXRuJywgJzgnLCAnLW1hJywgJzIwMCcsICctaW1hZScsICc8aW5maWxlLm1hZT4nLCAnLW9tYWUnLCAnPG91dGZpbGUubWFlPic=

>  <r_lp_tautomer_probability>  (128) 
1

>  <r_epik_Ionization_Penalty>  (128) 
0.613335

>  <r_epik_Ionization_Penalty_Charging>  (128) 
0.613335

>  <r_epik_Ionization_Penalty_Neutral>  (128) 
0

>  <r_epik_State_Penalty>  (128) 
0.628729

>  <r_epik_Charging_Adjusted_Penalty>  (128) 
1.24206

>  <i_epik_Tot_Q>  (128) 
1

>  <i_epik_Tot_abs_Q>  (128) 
1

>  <s_lp_Force_Field>  (128) 
OPLS3e

>  <r_lp_Energy>  (128) 
27.1245

>  <b_lp_Chiralities_Consistent>  (128) 
1

>  <s_lp_Variant>  (128) 
36:0-2

>  <s_i_glide_gridfile>  (128) 
pfpi4k_grid

>  <i_i_glide_lignum>  (128) 
3

>  <i_i_glide_rotatable_bonds>  (128) 
0

>  <r_i_docking_score>  (128) 
-5.86389

>  <r_i_glide_ligand_efficiency>  (128) 
-0.418849

>  <r_i_glide_ligand_efficiency_sa>  (128) 
-1.00949

>  <r_i_glide_ligand_efficiency_ln>  (128) 
-1.61138

>  <r_i_glide_gscore>  (128) 
-5.86389

>  <r_i_glide_lipo>  (128) 
-2.07461

>  <r_i_glide_hbond>  (128) 
0

>  <r_i_glide_metal>  (128) 
-0

>  <r_i_glide_rewards>  (128) 
-2.55555

>  <r_i_glide_evdw>  (128) 
-21.6238

>  <r_i_glide_ecoul>  (128) 
-0.953848

>  <r_i_glide_erotb>  (128) 
0

>  <r_i_glide_esite>  (128) 
-0.00947015

>  <r_i_glide_emodel>  (128) 
-31.6765

>  <r_i_glide_energy>  (128) 
-22.5776

>  <r_i_glide_einternal>  (128) 
0

>  <r_i_glide_intrahb_reward>  (128) 
-0

>  <i_i_glide_confnum>  (128) 
1

>  <i_i_glide_posenum>  (128) 
1

>  <r_i_glide_eff_state_penalty>  (128) 
0

>  <ligand_id>  (128) 
36

>  <original_smiles>  (128) 
CC12CC(CN1)c1cc(Cl)ccc1O2

>  <smiles>  (128) 
[H]c1c([H])c2c(c([H])c1Cl)C1([H])C([H])([H])C(C([H])([H])[H])(O2)[N+]([H])([H])C1([H])[H]

$$$$
36:1:1
     RDKit          3D

 27 29  0  0  1  0  0  0  0  0999 V2000
  -11.4078   -7.9394  -10.2766 C   0  0  0  0  0  0  0  0  0  0  0  0
  -10.4338   -7.4141   -9.2227 C   0  0  1  0  0  0  0  0  0  0  0  0
   -9.5331   -6.2366   -9.5799 C   0  0  0  0  0  0  0  0  0  0  0  0
   -9.1624   -5.7310   -8.2009 C   0  0  1  0  0  0  0  0  0  0  0  0
  -10.5606   -5.5462   -7.5706 C   0  0  0  0  0  0  0  0  0  0  0  0
  -11.3716   -6.6773   -8.1158 N   0  0  0  0  0  0  0  0  0  0  0  0
   -8.3473   -6.8169   -7.5230 C   0  0  0  0  0  0  0  0  0  0  0  0
   -7.2482   -6.5181   -6.6881 C   0  0  0  0  0  0  0  0  0  0  0  0
   -6.5083   -7.5681   -6.1017 C   0  0  0  0  0  0  0  0  0  0  0  0
   -5.1077   -7.2142   -5.1505 Cl  0  0  0  0  0  0  0  0  0  0  0  0
   -6.9159   -8.9054   -6.3064 C   0  0  0  0  0  0  0  0  0  0  0  0
   -8.0116   -9.1924   -7.1341 C   0  0  0  0  0  0  0  0  0  0  0  0
   -8.7147   -8.1577   -7.7638 C   0  0  0  0  0  0  0  0  0  0  0  0
   -9.7549   -8.4666   -8.6136 O   0  0  0  0  0  0  0  0  0  0  0  0
  -11.9744   -7.1254  -10.7349 H   0  0  0  0  0  0  0  0  0  0  0  0
  -12.0893   -8.6778   -9.8544 H   0  0  0  0  0  0  0  0  0  0  0  0
  -10.8180   -8.4335  -11.0560 H   0  0  0  0  0  0  0  0  0  0  0  0
   -8.6657   -6.5441  -10.1549 H   0  0  0  0  0  0  0  0  0  0  0  0
  -10.1225   -5.5055  -10.1363 H   0  0  0  0  0  0  0  0  0  0  0  0
   -8.6436   -4.7742   -8.2026 H   0  0  0  0  0  0  0  0  0  0  0  0
  -10.5436   -5.5224   -6.4714 H   0  0  0  0  0  0  0  0  0  0  0  0
  -11.0212   -4.6011   -7.9024 H   0  0  0  0  0  0  0  0  0  0  0  0
  -12.2146   -6.2720   -8.5264 H   0  0  0  0  0  0  0  0  0  0  0  0
   -6.9380   -5.4935   -6.5421 H   0  0  0  0  0  0  0  0  0  0  0  0
   -6.3504   -9.7114   -5.8428 H   0  0  0  0  0  0  0  0  0  0  0  0
   -8.3307  -10.2138   -7.2790 H   0  0  0  0  0  0  0  0  0  0  0  0
  -11.6331   -7.3136   -7.3730 H   0  0  0  0  0  0  0  0  0  0  0  0
  2  1  1  6
  1 15  1  0
  1 16  1  0
  1 17  1  0
  2  6  1  0
  2 14  1  0
  2  3  1  0
  3  4  1  0
  3 18  1  0
  3 19  1  0
  4  5  1  0
  4  7  1  0
  4 20  1  6
  5  6  1  0
  5 21  1  0
  5 22  1  0
  6 23  1  0
  6 27  1  0
  7 13  2  0
  7  8  1  0
  8  9  2  0
  8 24  1  0
  9 10  1  0
  9 11  1  0
 11 12  2  0
 11 25  1  0
 12 13  1  0
 12 26  1  0
 13 14  1  0
M  CHG  1   6   1
M  END
>  <i_m_ct_stereo_status>  (129) 
1

>  <s_m_source_file>  (129) 
/var/tmp/pbs.5076255.sched01/tmp9rjncpta/544vc0qzzn.sdf

>  <i_m_source_file_index>  (129) 
3

>  <i_lp_mmshare_version>  (129) 
48012

>  <i_f3d_flags>  (129) 
0

>  <s_epik_input>  (129) 
W0NIM11bQ0BAXTEyW0NIMl1bQ0BASF0oW0NIMl1bTkhdMSljM2MoTzIpW2NIXVtjSF1jKENsKVtjSF0z

>  <s_epik_cmdline>  (129) 
J2VwaWtfcHl0aG9uJywgJy1waHQnLCAnMi4wJywgJy1waCcsICc3LjAnLCAnLXRuJywgJzgnLCAnLW1hJywgJzIwMCcsICctaW1hZScsICc8aW5maWxlLm1hZT4nLCAnLW9tYWUnLCAnPG91dGZpbGUubWFlPic=

>  <r_lp_tautomer_probability>  (129) 
1

>  <r_epik_Ionization_Penalty>  (129) 
0.613335

>  <r_epik_Ionization_Penalty_Charging>  (129) 
0.613335

>  <r_epik_Ionization_Penalty_Neutral>  (129) 
0

>  <r_epik_State_Penalty>  (129) 
0.628729

>  <r_epik_Charging_Adjusted_Penalty>  (129) 
1.24206

>  <i_epik_Tot_Q>  (129) 
1

>  <i_epik_Tot_abs_Q>  (129) 
1

>  <s_lp_Force_Field>  (129) 
OPLS3e

>  <r_lp_Energy>  (129) 
27.1245

>  <b_lp_Chiralities_Consistent>  (129) 
1

>  <s_lp_Variant>  (129) 
36:0-2

>  <s_i_glide_gridfile>  (129) 
pfpi4k_grid

>  <i_i_glide_lignum>  (129) 
3

>  <i_i_glide_rotatable_bonds>  (129) 
0

>  <r_i_docking_score>  (129) 
-5.60094

>  <r_i_glide_ligand_efficiency>  (129) 
-0.400067

>  <r_i_glide_ligand_efficiency_sa>  (129) 
-0.96422

>  <r_i_glide_ligand_efficiency_ln>  (129) 
-1.53912

>  <r_i_glide_gscore>  (129) 
-5.60094

>  <r_i_glide_lipo>  (129) 
-1.49052

>  <r_i_glide_hbond>  (129) 
-0.18993

>  <r_i_glide_metal>  (129) 
-0

>  <r_i_glide_rewards>  (129) 
-2.48097

>  <r_i_glide_evdw>  (129) 
-17.9961

>  <r_i_glide_ecoul>  (129) 
-3.03462

>  <r_i_glide_erotb>  (129) 
0

>  <r_i_glide_esite>  (129) 
-0.084527

>  <r_i_glide_emodel>  (129) 
-29.7098

>  <r_i_glide_energy>  (129) 
-21.0307

>  <r_i_glide_einternal>  (129) 
0

>  <r_i_glide_intrahb_reward>  (129) 
-0

>  <i_i_glide_confnum>  (129) 
2

>  <i_i_glide_posenum>  (129) 
7

>  <r_i_glide_eff_state_penalty>  (129) 
0

>  <ligand_id>  (129) 
36

>  <original_smiles>  (129) 
CC12CC(CN1)c1cc(Cl)ccc1O2

>  <smiles>  (129) 
[H]c1c([H])c2c(c([H])c1Cl)C1([H])C([H])([H])C(C([H])([H])[H])(O2)[N+]([H])([H])C1([H])[H]

$$$$
36:1:2
     RDKit          3D

 27 29  0  0  1  0  0  0  0  0999 V2000
    3.5301   -4.5750    1.9456 C   0  0  0  0  0  0  0  0  0  0  0  0
    3.9957   -3.6642    0.8109 C   0  0  1  0  0  0  0  0  0  0  0  0
    4.3573   -2.2040    1.1275 C   0  0  0  0  0  0  0  0  0  0  0  0
    5.2302   -1.8575   -0.0627 C   0  0  1  0  0  0  0  0  0  0  0  0
    6.2458   -3.0034   -0.0281 C   0  0  0  0  0  0  0  0  0  0  0  0
    5.4529   -4.1734    0.4196 N   0  0  0  0  0  0  0  0  0  0  0  0
    4.3517   -1.9221   -1.2999 C   0  0  0  0  0  0  0  0  0  0  0  0
    4.4503   -0.9849   -2.3525 C   0  0  0  0  0  0  0  0  0  0  0  0
    3.5852   -1.0766   -3.4546 C   0  0  0  0  0  0  0  0  0  0  0  0
    3.6292    0.1099   -4.7217 Cl  0  0  0  0  0  0  0  0  0  0  0  0
    2.6422   -2.1281   -3.5233 C   0  0  0  0  0  0  0  0  0  0  0  0
    2.5447   -3.0530   -2.4850 C   0  0  0  0  0  0  0  0  0  0  0  0
    3.3812   -2.9469   -1.3628 C   0  0  0  0  0  0  0  0  0  0  0  0
    3.1688   -3.8118   -0.3154 O   0  0  0  0  0  0  0  0  0  0  0  0
    4.1989   -4.5119    2.8068 H   0  0  0  0  0  0  0  0  0  0  0  0
    3.4551   -5.6158    1.6189 H   0  0  0  0  0  0  0  0  0  0  0  0
    2.5341   -4.2480    2.2564 H   0  0  0  0  0  0  0  0  0  0  0  0
    3.4650   -1.5895    1.2120 H   0  0  0  0  0  0  0  0  0  0  0  0
    4.9137   -2.1902    2.0679 H   0  0  0  0  0  0  0  0  0  0  0  0
    5.7175   -0.8999    0.0350 H   0  0  0  0  0  0  0  0  0  0  0  0
    6.7197   -3.1811   -0.9995 H   0  0  0  0  0  0  0  0  0  0  0  0
    7.0372   -2.7972    0.7106 H   0  0  0  0  0  0  0  0  0  0  0  0
    5.9114   -4.5716    1.2272 H   0  0  0  0  0  0  0  0  0  0  0  0
    5.1298   -0.1495   -2.2727 H   0  0  0  0  0  0  0  0  0  0  0  0
    1.9354   -2.1939   -4.3295 H   0  0  0  0  0  0  0  0  0  0  0  0
    1.8025   -3.8279   -2.5245 H   0  0  0  0  0  0  0  0  0  0  0  0
    5.4137   -4.8720   -0.3245 H   0  0  0  0  0  0  0  0  0  0  0  0
  2  1  1  1
  1 15  1  0
  1 16  1  0
  1 17  1  0
  2  6  1  0
  2 14  1  0
  2  3  1  0
  3  4  1  0
  3 18  1  0
  3 19  1  0
  4  5  1  0
  4  7  1  0
  4 20  1  1
  5  6  1  0
  5 21  1  0
  5 22  1  0
  6 23  1  0
  6 27  1  0
  7 13  2  0
  7  8  1  0
  8  9  2  0
  8 24  1  0
  9 10  1  0
  9 11  1  0
 11 12  2  0
 11 25  1  0
 12 13  1  0
 12 26  1  0
 13 14  1  0
M  CHG  1   6   1
M  END
>  <i_m_ct_stereo_status>  (130) 
1

>  <s_m_source_file>  (130) 
/var/tmp/pbs.5076255.sched01/tmp9rjncpta/544vc0qzzn.sdf

>  <i_m_source_file_index>  (130) 
3

>  <i_lp_mmshare_version>  (130) 
48012

>  <i_f3d_flags>  (130) 
0

>  <s_epik_input>  (130) 
W0NIM11bQ0BAXTEyW0NIMl1bQ0BASF0oW0NIMl1bTkhdMSljM2MoTzIpW2NIXVtjSF1jKENsKVtjSF0z

>  <s_epik_cmdline>  (130) 
J2VwaWtfcHl0aG9uJywgJy1waHQnLCAnMi4wJywgJy1waCcsICc3LjAnLCAnLXRuJywgJzgnLCAnLW1hJywgJzIwMCcsICctaW1hZScsICc8aW5maWxlLm1hZT4nLCAnLW9tYWUnLCAnPG91dGZpbGUubWFlPic=

>  <r_lp_tautomer_probability>  (130) 
1

>  <r_epik_Ionization_Penalty>  (130) 
0.613335

>  <r_epik_Ionization_Penalty_Charging>  (130) 
0.613335

>  <r_epik_Ionization_Penalty_Neutral>  (130) 
0

>  <r_epik_State_Penalty>  (130) 
0.628729

>  <r_epik_Charging_Adjusted_Penalty>  (130) 
1.24206

>  <i_epik_Tot_Q>  (130) 
1

>  <i_epik_Tot_abs_Q>  (130) 
1

>  <s_lp_Force_Field>  (130) 
OPLS3e

>  <r_lp_Energy>  (130) 
27.1245

>  <b_lp_Chiralities_Consistent>  (130) 
1

>  <s_lp_Variant>  (130) 
36:0-2

>  <s_i_glide_gridfile>  (130) 
pfpi4k_grid

>  <i_i_glide_lignum>  (130) 
3

>  <i_i_glide_rotatable_bonds>  (130) 
0

>  <r_i_docking_score>  (130) 
-4.08229

>  <r_i_glide_ligand_efficiency>  (130) 
-0.291592

>  <r_i_glide_ligand_efficiency_sa>  (130) 
-0.702779

>  <r_i_glide_ligand_efficiency_ln>  (130) 
-1.1218

>  <r_i_glide_gscore>  (130) 
-4.08229

>  <r_i_glide_lipo>  (130) 
-0.660928

>  <r_i_glide_hbond>  (130) 
0

>  <r_i_glide_metal>  (130) 
-0

>  <r_i_glide_rewards>  (130) 
-1.99087

>  <r_i_glide_evdw>  (130) 
-22.6849

>  <r_i_glide_ecoul>  (130) 
-1.97501

>  <r_i_glide_erotb>  (130) 
0

>  <r_i_glide_esite>  (130) 
0

>  <r_i_glide_emodel>  (130) 
-30.9082

>  <r_i_glide_energy>  (130) 
-24.6599

>  <r_i_glide_einternal>  (130) 
0

>  <r_i_glide_intrahb_reward>  (130) 
-0

>  <i_i_glide_confnum>  (130) 
1

>  <i_i_glide_posenum>  (130) 
2

>  <r_i_glide_eff_state_penalty>  (130) 
0

>  <ligand_id>  (130) 
36

>  <original_smiles>  (130) 
CC12CC(CN1)c1cc(Cl)ccc1O2

>  <smiles>  (130) 
[H]c1c([H])c2c(c([H])c1Cl)C1([H])C([H])([H])C(C([H])([H])[H])(O2)[N+]([H])([H])C1([H])[H]

$$$$
38:0:0
     RDKit          3D

 55 58  0  0  1  0  0  0  0  0999 V2000
    5.3363   -8.2966    3.6348 C   0  0  0  0  0  0  0  0  0  0  0  0
    3.9876   -8.2100    4.0782 O   0  0  0  0  0  0  0  0  0  0  0  0
    3.0264   -8.0069    3.0480 C   0  0  2  0  0  0  0  0  0  0  0  0
    3.1917   -6.5850    2.4142 C   0  0  0  0  0  0  0  0  0  0  0  0
    2.4423   -5.4443    2.5182 C   0  0  0  0  0  0  0  0  0  0  0  0
    2.8745   -4.1462    1.8723 C   0  0  0  0  0  0  0  0  0  0  0  0
    1.0826   -5.3921    3.1957 C   0  0  2  0  0  0  0  0  0  0  0  0
    0.1792   -6.2786    2.5598 O   0  0  0  0  0  0  0  0  0  0  0  0
   -0.1750   -7.4529    3.2840 C   0  0  2  0  0  0  0  0  0  0  0  0
   -1.6801   -7.4793    3.5400 C   0  0  0  0  0  0  0  0  0  0  0  0
    0.7314   -7.7926    4.4683 C   0  0  0  0  0  0  0  0  0  0  0  0
    1.0583   -7.1634    5.6314 C   0  0  0  0  0  0  0  0  0  0  0  0
    2.0143   -7.8507    6.6023 C   0  0  0  0  0  0  0  0  0  0  0  0
    0.8697   -5.6266    5.8547 C   0  0  2  0  0  0  0  0  0  0  0  0
    2.1131   -5.1165    6.3171 O   0  0  0  0  0  0  0  0  0  0  0  0
   -0.1486   -5.2672    6.9527 C   0  0  0  0  0  0  0  0  0  0  0  0
   -0.2950   -3.7433    7.1421 C   0  0  0  0  0  0  0  0  0  0  0  0
   -0.4461   -3.2688    8.2676 O   0  0  0  0  0  0  0  0  0  0  0  0
   -0.3668   -2.8450    5.8851 C   0  0  1  0  0  0  0  0  0  0  0  0
   -0.1831   -1.3495    6.2149 C   0  0  0  0  0  0  0  0  0  0  0  0
    0.5692   -3.2958    4.7353 C   0  0  0  0  0  0  0  0  0  0  0  0
    0.5233   -4.8218    4.5405 C   0  0  1  0  0  0  0  0  0  0  0  0
    1.6772   -8.6356    3.5938 C   0  0  1  0  0  0  0  0  0  0  0  0
    0.4747   -8.6994    2.6417 C   0  0  1  0  0  0  0  0  0  0  0  0
   -0.2951  -10.0182    2.6313 C   0  0  0  0  0  0  0  0  0  0  0  0
    5.9658   -8.5605    4.4820 H   0  0  0  0  0  0  0  0  0  0  0  0
    5.6971   -7.3469    3.2415 H   0  0  0  0  0  0  0  0  0  0  0  0
    5.4727   -9.0643    2.8716 H   0  0  0  0  0  0  0  0  0  0  0  0
    3.3215   -8.6577    2.2200 H   0  0  0  0  0  0  0  0  0  0  0  0
    4.1008   -6.4939    1.8398 H   0  0  0  0  0  0  0  0  0  0  0  0
    2.1307   -3.8004    1.1548 H   0  0  0  0  0  0  0  0  0  0  0  0
    3.8183   -4.2667    1.3416 H   0  0  0  0  0  0  0  0  0  0  0  0
    3.0050   -3.3710    2.6305 H   0  0  0  0  0  0  0  0  0  0  0  0
    1.7800   -5.8444    3.8485 H   0  0  0  0  0  0  0  0  0  0  0  0
   -1.9788   -8.3748    4.0870 H   0  0  0  0  0  0  0  0  0  0  0  0
   -2.2199   -7.4994    2.5905 H   0  0  0  0  0  0  0  0  0  0  0  0
   -2.0388   -6.6228    4.1033 H   0  0  0  0  0  0  0  0  0  0  0  0
    1.6005   -7.7957    7.6109 H   0  0  0  0  0  0  0  0  0  0  0  0
    3.0144   -7.4088    6.6172 H   0  0  0  0  0  0  0  0  0  0  0  0
    2.1298   -8.9118    6.3529 H   0  0  0  0  0  0  0  0  0  0  0  0
    2.7697   -5.2912    5.6616 H   0  0  0  0  0  0  0  0  0  0  0  0
   -1.1308   -5.6535    6.6915 H   0  0  0  0  0  0  0  0  0  0  0  0
    0.1351   -5.7286    7.8992 H   0  0  0  0  0  0  0  0  0  0  0  0
   -1.3896   -2.9605    5.5354 H   0  0  0  0  0  0  0  0  0  0  0  0
   -0.9663   -0.9844    6.8784 H   0  0  0  0  0  0  0  0  0  0  0  0
   -0.2276   -0.7438    5.3096 H   0  0  0  0  0  0  0  0  0  0  0  0
    0.7750   -1.1544    6.6987 H   0  0  0  0  0  0  0  0  0  0  0  0
    0.2385   -2.8150    3.8108 H   0  0  0  0  0  0  0  0  0  0  0  0
    1.5869   -2.9492    4.9166 H   0  0  0  0  0  0  0  0  0  0  0  0
   -0.5423   -5.0082    4.4362 H   0  0  0  0  0  0  0  0  0  0  0  0
    1.8606   -9.6362    3.9958 H   0  0  0  0  0  0  0  0  0  0  0  0
    0.8073   -8.4474    1.6335 H   0  0  0  0  0  0  0  0  0  0  0  0
   -0.5837  -10.3181    3.6399 H   0  0  0  0  0  0  0  0  0  0  0  0
    0.3095  -10.8333    2.2359 H   0  0  0  0  0  0  0  0  0  0  0  0
   -1.1979   -9.9616    2.0258 H   0  0  0  0  0  0  0  0  0  0  0  0
  1  2  1  0
  1 26  1  0
  1 27  1  0
  1 28  1  0
  2  3  1  0
  3 23  1  0
  3  4  1  0
  3 29  1  6
  4  5  2  3
  4 30  1  0
  5  6  1  0
  5  7  1  0
  6 31  1  0
  6 32  1  0
  6 33  1  0
  7 22  1  0
  7  8  1  0
  7 34  1  6
  8  9  1  0
  9 24  1  0
  9 10  1  1
  9 11  1  0
 10 35  1  0
 10 36  1  0
 10 37  1  0
 11 12  2  0
 11 23  1  0
 12 13  1  0
 12 14  1  0
 13 38  1  0
 13 39  1  0
 13 40  1  0
 14 22  1  0
 14 15  1  1
 14 16  1  0
 15 41  1  0
 16 17  1  0
 16 42  1  0
 16 43  1  0
 17 18  2  0
 17 19  1  0
 19 20  1  0
 19 21  1  0
 19 44  1  6
 20 45  1  0
 20 46  1  0
 20 47  1  0
 21 22  1  0
 21 48  1  0
 21 49  1  0
 22 50  1  6
 23 24  1  0
 23 51  1  1
 24 25  1  0
 24 52  1  6
 25 53  1  0
 25 54  1  0
 25 55  1  0
M  END
>  <i_m_ct_stereo_status>  (131) 
1

>  <s_m_source_file>  (131) 
/var/tmp/pbs.5076255.sched01/tmp9rjncpta/544vc0qzzn.sdf

>  <i_m_source_file_index>  (131) 
6

>  <i_lp_mmshare_version>  (131) 
48012

>  <i_f3d_flags>  (131) 
0

>  <s_epik_input>  (131) 
W0NIM11bQ0BdMTJDPTNbQ0BASF0oW0NASF0yW0NIM10pW0NASF0oT1tDSDNdKS9bQ0hdPUMoL1tDSDNdKVtDSF0oTzEpW0NASF00W0NAXShbT0hdKShDM1tDSDNdKVtDSDJdQyg9TylbQ0BASF0oW0NIM10pW0NIMl00

>  <s_epik_cmdline>  (131) 
J2VwaWtfcHl0aG9uJywgJy1waHQnLCAnMi4wJywgJy1waCcsICc3LjAnLCAnLXRuJywgJzgnLCAnLW1hJywgJzIwMCcsICctaW1hZScsICc8aW5maWxlLm1hZT4nLCAnLW9tYWUnLCAnPG91dGZpbGUubWFlPic=

>  <r_lp_tautomer_probability>  (131) 
1

>  <r_epik_Ionization_Penalty>  (131) 
1.37115e-07

>  <r_epik_Ionization_Penalty_Charging>  (131) 
0

>  <r_epik_Ionization_Penalty_Neutral>  (131) 
1.37115e-07

>  <r_epik_State_Penalty>  (131) 
-0

>  <r_epik_Charging_Adjusted_Penalty>  (131) 
0

>  <i_epik_Tot_Q>  (131) 
0

>  <i_epik_Tot_abs_Q>  (131) 
0

>  <s_lp_Force_Field>  (131) 
OPLS3e

>  <r_lp_Energy>  (131) 
101.109

>  <b_lp_Chiralities_Consistent>  (131) 
1

>  <s_lp_Variant>  (131) 
38:0-1

>  <s_i_glide_gridfile>  (131) 
pfpi4k_grid

>  <i_i_glide_lignum>  (131) 
6

>  <i_i_glide_rotatable_bonds>  (131) 
2

>  <r_i_docking_score>  (131) 
-2.95496

>  <r_i_glide_ligand_efficiency>  (131) 
-0.118198

>  <r_i_glide_ligand_efficiency_sa>  (131) 
-0.345614

>  <r_i_glide_ligand_efficiency_ln>  (131) 
-0.700414

>  <r_i_glide_gscore>  (131) 
-2.95496

>  <r_i_glide_lipo>  (131) 
-0.0709277

>  <r_i_glide_hbond>  (131) 
-0.24677

>  <r_i_glide_metal>  (131) 
-0

>  <r_i_glide_rewards>  (131) 
-1.04686

>  <r_i_glide_evdw>  (131) 
-18.2943

>  <r_i_glide_ecoul>  (131) 
-4.33633

>  <r_i_glide_erotb>  (131) 
0

>  <r_i_glide_esite>  (131) 
-0.0252411

>  <r_i_glide_emodel>  (131) 
-26.7221

>  <r_i_glide_energy>  (131) 
-22.6306

>  <r_i_glide_einternal>  (131) 
0.024872

>  <r_i_glide_intrahb_reward>  (131) 
-0

>  <i_i_glide_confnum>  (131) 
1

>  <i_i_glide_posenum>  (131) 
1

>  <r_i_glide_eff_state_penalty>  (131) 
0

>  <ligand_id>  (131) 
38

>  <original_smiles>  (131) 
COC1C=C(C)C2OC3(C)C(=C(C)C4(O)CC(=O)C(C)CC24)C1C3C

>  <smiles>  (131) 
[H]OC12C(C([H])([H])[H])=C3C4([H])C([H])(OC([H])([H])[H])C([H])=C(C([H])([H])[H])C([H])(OC3(C([H])([H])[H])C4([H])C([H])([H])[H])C1([H])C([H])([H])C([H])(C([H])([H])[H])C(=O)C2([H])[H]

$$$$
38:0:1
     RDKit          3D

 55 58  0  0  1  0  0  0  0  0999 V2000
    5.3361   -8.3428    3.6126 C   0  0  0  0  0  0  0  0  0  0  0  0
    3.9863   -8.2510    4.0528 O   0  0  0  0  0  0  0  0  0  0  0  0
    3.0284   -8.0373    3.0220 C   0  0  2  0  0  0  0  0  0  0  0  0
    3.1967   -6.6132    2.3969 C   0  0  0  0  0  0  0  0  0  0  0  0
    2.4482   -5.4717    2.5056 C   0  0  0  0  0  0  0  0  0  0  0  0
    2.8812   -4.1710    1.8649 C   0  0  0  0  0  0  0  0  0  0  0  0
    1.0901   -5.4216    3.1839 C   0  0  2  0  0  0  0  0  0  0  0  0
    0.1833   -6.3001    2.5417 O   0  0  0  0  0  0  0  0  0  0  0  0
   -0.1728   -7.4786    3.2568 C   0  0  2  0  0  0  0  0  0  0  0  0
   -1.6796   -7.5085    3.5054 C   0  0  0  0  0  0  0  0  0  0  0  0
    0.7312   -7.8254    4.4431 C   0  0  0  0  0  0  0  0  0  0  0  0
    1.0579   -7.2006    5.6070 C   0  0  0  0  0  0  0  0  0  0  0  0
    2.0081   -7.8938    6.5813 C   0  0  0  0  0  0  0  0  0  0  0  0
    0.8664   -5.6654    5.8356 C   0  0  2  0  0  0  0  0  0  0  0  0
    2.1159   -5.1551    6.2793 O   0  0  0  0  0  0  0  0  0  0  0  0
   -0.1564   -5.3105    6.9351 C   0  0  0  0  0  0  0  0  0  0  0  0
   -0.3048   -3.7874    7.1296 C   0  0  0  0  0  0  0  0  0  0  0  0
   -0.4542   -3.3199    8.2577 O   0  0  0  0  0  0  0  0  0  0  0  0
   -0.3693   -2.8828    5.8780 C   0  0  1  0  0  0  0  0  0  0  0  0
   -0.1809   -1.3892    6.2131 C   0  0  0  0  0  0  0  0  0  0  0  0
    0.5682   -3.3314    4.7277 C   0  0  0  0  0  0  0  0  0  0  0  0
    0.5231   -4.8561    4.5256 C   0  0  1  0  0  0  0  0  0  0  0  0
    1.6789   -8.6649    3.5655 C   0  0  1  0  0  0  0  0  0  0  0  0
    0.4786   -8.7237    2.6107 C   0  0  1  0  0  0  0  0  0  0  0  0
   -0.2925  -10.0437    2.5914 C   0  0  0  0  0  0  0  0  0  0  0  0
    5.9636   -8.6084    4.4617 H   0  0  0  0  0  0  0  0  0  0  0  0
    5.7013   -7.3944    3.2181 H   0  0  0  0  0  0  0  0  0  0  0  0
    5.4716   -9.1140    2.8502 H   0  0  0  0  0  0  0  0  0  0  0  0
    3.3224   -8.6851    2.1909 H   0  0  0  0  0  0  0  0  0  0  0  0
    4.1062   -6.5188    1.8247 H   0  0  0  0  0  0  0  0  0  0  0  0
    2.1400   -3.8197    1.1472 H   0  0  0  0  0  0  0  0  0  0  0  0
    3.8261   -4.2889    1.3346 H   0  0  0  0  0  0  0  0  0  0  0  0
    3.0100   -3.4003    2.6278 H   0  0  0  0  0  0  0  0  0  0  0  0
    1.7885   -5.8750    3.8354 H   0  0  0  0  0  0  0  0  0  0  0  0
   -1.9818   -8.4054    4.0473 H   0  0  0  0  0  0  0  0  0  0  0  0
   -2.2118   -7.5240    2.5523 H   0  0  0  0  0  0  0  0  0  0  0  0
   -2.0418   -6.6536    4.0683 H   0  0  0  0  0  0  0  0  0  0  0  0
    1.5918   -7.8517    7.5879 H   0  0  0  0  0  0  0  0  0  0  0  0
    3.0104   -7.4559    6.5944 H   0  0  0  0  0  0  0  0  0  0  0  0
    2.1226   -8.9526    6.3233 H   0  0  0  0  0  0  0  0  0  0  0  0
    2.3466   -5.5986    7.0810 H   0  0  0  0  0  0  0  0  0  0  0  0
   -1.1379   -5.6942    6.6642 H   0  0  0  0  0  0  0  0  0  0  0  0
    0.1093   -5.7766    7.8845 H   0  0  0  0  0  0  0  0  0  0  0  0
   -1.3885   -2.9936    5.5205 H   0  0  0  0  0  0  0  0  0  0  0  0
   -0.9653   -1.0254    6.8754 H   0  0  0  0  0  0  0  0  0  0  0  0
   -0.2236   -0.7795    5.3116 H   0  0  0  0  0  0  0  0  0  0  0  0
    0.7763   -1.1987    6.6981 H   0  0  0  0  0  0  0  0  0  0  0  0
    0.2401   -2.8476    3.8037 H   0  0  0  0  0  0  0  0  0  0  0  0
    1.5877   -2.9899    4.9114 H   0  0  0  0  0  0  0  0  0  0  0  0
   -0.5426   -5.0415    4.4191 H   0  0  0  0  0  0  0  0  0  0  0  0
    1.8607   -9.6668    3.9633 H   0  0  0  0  0  0  0  0  0  0  0  0
    0.8128   -8.4668    1.6041 H   0  0  0  0  0  0  0  0  0  0  0  0
   -0.5861  -10.3481    3.5983 H   0  0  0  0  0  0  0  0  0  0  0  0
    0.3139  -10.8566    2.1929 H   0  0  0  0  0  0  0  0  0  0  0  0
   -1.1941   -9.9822    1.9840 H   0  0  0  0  0  0  0  0  0  0  0  0
  1  2  1  0
  1 26  1  0
  1 27  1  0
  1 28  1  0
  2  3  1  0
  3 23  1  0
  3  4  1  0
  3 29  1  6
  4  5  2  3
  4 30  1  0
  5  6  1  0
  5  7  1  0
  6 31  1  0
  6 32  1  0
  6 33  1  0
  7 22  1  0
  7  8  1  0
  7 34  1  6
  8  9  1  0
  9 24  1  0
  9 10  1  1
  9 11  1  0
 10 35  1  0
 10 36  1  0
 10 37  1  0
 11 12  2  0
 11 23  1  0
 12 13  1  0
 12 14  1  0
 13 38  1  0
 13 39  1  0
 13 40  1  0
 14 22  1  0
 14 15  1  1
 14 16  1  0
 15 41  1  0
 16 17  1  0
 16 42  1  0
 16 43  1  0
 17 18  2  0
 17 19  1  0
 19 20  1  0
 19 21  1  0
 19 44  1  6
 20 45  1  0
 20 46  1  0
 20 47  1  0
 21 22  1  0
 21 48  1  0
 21 49  1  0
 22 50  1  6
 23 24  1  0
 23 51  1  1
 24 25  1  0
 24 52  1  6
 25 53  1  0
 25 54  1  0
 25 55  1  0
M  END
>  <i_m_ct_stereo_status>  (132) 
1

>  <s_m_source_file>  (132) 
/var/tmp/pbs.5076255.sched01/tmp9rjncpta/544vc0qzzn.sdf

>  <i_m_source_file_index>  (132) 
6

>  <i_lp_mmshare_version>  (132) 
48012

>  <i_f3d_flags>  (132) 
0

>  <s_epik_input>  (132) 
W0NIM11bQ0BdMTJDPTNbQ0BASF0oW0NASF0yW0NIM10pW0NASF0oT1tDSDNdKS9bQ0hdPUMoL1tDSDNdKVtDSF0oTzEpW0NASF00W0NAXShbT0hdKShDM1tDSDNdKVtDSDJdQyg9TylbQ0BASF0oW0NIM10pW0NIMl00

>  <s_epik_cmdline>  (132) 
J2VwaWtfcHl0aG9uJywgJy1waHQnLCAnMi4wJywgJy1waCcsICc3LjAnLCAnLXRuJywgJzgnLCAnLW1hJywgJzIwMCcsICctaW1hZScsICc8aW5maWxlLm1hZT4nLCAnLW9tYWUnLCAnPG91dGZpbGUubWFlPic=

>  <r_lp_tautomer_probability>  (132) 
1

>  <r_epik_Ionization_Penalty>  (132) 
1.37115e-07

>  <r_epik_Ionization_Penalty_Charging>  (132) 
0

>  <r_epik_Ionization_Penalty_Neutral>  (132) 
1.37115e-07

>  <r_epik_State_Penalty>  (132) 
-0

>  <r_epik_Charging_Adjusted_Penalty>  (132) 
0

>  <i_epik_Tot_Q>  (132) 
0

>  <i_epik_Tot_abs_Q>  (132) 
0

>  <s_lp_Force_Field>  (132) 
OPLS3e

>  <r_lp_Energy>  (132) 
101.109

>  <b_lp_Chiralities_Consistent>  (132) 
1

>  <s_lp_Variant>  (132) 
38:0-1

>  <s_i_glide_gridfile>  (132) 
pfpi4k_grid

>  <i_i_glide_lignum>  (132) 
6

>  <i_i_glide_rotatable_bonds>  (132) 
2

>  <r_i_docking_score>  (132) 
-2.90495

>  <r_i_glide_ligand_efficiency>  (132) 
-0.116198

>  <r_i_glide_ligand_efficiency_sa>  (132) 
-0.339765

>  <r_i_glide_ligand_efficiency_ln>  (132) 
-0.68856

>  <r_i_glide_gscore>  (132) 
-2.90495

>  <r_i_glide_lipo>  (132) 
-0.088968

>  <r_i_glide_hbond>  (132) 
-0.236707

>  <r_i_glide_metal>  (132) 
-0

>  <r_i_glide_rewards>  (132) 
-1.04686

>  <r_i_glide_evdw>  (132) 
-18.4821

>  <r_i_glide_ecoul>  (132) 
-3.89315

>  <r_i_glide_erotb>  (132) 
0

>  <r_i_glide_esite>  (132) 
-0.0243378

>  <r_i_glide_emodel>  (132) 
-26.3834

>  <r_i_glide_energy>  (132) 
-22.3753

>  <r_i_glide_einternal>  (132) 
0.0383711

>  <r_i_glide_intrahb_reward>  (132) 
-0

>  <i_i_glide_confnum>  (132) 
2

>  <i_i_glide_posenum>  (132) 
35

>  <r_i_glide_eff_state_penalty>  (132) 
0

>  <ligand_id>  (132) 
38

>  <original_smiles>  (132) 
COC1C=C(C)C2OC3(C)C(=C(C)C4(O)CC(=O)C(C)CC24)C1C3C

>  <smiles>  (132) 
[H]OC12C(C([H])([H])[H])=C3C4([H])C([H])(OC([H])([H])[H])C([H])=C(C([H])([H])[H])C([H])(OC3(C([H])([H])[H])C4([H])C([H])([H])[H])C1([H])C([H])([H])C([H])(C([H])([H])[H])C(=O)C2([H])[H]

$$$$
38:0:2
     RDKit          3D

 55 58  0  0  1  0  0  0  0  0999 V2000
    5.5242   -8.3342    2.1581 C   0  0  0  0  0  0  0  0  0  0  0  0
    4.3396   -8.1231    2.9151 O   0  0  0  0  0  0  0  0  0  0  0  0
    3.1482   -8.0011    2.1473 C   0  0  2  0  0  0  0  0  0  0  0  0
    3.1566   -6.6705    1.3196 C   0  0  0  0  0  0  0  0  0  0  0  0
    2.4668   -5.5009    1.4691 C   0  0  0  0  0  0  0  0  0  0  0  0
    2.7189   -4.3075    0.5749 C   0  0  0  0  0  0  0  0  0  0  0  0
    1.3321   -5.3304    2.4651 C   0  0  2  0  0  0  0  0  0  0  0  0
    0.2950   -6.2573    2.1875 O   0  0  0  0  0  0  0  0  0  0  0  0
    0.1191   -7.3055    3.1278 C   0  0  2  0  0  0  0  0  0  0  0  0
   -1.2739   -7.2347    3.7495 C   0  0  0  0  0  0  0  0  0  0  0  0
    1.2966   -7.5339    4.0757 C   0  0  0  0  0  0  0  0  0  0  0  0
    1.9161   -6.7765    5.0237 C   0  0  0  0  0  0  0  0  0  0  0  0
    3.0858   -7.3765    5.7971 C   0  0  0  0  0  0  0  0  0  0  0  0
    1.7954   -5.2185    5.0879 C   0  0  2  0  0  0  0  0  0  0  0  0
    3.1203   -4.7030    5.1257 O   0  0  0  0  0  0  0  0  0  0  0  0
    1.0926   -4.6927    6.3564 C   0  0  0  0  0  0  0  0  0  0  0  0
    1.0080   -3.1538    6.3815 C   0  0  0  0  0  0  0  0  0  0  0  0
    1.1841   -2.5479    7.4353 O   0  0  0  0  0  0  0  0  0  0  0  0
    0.6123   -2.4117    5.0828 C   0  0  1  0  0  0  0  0  0  0  0  0
    0.8887   -0.8959    5.1673 C   0  0  0  0  0  0  0  0  0  0  0  0
    1.2256   -3.0320    3.8000 C   0  0  0  0  0  0  0  0  0  0  0  0
    1.1251   -4.5686    3.8156 C   0  0  1  0  0  0  0  0  0  0  0  0
    1.9822   -8.5073    3.0988 C   0  0  1  0  0  0  0  0  0  0  0  0
    0.5738   -8.6424    2.5047 C   0  0  1  0  0  0  0  0  0  0  0  0
   -0.1850   -9.9243    2.8487 C   0  0  0  0  0  0  0  0  0  0  0  0
    6.3482   -8.5124    2.8458 H   0  0  0  0  0  0  0  0  0  0  0  0
    5.7823   -7.4653    1.5533 H   0  0  0  0  0  0  0  0  0  0  0  0
    5.4464   -9.2045    1.5041 H   0  0  0  0  0  0  0  0  0  0  0  0
    3.2106   -8.7541    1.3578 H   0  0  0  0  0  0  0  0  0  0  0  0
    3.8854   -6.6812    0.5238 H   0  0  0  0  0  0  0  0  0  0  0  0
    1.8238   -4.0260    0.0233 H   0  0  0  0  0  0  0  0  0  0  0  0
    3.4900   -4.5247   -0.1610 H   0  0  0  0  0  0  0  0  0  0  0  0
    3.0390   -3.4502    1.1672 H   0  0  0  0  0  0  0  0  0  0  0  0
    2.1785   -5.7164    2.9694 H   0  0  0  0  0  0  0  0  0  0  0  0
   -1.4345   -8.0394    4.4662 H   0  0  0  0  0  0  0  0  0  0  0  0
   -2.0359   -7.3535    2.9769 H   0  0  0  0  0  0  0  0  0  0  0  0
   -1.4671   -6.2936    4.2577 H   0  0  0  0  0  0  0  0  0  0  0  0
    2.9452   -7.1921    6.8638 H   0  0  0  0  0  0  0  0  0  0  0  0
    4.0584   -6.9784    5.4952 H   0  0  0  0  0  0  0  0  0  0  0  0
    3.1232   -8.4619    5.6577 H   0  0  0  0  0  0  0  0  0  0  0  0
    3.5399   -5.0285    5.9070 H   0  0  0  0  0  0  0  0  0  0  0  0
    0.0744   -5.0732    6.4015 H   0  0  0  0  0  0  0  0  0  0  0  0
    1.5984   -5.0445    7.2568 H   0  0  0  0  0  0  0  0  0  0  0  0
   -0.4687   -2.5304    5.0163 H   0  0  0  0  0  0  0  0  0  0  0  0
    0.3070   -0.4266    5.9614 H   0  0  0  0  0  0  0  0  0  0  0  0
    0.6199   -0.3966    4.2362 H   0  0  0  0  0  0  0  0  0  0  0  0
    1.9406   -0.6817    5.3626 H   0  0  0  0  0  0  0  0  0  0  0  0
    0.6746   -2.6509    2.9370 H   0  0  0  0  0  0  0  0  0  0  0  0
    2.2584   -2.7040    3.6741 H   0  0  0  0  0  0  0  0  0  0  0  0
    0.0657   -4.7170    4.0049 H   0  0  0  0  0  0  0  0  0  0  0  0
    2.2574   -9.4607    3.5583 H   0  0  0  0  0  0  0  0  0  0  0  0
    0.6405   -8.5121    1.4235 H   0  0  0  0  0  0  0  0  0  0  0  0
   -0.2230  -10.0994    3.9264 H   0  0  0  0  0  0  0  0  0  0  0  0
    0.2954  -10.7988    2.4118 H   0  0  0  0  0  0  0  0  0  0  0  0
   -1.2099   -9.8993    2.4844 H   0  0  0  0  0  0  0  0  0  0  0  0
  1  2  1  0
  1 26  1  0
  1 27  1  0
  1 28  1  0
  2  3  1  0
  3 23  1  0
  3  4  1  0
  3 29  1  6
  4  5  2  3
  4 30  1  0
  5  6  1  0
  5  7  1  0
  6 31  1  0
  6 32  1  0
  6 33  1  0
  7 22  1  0
  7  8  1  0
  7 34  1  6
  8  9  1  0
  9 24  1  0
  9 10  1  1
  9 11  1  0
 10 35  1  0
 10 36  1  0
 10 37  1  0
 11 12  2  0
 11 23  1  0
 12 13  1  0
 12 14  1  0
 13 38  1  0
 13 39  1  0
 13 40  1  0
 14 22  1  0
 14 15  1  1
 14 16  1  0
 15 41  1  0
 16 17  1  0
 16 42  1  0
 16 43  1  0
 17 18  2  0
 17 19  1  0
 19 20  1  0
 19 21  1  0
 19 44  1  6
 20 45  1  0
 20 46  1  0
 20 47  1  0
 21 22  1  0
 21 48  1  0
 21 49  1  0
 22 50  1  1
 23 24  1  0
 23 51  1  1
 24 25  1  0
 24 52  1  6
 25 53  1  0
 25 54  1  0
 25 55  1  0
M  END
>  <i_m_ct_stereo_status>  (133) 
1

>  <s_m_source_file>  (133) 
/var/tmp/pbs.5076255.sched01/tmp9rjncpta/544vc0qzzn.sdf

>  <i_m_source_file_index>  (133) 
6

>  <i_lp_mmshare_version>  (133) 
48012

>  <i_f3d_flags>  (133) 
0

>  <s_epik_input>  (133) 
W0NIM11bQ0BdMTJDPTNbQ0BASF0oW0NASF0yW0NIM10pW0NASF0oT1tDSDNdKS9bQ0hdPUMoL1tDSDNdKVtDSF0oTzEpW0NASF00W0NAXShbT0hdKShDM1tDSDNdKVtDSDJdQyg9TylbQ0BASF0oW0NIM10pW0NIMl00

>  <s_epik_cmdline>  (133) 
J2VwaWtfcHl0aG9uJywgJy1waHQnLCAnMi4wJywgJy1waCcsICc3LjAnLCAnLXRuJywgJzgnLCAnLW1hJywgJzIwMCcsICctaW1hZScsICc8aW5maWxlLm1hZT4nLCAnLW9tYWUnLCAnPG91dGZpbGUubWFlPic=

>  <r_lp_tautomer_probability>  (133) 
1

>  <r_epik_Ionization_Penalty>  (133) 
1.37115e-07

>  <r_epik_Ionization_Penalty_Charging>  (133) 
0

>  <r_epik_Ionization_Penalty_Neutral>  (133) 
1.37115e-07

>  <r_epik_State_Penalty>  (133) 
-0

>  <r_epik_Charging_Adjusted_Penalty>  (133) 
0

>  <i_epik_Tot_Q>  (133) 
0

>  <i_epik_Tot_abs_Q>  (133) 
0

>  <s_lp_Force_Field>  (133) 
OPLS3e

>  <r_lp_Energy>  (133) 
101.109

>  <b_lp_Chiralities_Consistent>  (133) 
1

>  <s_lp_Variant>  (133) 
38:0-1

>  <s_i_glide_gridfile>  (133) 
pfpi4k_grid

>  <i_i_glide_lignum>  (133) 
6

>  <i_i_glide_rotatable_bonds>  (133) 
2

>  <r_i_docking_score>  (133) 
-2.79204

>  <r_i_glide_ligand_efficiency>  (133) 
-0.111682

>  <r_i_glide_ligand_efficiency_sa>  (133) 
-0.326559

>  <r_i_glide_ligand_efficiency_ln>  (133) 
-0.661797

>  <r_i_glide_gscore>  (133) 
-2.79204

>  <r_i_glide_lipo>  (133) 
-0.125905

>  <r_i_glide_hbond>  (133) 
-0.200133

>  <r_i_glide_metal>  (133) 
-0

>  <r_i_glide_rewards>  (133) 
-1.04686

>  <r_i_glide_evdw>  (133) 
-18.1941

>  <r_i_glide_ecoul>  (133) 
-3.3855

>  <r_i_glide_erotb>  (133) 
0

>  <r_i_glide_esite>  (133) 
-0.00161529

>  <r_i_glide_emodel>  (133) 
-25.4246

>  <r_i_glide_energy>  (133) 
-21.5796

>  <r_i_glide_einternal>  (133) 
0.0340294

>  <r_i_glide_intrahb_reward>  (133) 
-0

>  <i_i_glide_confnum>  (133) 
1

>  <i_i_glide_posenum>  (133) 
13

>  <r_i_glide_eff_state_penalty>  (133) 
0

>  <ligand_id>  (133) 
38

>  <original_smiles>  (133) 
COC1C=C(C)C2OC3(C)C(=C(C)C4(O)CC(=O)C(C)CC24)C1C3C

>  <smiles>  (133) 
[H]OC12C(C([H])([H])[H])=C3C4([H])C([H])(OC([H])([H])[H])C([H])=C(C([H])([H])[H])C([H])(OC3(C([H])([H])[H])C4([H])C([H])([H])[H])C1([H])C([H])([H])C([H])(C([H])([H])[H])C(=O)C2([H])[H]

$$$$
40:0:0
     RDKit          3D

 48 50  0  0  1  0  0  0  0  0999 V2000
    6.8785   -3.2866   -1.5615 C   0  0  0  0  0  0  0  0  0  0  0  0
    5.8614   -3.1908   -0.5681 O   0  0  0  0  0  0  0  0  0  0  0  0
    6.0227   -2.3346    0.4558 C   0  0  0  0  0  0  0  0  0  0  0  0
    7.1284   -1.8758    0.7126 O   0  0  0  0  0  0  0  0  0  0  0  0
    4.7310   -1.9902    1.3108 C   0  0  1  0  0  0  0  0  0  0  0  0
    4.8893   -0.5612    2.0223 C   0  0  0  0  0  0  0  0  0  0  0  0
    6.0859   -0.3891    3.0064 C   0  0  0  0  0  0  0  0  0  0  0  0
    3.6463    0.0821    2.7271 C   0  0  0  0  0  0  0  0  0  0  0  0
    3.4065   -2.0584    0.4308 C   0  0  1  0  0  0  0  0  0  0  0  0
    3.4558   -1.9658   -1.0864 C   0  0  0  0  0  0  0  0  0  0  0  0
    3.9050   -0.8988   -1.8703 C   0  0  0  0  0  0  0  0  0  0  0  0
    3.7523   -0.9454   -3.2760 C   0  0  0  0  0  0  0  0  0  0  0  0
    4.1499    0.1552   -3.9896 O   0  0  0  0  0  0  0  0  0  0  0  0
    3.5532    0.3941   -5.2566 C   0  0  0  0  0  0  0  0  0  0  0  0
    3.2039   -2.1170   -3.8656 C   0  0  0  0  0  0  0  0  0  0  0  0
    2.7712   -3.1932   -3.0698 C   0  0  0  0  0  0  0  0  0  0  0  0
    2.9131   -3.0992   -1.6790 C   0  0  0  0  0  0  0  0  0  0  0  0
    2.4710   -4.1143   -0.6543 C   0  0  0  0  0  0  0  0  0  0  0  0
    2.7961   -3.4535    0.7055 C   0  0  1  0  0  0  0  0  0  0  0  0
    3.8283   -4.1978    1.5458 C   0  0  0  0  0  0  0  0  0  0  0  0
    4.5678   -3.1453    2.2801 N   0  0  2  0  0  0  0  0  0  0  0  0
    3.8648   -2.9071    3.5771 C   0  0  0  0  0  0  0  0  0  0  0  0
    6.5236   -3.8921   -2.3961 H   0  0  0  0  0  0  0  0  0  0  0  0
    7.7774   -3.7242   -1.1219 H   0  0  0  0  0  0  0  0  0  0  0  0
    7.1371   -2.3054   -1.9683 H   0  0  0  0  0  0  0  0  0  0  0  0
    5.0947    0.1051    1.1870 H   0  0  0  0  0  0  0  0  0  0  0  0
    6.0076   -1.0225    3.8866 H   0  0  0  0  0  0  0  0  0  0  0  0
    6.1285    0.6319    3.3894 H   0  0  0  0  0  0  0  0  0  0  0  0
    7.0666   -0.5960    2.5916 H   0  0  0  0  0  0  0  0  0  0  0  0
    3.4323   -0.3407    3.7115 H   0  0  0  0  0  0  0  0  0  0  0  0
    2.7224    0.0788    2.1508 H   0  0  0  0  0  0  0  0  0  0  0  0
    3.8516    1.1355    2.9379 H   0  0  0  0  0  0  0  0  0  0  0  0
    2.6469   -1.3363    0.6989 H   0  0  0  0  0  0  0  0  0  0  0  0
    4.2929   -0.0083   -1.4008 H   0  0  0  0  0  0  0  0  0  0  0  0
    3.9959    1.3027   -5.6586 H   0  0  0  0  0  0  0  0  0  0  0  0
    2.4800    0.5680   -5.1666 H   0  0  0  0  0  0  0  0  0  0  0  0
    3.7357   -0.3942   -5.9843 H   0  0  0  0  0  0  0  0  0  0  0  0
    3.1025   -2.1972   -4.9283 H   0  0  0  0  0  0  0  0  0  0  0  0
    2.3415   -4.0769   -3.5187 H   0  0  0  0  0  0  0  0  0  0  0  0
    1.4040   -4.3070   -0.7715 H   0  0  0  0  0  0  0  0  0  0  0  0
    2.9987   -5.0614   -0.7384 H   0  0  0  0  0  0  0  0  0  0  0  0
    1.8898   -3.3150    1.2957 H   0  0  0  0  0  0  0  0  0  0  0  0
    3.3607   -4.9254    2.2125 H   0  0  0  0  0  0  0  0  0  0  0  0
    4.5392   -4.7539    0.9254 H   0  0  0  0  0  0  0  0  0  0  0  0
    2.8596   -2.5112    3.4147 H   0  0  0  0  0  0  0  0  0  0  0  0
    4.4137   -2.2535    4.2562 H   0  0  0  0  0  0  0  0  0  0  0  0
    3.7491   -3.8447    4.1240 H   0  0  0  0  0  0  0  0  0  0  0  0
    5.4936   -3.4860    2.5072 H   0  0  0  0  0  0  0  0  0  0  0  0
  1  2  1  0
  1 23  1  0
  1 24  1  0
  1 25  1  0
  2  3  1  0
  3  4  2  0
  3  5  1  0
  5 21  1  0
  5  6  1  1
  5  9  1  0
  6  7  1  0
  6  8  1  0
  6 26  1  0
  7 27  1  0
  7 28  1  0
  7 29  1  0
  8 30  1  0
  8 31  1  0
  8 32  1  0
  9 19  1  0
  9 10  1  0
  9 33  1  1
 10 17  2  0
 10 11  1  0
 11 12  2  0
 11 34  1  0
 12 13  1  0
 12 15  1  0
 13 14  1  0
 14 35  1  0
 14 36  1  0
 14 37  1  0
 15 16  2  0
 15 38  1  0
 16 17  1  0
 16 39  1  0
 17 18  1  0
 18 19  1  0
 18 40  1  0
 18 41  1  0
 19 20  1  0
 19 42  1  1
 20 21  1  0
 20 43  1  0
 20 44  1  0
 21 22  1  0
 21 48  1  1
 22 45  1  0
 22 46  1  0
 22 47  1  0
M  CHG  1  21   1
M  END
>  <i_m_ct_stereo_status>  (134) 
1

>  <s_m_source_file>  (134) 
/var/tmp/pbs.5076255.sched01/tmp9rjncpta/544vc0qzzn.sdf

>  <i_m_source_file_index>  (134) 
10

>  <i_lp_mmshare_version>  (134) 
48012

>  <i_f3d_flags>  (134) 
0

>  <s_epik_input>  (134) 
W0NIM11PQyg9TylbQ0BdMShbQ0hdKFtDSDNdKVtDSDNdKU4oW0NIM10pW0NIMl1bQ0BASF0yW0NIMl1jKGMzW0NASF0xMilbY0hdW2NIXWMoW2NIXTMpT1tDSDNd

>  <s_epik_cmdline>  (134) 
J2VwaWtfcHl0aG9uJywgJy1waHQnLCAnMi4wJywgJy1waCcsICc3LjAnLCAnLXRuJywgJzgnLCAnLW1hJywgJzIwMCcsICctaW1hZScsICc8aW5maWxlLm1hZT4nLCAnLW9tYWUnLCAnPG91dGZpbGUubWFlPic=

>  <r_lp_tautomer_probability>  (134) 
1

>  <r_epik_Ionization_Penalty>  (134) 
0.15378

>  <r_epik_Ionization_Penalty_Charging>  (134) 
0.15378

>  <r_epik_Ionization_Penalty_Neutral>  (134) 
0

>  <r_epik_State_Penalty>  (134) 
0.143072

>  <r_epik_Charging_Adjusted_Penalty>  (134) 
0.296852

>  <i_epik_Tot_Q>  (134) 
1

>  <i_epik_Tot_abs_Q>  (134) 
1

>  <s_epik_Chemistry_Notes>  (134) 
This compound has an ester and may undergo hydrolysis at high or low pH.

>  <s_lp_Force_Field>  (134) 
OPLS3e

>  <r_lp_Energy>  (134) 
41.5922

>  <b_lp_Chiralities_Consistent>  (134) 
1

>  <s_lp_Variant>  (134) 
40:0-1

>  <s_i_glide_gridfile>  (134) 
pfpi4k_grid

>  <i_i_glide_lignum>  (134) 
10

>  <i_i_glide_rotatable_bonds>  (134) 
4

>  <r_i_docking_score>  (134) 
-3.56546

>  <r_i_glide_ligand_efficiency>  (134) 
-0.162066

>  <r_i_glide_ligand_efficiency_sa>  (134) 
-0.454116

>  <r_i_glide_ligand_efficiency_ln>  (134) 
-0.871528

>  <r_i_glide_gscore>  (134) 
-3.56546

>  <r_i_glide_lipo>  (134) 
-0.92426

>  <r_i_glide_hbond>  (134) 
0

>  <r_i_glide_metal>  (134) 
-0

>  <r_i_glide_rewards>  (134) 
-1.41887

>  <r_i_glide_evdw>  (134) 
-22.0859

>  <r_i_glide_ecoul>  (134) 
-2.11367

>  <r_i_glide_erotb>  (134) 
0.199022

>  <r_i_glide_esite>  (134) 
0

>  <r_i_glide_emodel>  (134) 
-22.9568

>  <r_i_glide_energy>  (134) 
-24.1996

>  <r_i_glide_einternal>  (134) 
11.9864

>  <r_i_glide_intrahb_reward>  (134) 
-0

>  <i_i_glide_confnum>  (134) 
5

>  <i_i_glide_posenum>  (134) 
14

>  <r_i_glide_eff_state_penalty>  (134) 
0

>  <ligand_id>  (134) 
40

>  <original_smiles>  (134) 
COC(=O)C1(C(C)C)C2c3cc(OC)ccc3CC2CN1C

>  <smiles>  (134) 
[H]c1c([H])c2c(c([H])c1OC([H])([H])[H])C1([H])C([H])(C2([H])[H])C([H])([H])[N+]([H])(C([H])([H])[H])C1(C(=O)OC([H])([H])[H])C([H])(C([H])([H])[H])C([H])([H])[H]

$$$$
40:0:1
     RDKit          3D

 48 50  0  0  1  0  0  0  0  0999 V2000
    8.3503   -2.0844    0.1575 C   0  0  0  0  0  0  0  0  0  0  0  0
    7.0911   -1.7866    0.7257 O   0  0  0  0  0  0  0  0  0  0  0  0
    5.9854   -2.4774    0.4376 C   0  0  0  0  0  0  0  0  0  0  0  0
    5.9714   -3.3852   -0.3998 O   0  0  0  0  0  0  0  0  0  0  0  0
    4.7117   -2.0529    1.2934 C   0  0  1  0  0  0  0  0  0  0  0  0
    4.8738   -0.6084    1.9830 C   0  0  0  0  0  0  0  0  0  0  0  0
    6.0555   -0.4015    3.0000 C   0  0  0  0  0  0  0  0  0  0  0  0
    3.6244    0.0442    2.6720 C   0  0  0  0  0  0  0  0  0  0  0  0
    3.4020   -2.1542    0.4116 C   0  0  1  0  0  0  0  0  0  0  0  0
    3.4763   -2.1044   -1.1085 C   0  0  0  0  0  0  0  0  0  0  0  0
    3.9247   -1.0483   -1.9079 C   0  0  0  0  0  0  0  0  0  0  0  0
    3.7929   -1.1230   -3.3187 C   0  0  0  0  0  0  0  0  0  0  0  0
    4.2009   -0.0526   -4.0537 O   0  0  0  0  0  0  0  0  0  0  0  0
    3.6279    0.1532   -5.3355 C   0  0  0  0  0  0  0  0  0  0  0  0
    3.2345   -2.3035   -3.8832 C   0  0  0  0  0  0  0  0  0  0  0  0
    2.7767   -3.3541   -3.0659 C   0  0  0  0  0  0  0  0  0  0  0  0
    2.9175   -3.2394   -1.6813 C   0  0  0  0  0  0  0  0  0  0  0  0
    2.4494   -4.2177   -0.6360 C   0  0  0  0  0  0  0  0  0  0  0  0
    2.7690   -3.5317    0.7086 C   0  0  1  0  0  0  0  0  0  0  0  0
    3.7788   -4.2682    1.5723 C   0  0  0  0  0  0  0  0  0  0  0  0
    4.5197   -3.1891    2.2905 N   0  0  2  0  0  0  0  0  0  0  0  0
    3.8099   -2.9168    3.5874 C   0  0  0  0  0  0  0  0  0  0  0  0
    9.0971   -1.4221    0.5960 H   0  0  0  0  0  0  0  0  0  0  0  0
    8.3846   -1.9296   -0.9300 H   0  0  0  0  0  0  0  0  0  0  0  0
    8.6770   -3.1117    0.3691 H   0  0  0  0  0  0  0  0  0  0  0  0
    5.0756    0.0398    1.1416 H   0  0  0  0  0  0  0  0  0  0  0  0
    5.9536   -1.0236    3.8901 H   0  0  0  0  0  0  0  0  0  0  0  0
    6.0552    0.6325    3.3817 H   0  0  0  0  0  0  0  0  0  0  0  0
    7.0574   -0.5776    2.6436 H   0  0  0  0  0  0  0  0  0  0  0  0
    3.4222   -0.3441    3.6755 H   0  0  0  0  0  0  0  0  0  0  0  0
    2.6942    0.0081    2.1063 H   0  0  0  0  0  0  0  0  0  0  0  0
    3.8233    1.1073    2.8525 H   0  0  0  0  0  0  0  0  0  0  0  0
    2.6406   -1.4048    0.6439 H   0  0  0  0  0  0  0  0  0  0  0  0
    4.3010   -0.1436   -1.4520 H   0  0  0  0  0  0  0  0  0  0  0  0
    4.0885    1.0335   -5.7734 H   0  0  0  0  0  0  0  0  0  0  0  0
    2.5527    0.3390   -5.2728 H   0  0  0  0  0  0  0  0  0  0  0  0
    3.8168   -0.6545   -6.0367 H   0  0  0  0  0  0  0  0  0  0  0  0
    3.1415   -2.4304   -4.9445 H   0  0  0  0  0  0  0  0  0  0  0  0
    2.3240   -4.2220   -3.5174 H   0  0  0  0  0  0  0  0  0  0  0  0
    1.3806   -4.4044   -0.7773 H   0  0  0  0  0  0  0  0  0  0  0  0
    2.9704   -5.1752   -0.6723 H   0  0  0  0  0  0  0  0  0  0  0  0
    1.8548   -3.3653    1.2911 H   0  0  0  0  0  0  0  0  0  0  0  0
    3.3018   -4.9584    2.2632 H   0  0  0  0  0  0  0  0  0  0  0  0
    4.4891   -4.8375    0.9852 H   0  0  0  0  0  0  0  0  0  0  0  0
    2.8198   -2.5235    3.3997 H   0  0  0  0  0  0  0  0  0  0  0  0
    4.3588   -2.2739    4.2480 H   0  0  0  0  0  0  0  0  0  0  0  0
    3.6758   -3.8392    4.1364 H   0  0  0  0  0  0  0  0  0  0  0  0
    5.4565   -3.5451    2.5443 H   0  0  0  0  0  0  0  0  0  0  0  0
  1  2  1  0
  1 23  1  0
  1 24  1  0
  1 25  1  0
  2  3  1  0
  3  4  2  0
  3  5  1  0
  5 21  1  0
  5  6  1  1
  5  9  1  0
  6  7  1  0
  6  8  1  0
  6 26  1  0
  7 27  1  0
  7 28  1  0
  7 29  1  0
  8 30  1  0
  8 31  1  0
  8 32  1  0
  9 19  1  0
  9 10  1  0
  9 33  1  1
 10 17  2  0
 10 11  1  0
 11 12  2  0
 11 34  1  0
 12 13  1  0
 12 15  1  0
 13 14  1  0
 14 35  1  0
 14 36  1  0
 14 37  1  0
 15 16  2  0
 15 38  1  0
 16 17  1  0
 16 39  1  0
 17 18  1  0
 18 19  1  0
 18 40  1  0
 18 41  1  0
 19 20  1  0
 19 42  1  1
 20 21  1  0
 20 43  1  0
 20 44  1  0
 21 22  1  0
 21 48  1  1
 22 45  1  0
 22 46  1  0
 22 47  1  0
M  CHG  1  21   1
M  END
>  <i_m_ct_stereo_status>  (135) 
1

>  <s_m_source_file>  (135) 
/var/tmp/pbs.5076255.sched01/tmp9rjncpta/544vc0qzzn.sdf

>  <i_m_source_file_index>  (135) 
10

>  <i_lp_mmshare_version>  (135) 
48012

>  <i_f3d_flags>  (135) 
0

>  <s_epik_input>  (135) 
W0NIM11PQyg9TylbQ0BdMShbQ0hdKFtDSDNdKVtDSDNdKU4oW0NIM10pW0NIMl1bQ0BASF0yW0NIMl1jKGMzW0NASF0xMilbY0hdW2NIXWMoW2NIXTMpT1tDSDNd

>  <s_epik_cmdline>  (135) 
J2VwaWtfcHl0aG9uJywgJy1waHQnLCAnMi4wJywgJy1waCcsICc3LjAnLCAnLXRuJywgJzgnLCAnLW1hJywgJzIwMCcsICctaW1hZScsICc8aW5maWxlLm1hZT4nLCAnLW9tYWUnLCAnPG91dGZpbGUubWFlPic=

>  <r_lp_tautomer_probability>  (135) 
1

>  <r_epik_Ionization_Penalty>  (135) 
0.15378

>  <r_epik_Ionization_Penalty_Charging>  (135) 
0.15378

>  <r_epik_Ionization_Penalty_Neutral>  (135) 
0

>  <r_epik_State_Penalty>  (135) 
0.143072

>  <r_epik_Charging_Adjusted_Penalty>  (135) 
0.296852

>  <i_epik_Tot_Q>  (135) 
1

>  <i_epik_Tot_abs_Q>  (135) 
1

>  <s_epik_Chemistry_Notes>  (135) 
This compound has an ester and may undergo hydrolysis at high or low pH.

>  <s_lp_Force_Field>  (135) 
OPLS3e

>  <r_lp_Energy>  (135) 
41.5922

>  <b_lp_Chiralities_Consistent>  (135) 
1

>  <s_lp_Variant>  (135) 
40:0-1

>  <s_i_glide_gridfile>  (135) 
pfpi4k_grid

>  <i_i_glide_lignum>  (135) 
10

>  <i_i_glide_rotatable_bonds>  (135) 
4

>  <r_i_docking_score>  (135) 
-3.41812

>  <r_i_glide_ligand_efficiency>  (135) 
-0.155369

>  <r_i_glide_ligand_efficiency_sa>  (135) 
-0.435351

>  <r_i_glide_ligand_efficiency_ln>  (135) 
-0.835514

>  <r_i_glide_gscore>  (135) 
-3.41812

>  <r_i_glide_lipo>  (135) 
-0.808362

>  <r_i_glide_hbond>  (135) 
0

>  <r_i_glide_metal>  (135) 
-0

>  <r_i_glide_rewards>  (135) 
-1.41533

>  <r_i_glide_evdw>  (135) 
-23.2927

>  <r_i_glide_ecoul>  (135) 
-1.52546

>  <r_i_glide_erotb>  (135) 
0.199022

>  <r_i_glide_esite>  (135) 
0

>  <r_i_glide_emodel>  (135) 
-24.0712

>  <r_i_glide_energy>  (135) 
-24.8182

>  <r_i_glide_einternal>  (135) 
11.255

>  <r_i_glide_intrahb_reward>  (135) 
-0

>  <i_i_glide_confnum>  (135) 
5

>  <i_i_glide_posenum>  (135) 
12

>  <r_i_glide_eff_state_penalty>  (135) 
0

>  <ligand_id>  (135) 
40

>  <original_smiles>  (135) 
COC(=O)C1(C(C)C)C2c3cc(OC)ccc3CC2CN1C

>  <smiles>  (135) 
[H]c1c([H])c2c(c([H])c1OC([H])([H])[H])C1([H])C([H])(C2([H])[H])C([H])([H])[N+]([H])(C([H])([H])[H])C1(C(=O)OC([H])([H])[H])C([H])(C([H])([H])[H])C([H])([H])[H]

$$$$
40:0:2
     RDKit          3D

 48 50  0  0  1  0  0  0  0  0999 V2000
    5.0741   -1.2562    2.8696 C   0  0  0  0  0  0  0  0  0  0  0  0
    4.7416   -2.0866    1.7610 O   0  0  0  0  0  0  0  0  0  0  0  0
    5.3344   -1.8513    0.5517 C   0  0  0  0  0  0  0  0  0  0  0  0
    6.0749   -0.9192    0.3258 O   0  0  0  0  0  0  0  0  0  0  0  0
    4.8553   -2.8036   -0.6205 C   0  0  1  0  0  0  0  0  0  0  0  0
    5.8652   -2.6258   -1.8667 C   0  0  0  0  0  0  0  0  0  0  0  0
    5.6274   -3.5585   -3.1108 C   0  0  0  0  0  0  0  0  0  0  0  0
    7.3877   -2.7576   -1.5357 C   0  0  0  0  0  0  0  0  0  0  0  0
    4.6554   -4.3077   -0.2004 C   0  0  1  0  0  0  0  0  0  0  0  0
    5.3451   -4.9105    1.0113 C   0  0  0  0  0  0  0  0  0  0  0  0
    6.7270   -5.0898    1.2195 C   0  0  0  0  0  0  0  0  0  0  0  0
    7.1679   -5.7462    2.3908 C   0  0  0  0  0  0  0  0  0  0  0  0
    8.5254   -5.8894    2.5422 O   0  0  0  0  0  0  0  0  0  0  0  0
    9.0207   -6.5959    3.6743 C   0  0  0  0  0  0  0  0  0  0  0  0
    6.2051   -6.2142    3.3343 C   0  0  0  0  0  0  0  0  0  0  0  0
    4.8208   -6.0462    3.1010 C   0  0  0  0  0  0  0  0  0  0  0  0
    4.4245   -5.3959    1.9233 C   0  0  0  0  0  0  0  0  0  0  0  0
    2.9981   -5.1787    1.4812 C   0  0  0  0  0  0  0  0  0  0  0  0
    3.1473   -4.4712    0.1147 C   0  0  1  0  0  0  0  0  0  0  0  0
    2.5559   -3.0695    0.0301 C   0  0  0  0  0  0  0  0  0  0  0  0
    3.4497   -2.3290   -0.8982 N   0  0  2  0  0  0  0  0  0  0  0  0
    2.8836   -2.4581   -2.2664 C   0  0  0  0  0  0  0  0  0  0  0  0
    4.4431   -1.5011    3.7310 H   0  0  0  0  0  0  0  0  0  0  0  0
    4.9331   -0.2066    2.6177 H   0  0  0  0  0  0  0  0  0  0  0  0
    6.1179   -1.4076    3.1333 H   0  0  0  0  0  0  0  0  0  0  0  0
    5.7127   -1.6001   -2.2106 H   0  0  0  0  0  0  0  0  0  0  0  0
    5.7332   -4.6043   -2.8482 H   0  0  0  0  0  0  0  0  0  0  0  0
    6.3986   -3.3904   -3.8614 H   0  0  0  0  0  0  0  0  0  0  0  0
    4.6872   -3.4769   -3.6561 H   0  0  0  0  0  0  0  0  0  0  0  0
    7.6647   -3.8036   -1.3943 H   0  0  0  0  0  0  0  0  0  0  0  0
    7.7636   -2.1623   -0.6847 H   0  0  0  0  0  0  0  0  0  0  0  0
    7.9761   -2.4355   -2.3934 H   0  0  0  0  0  0  0  0  0  0  0  0
    4.8618   -5.0041   -1.0060 H   0  0  0  0  0  0  0  0  0  0  0  0
    7.4538   -4.7646    0.4957 H   0  0  0  0  0  0  0  0  0  0  0  0
   10.1103   -6.6115    3.6435 H   0  0  0  0  0  0  0  0  0  0  0  0
    8.6800   -7.6321    3.6795 H   0  0  0  0  0  0  0  0  0  0  0  0
    8.7356   -6.1181    4.6120 H   0  0  0  0  0  0  0  0  0  0  0  0
    6.5066   -6.7077    4.2388 H   0  0  0  0  0  0  0  0  0  0  0  0
    4.0884   -6.4154    3.8001 H   0  0  0  0  0  0  0  0  0  0  0  0
    2.4936   -6.1378    1.3648 H   0  0  0  0  0  0  0  0  0  0  0  0
    2.4531   -4.5872    2.2157 H   0  0  0  0  0  0  0  0  0  0  0  0
    2.6796   -5.0592   -0.6765 H   0  0  0  0  0  0  0  0  0  0  0  0
    1.5390   -3.0639   -0.3508 H   0  0  0  0  0  0  0  0  0  0  0  0
    2.5237   -2.5718    0.9981 H   0  0  0  0  0  0  0  0  0  0  0  0
    2.8619   -3.5057   -2.5827 H   0  0  0  0  0  0  0  0  0  0  0  0
    3.4109   -1.8313   -2.9903 H   0  0  0  0  0  0  0  0  0  0  0  0
    1.8422   -2.1444   -2.3031 H   0  0  0  0  0  0  0  0  0  0  0  0
    3.3720   -1.3318   -0.6656 H   0  0  0  0  0  0  0  0  0  0  0  0
  1  2  1  0
  1 23  1  0
  1 24  1  0
  1 25  1  0
  2  3  1  0
  3  4  2  0
  3  5  1  0
  5 21  1  0
  5  6  1  6
  5  9  1  0
  6  7  1  0
  6  8  1  0
  6 26  1  0
  7 27  1  0
  7 28  1  0
  7 29  1  0
  8 30  1  0
  8 31  1  0
  8 32  1  0
  9 19  1  0
  9 10  1  0
  9 33  1  6
 10 17  2  0
 10 11  1  0
 11 12  2  0
 11 34  1  0
 12 13  1  0
 12 15  1  0
 13 14  1  0
 14 35  1  0
 14 36  1  0
 14 37  1  0
 15 16  2  0
 15 38  1  0
 16 17  1  0
 16 39  1  0
 17 18  1  0
 18 19  1  0
 18 40  1  0
 18 41  1  0
 19 20  1  0
 19 42  1  6
 20 21  1  0
 20 43  1  0
 20 44  1  0
 21 22  1  0
 21 48  1  1
 22 45  1  0
 22 46  1  0
 22 47  1  0
M  CHG  1  21   1
M  END
>  <i_m_ct_stereo_status>  (136) 
1

>  <s_m_source_file>  (136) 
/var/tmp/pbs.5076255.sched01/tmp9rjncpta/544vc0qzzn.sdf

>  <i_m_source_file_index>  (136) 
10

>  <i_lp_mmshare_version>  (136) 
48012

>  <i_f3d_flags>  (136) 
0

>  <s_epik_input>  (136) 
W0NIM11PQyg9TylbQ0BdMShbQ0hdKFtDSDNdKVtDSDNdKU4oW0NIM10pW0NIMl1bQ0BASF0yW0NIMl1jKGMzW0NASF0xMilbY0hdW2NIXWMoW2NIXTMpT1tDSDNd

>  <s_epik_cmdline>  (136) 
J2VwaWtfcHl0aG9uJywgJy1waHQnLCAnMi4wJywgJy1waCcsICc3LjAnLCAnLXRuJywgJzgnLCAnLW1hJywgJzIwMCcsICctaW1hZScsICc8aW5maWxlLm1hZT4nLCAnLW9tYWUnLCAnPG91dGZpbGUubWFlPic=

>  <r_lp_tautomer_probability>  (136) 
1

>  <r_epik_Ionization_Penalty>  (136) 
0.15378

>  <r_epik_Ionization_Penalty_Charging>  (136) 
0.15378

>  <r_epik_Ionization_Penalty_Neutral>  (136) 
0

>  <r_epik_State_Penalty>  (136) 
0.143072

>  <r_epik_Charging_Adjusted_Penalty>  (136) 
0.296852

>  <i_epik_Tot_Q>  (136) 
1

>  <i_epik_Tot_abs_Q>  (136) 
1

>  <s_epik_Chemistry_Notes>  (136) 
This compound has an ester and may undergo hydrolysis at high or low pH.

>  <s_lp_Force_Field>  (136) 
OPLS3e

>  <r_lp_Energy>  (136) 
41.5922

>  <b_lp_Chiralities_Consistent>  (136) 
1

>  <s_lp_Variant>  (136) 
40:0-1

>  <s_i_glide_gridfile>  (136) 
pfpi4k_grid

>  <i_i_glide_lignum>  (136) 
10

>  <i_i_glide_rotatable_bonds>  (136) 
4

>  <r_i_docking_score>  (136) 
-3.23548

>  <r_i_glide_ligand_efficiency>  (136) 
-0.147067

>  <r_i_glide_ligand_efficiency_sa>  (136) 
-0.412089

>  <r_i_glide_ligand_efficiency_ln>  (136) 
-0.79087

>  <r_i_glide_gscore>  (136) 
-3.23548

>  <r_i_glide_lipo>  (136) 
-0.460881

>  <r_i_glide_hbond>  (136) 
0

>  <r_i_glide_metal>  (136) 
-0

>  <r_i_glide_rewards>  (136) 
-1.41444

>  <r_i_glide_evdw>  (136) 
-18.8759

>  <r_i_glide_ecoul>  (136) 
-3.69422

>  <r_i_glide_erotb>  (136) 
0.199022

>  <r_i_glide_esite>  (136) 
-0.0612577

>  <r_i_glide_emodel>  (136) 
-23.9777

>  <r_i_glide_energy>  (136) 
-22.5701

>  <r_i_glide_einternal>  (136) 
6.60513

>  <r_i_glide_intrahb_reward>  (136) 
-0

>  <i_i_glide_confnum>  (136) 
6

>  <i_i_glide_posenum>  (136) 
30

>  <r_i_glide_eff_state_penalty>  (136) 
0

>  <ligand_id>  (136) 
40

>  <original_smiles>  (136) 
COC(=O)C1(C(C)C)C2c3cc(OC)ccc3CC2CN1C

>  <smiles>  (136) 
[H]c1c([H])c2c(c([H])c1OC([H])([H])[H])C1([H])C([H])(C2([H])[H])C([H])([H])[N+]([H])(C([H])([H])[H])C1(C(=O)OC([H])([H])[H])C([H])(C([H])([H])[H])C([H])([H])[H]

$$$$
40:1:0
     RDKit          3D

 47 49  0  0  1  0  0  0  0  0999 V2000
    3.1028   -5.3416    0.3459 C   0  0  0  0  0  0  0  0  0  0  0  0
    3.2633   -4.1001    0.9988 O   0  0  0  0  0  0  0  0  0  0  0  0
    3.7902   -4.0661    2.2501 C   0  0  0  0  0  0  0  0  0  0  0  0
    4.1992   -5.0682    2.8337 O   0  0  0  0  0  0  0  0  0  0  0  0
    3.8938   -2.6210    2.8706 C   0  0  1  0  0  0  0  0  0  0  0  0
    4.5273   -2.6087    4.3368 C   0  0  0  0  0  0  0  0  0  0  0  0
    4.0283   -3.6350    5.4237 C   0  0  0  0  0  0  0  0  0  0  0  0
    4.5177   -1.2051    5.0204 C   0  0  0  0  0  0  0  0  0  0  0  0
    4.7084   -1.6623    1.9081 C   0  0  1  0  0  0  0  0  0  0  0  0
    5.5803   -2.2192    0.7933 C   0  0  0  0  0  0  0  0  0  0  0  0
    6.7114   -3.0504    0.9563 C   0  0  0  0  0  0  0  0  0  0  0  0
    7.4092   -3.4743   -0.2048 C   0  0  0  0  0  0  0  0  0  0  0  0
    8.5037   -4.3150   -0.1286 O   0  0  0  0  0  0  0  0  0  0  0  0
    8.4941   -5.3057    0.8934 C   0  0  0  0  0  0  0  0  0  0  0  0
    6.9911   -3.0402   -1.4740 C   0  0  0  0  0  0  0  0  0  0  0  0
    5.8545   -2.2032   -1.6266 C   0  0  0  0  0  0  0  0  0  0  0  0
    5.1766   -1.8081   -0.4540 C   0  0  0  0  0  0  0  0  0  0  0  0
    3.9749   -0.9008   -0.3751 C   0  0  0  0  0  0  0  0  0  0  0  0
    3.6923   -0.7903    1.1499 C   0  0  1  0  0  0  0  0  0  0  0  0
    2.3337   -1.3092    1.5977 C   0  0  0  0  0  0  0  0  0  0  0  0
    2.6019   -1.8894    2.9198 N   0  0  0  0  0  0  0  0  0  0  0  0
    1.4072   -2.5594    3.4343 C   0  0  0  0  0  0  0  0  0  0  0  0
    2.7202   -5.1650   -0.6592 H   0  0  0  0  0  0  0  0  0  0  0  0
    2.3960   -5.9552    0.9065 H   0  0  0  0  0  0  0  0  0  0  0  0
    4.0585   -5.8651    0.2925 H   0  0  0  0  0  0  0  0  0  0  0  0
    5.5856   -2.8328    4.1773 H   0  0  0  0  0  0  0  0  0  0  0  0
    2.9984   -3.4631    5.7241 H   0  0  0  0  0  0  0  0  0  0  0  0
    4.6266   -3.5013    6.3512 H   0  0  0  0  0  0  0  0  0  0  0  0
    4.1511   -4.6804    5.1373 H   0  0  0  0  0  0  0  0  0  0  0  0
    3.5051   -0.8868    5.2715 H   0  0  0  0  0  0  0  0  0  0  0  0
    4.9644   -0.4045    4.4374 H   0  0  0  0  0  0  0  0  0  0  0  0
    5.0716   -1.2305    5.9553 H   0  0  0  0  0  0  0  0  0  0  0  0
    5.3831   -1.0047    2.4548 H   0  0  0  0  0  0  0  0  0  0  0  0
    6.9840   -3.3048    1.9662 H   0  0  0  0  0  0  0  0  0  0  0  0
    9.4253   -5.8737    0.8910 H   0  0  0  0  0  0  0  0  0  0  0  0
    7.6773   -6.0001    0.7126 H   0  0  0  0  0  0  0  0  0  0  0  0
    8.3954   -4.9024    1.8967 H   0  0  0  0  0  0  0  0  0  0  0  0
    7.5281   -3.3747   -2.3451 H   0  0  0  0  0  0  0  0  0  0  0  0
    5.5132   -1.8854   -2.5934 H   0  0  0  0  0  0  0  0  0  0  0  0
    4.2396    0.0696   -0.7881 H   0  0  0  0  0  0  0  0  0  0  0  0
    3.1456   -1.3111   -0.9534 H   0  0  0  0  0  0  0  0  0  0  0  0
    3.7827    0.2457    1.4781 H   0  0  0  0  0  0  0  0  0  0  0  0
    1.5732   -0.5274    1.6228 H   0  0  0  0  0  0  0  0  0  0  0  0
    1.9685   -2.0791    0.9270 H   0  0  0  0  0  0  0  0  0  0  0  0
    0.5639   -1.8488    3.4090 H   0  0  0  0  0  0  0  0  0  0  0  0
    1.5038   -2.8910    4.4484 H   0  0  0  0  0  0  0  0  0  0  0  0
    1.1291   -3.4099    2.7986 H   0  0  0  0  0  0  0  0  0  0  0  0
  1  2  1  0
  1 23  1  0
  1 24  1  0
  1 25  1  0
  2  3  1  0
  3  4  2  0
  3  5  1  0
  5 21  1  0
  5  6  1  1
  5  9  1  0
  6  7  1  0
  6  8  1  0
  6 26  1  0
  7 27  1  0
  7 28  1  0
  7 29  1  0
  8 30  1  0
  8 31  1  0
  8 32  1  0
  9 19  1  0
  9 10  1  0
  9 33  1  1
 10 17  2  0
 10 11  1  0
 11 12  2  0
 11 34  1  0
 12 13  1  0
 12 15  1  0
 13 14  1  0
 14 35  1  0
 14 36  1  0
 14 37  1  0
 15 16  2  0
 15 38  1  0
 16 17  1  0
 16 39  1  0
 17 18  1  0
 18 19  1  0
 18 40  1  0
 18 41  1  0
 19 20  1  0
 19 42  1  1
 20 21  1  0
 20 43  1  0
 20 44  1  0
 21 22  1  0
 22 45  1  0
 22 46  1  0
 22 47  1  0
M  END
>  <i_m_ct_stereo_status>  (137) 
1

>  <s_m_source_file>  (137) 
/var/tmp/pbs.5076255.sched01/tmp9rjncpta/544vc0qzzn.sdf

>  <i_m_source_file_index>  (137) 
11

>  <i_lp_mmshare_version>  (137) 
48012

>  <i_f3d_flags>  (137) 
0

>  <s_epik_input>  (137) 
W0NIM11PQyg9TylbQ0BdMShbQ0hdKFtDSDNdKVtDSDNdKU4oW0NIM10pW0NIMl1bQ0BASF0yW0NIMl1jKGMzW0NASF0xMilbY0hdW2NIXWMoW2NIXTMpT1tDSDNd

>  <s_epik_cmdline>  (137) 
J2VwaWtfcHl0aG9uJywgJy1waHQnLCAnMi4wJywgJy1waCcsICc3LjAnLCAnLXRuJywgJzgnLCAnLW1hJywgJzIwMCcsICctaW1hZScsICc8aW5maWxlLm1hZT4nLCAnLW9tYWUnLCAnPG91dGZpbGUubWFlPic=

>  <r_lp_tautomer_probability>  (137) 
1

>  <r_epik_Ionization_Penalty>  (137) 
0.874376

>  <r_epik_Ionization_Penalty_Charging>  (137) 
0

>  <r_epik_Ionization_Penalty_Neutral>  (137) 
0.874376

>  <r_epik_State_Penalty>  (137) 
0.912006

>  <r_epik_Charging_Adjusted_Penalty>  (137) 
0.912006

>  <i_epik_Tot_Q>  (137) 
0

>  <i_epik_Tot_abs_Q>  (137) 
0

>  <s_epik_Chemistry_Notes>  (137) 
This compound has an ester and may undergo hydrolysis at high or low pH.

>  <s_lp_Force_Field>  (137) 
OPLS3e

>  <r_lp_Energy>  (137) 
34.0827

>  <b_lp_Chiralities_Consistent>  (137) 
1

>  <s_lp_Variant>  (137) 
40:0-2

>  <s_i_glide_gridfile>  (137) 
pfpi4k_grid

>  <i_i_glide_lignum>  (137) 
11

>  <i_i_glide_rotatable_bonds>  (137) 
4

>  <r_i_docking_score>  (137) 
-3.00926

>  <r_i_glide_ligand_efficiency>  (137) 
-0.136785

>  <r_i_glide_ligand_efficiency_sa>  (137) 
-0.383276

>  <r_i_glide_ligand_efficiency_ln>  (137) 
-0.735574

>  <r_i_glide_gscore>  (137) 
-3.00926

>  <r_i_glide_lipo>  (137) 
-0.458213

>  <r_i_glide_hbond>  (137) 
0

>  <r_i_glide_metal>  (137) 
-0

>  <r_i_glide_rewards>  (137) 
-1.34291

>  <r_i_glide_evdw>  (137) 
-19.749

>  <r_i_glide_ecoul>  (137) 
-2.8058

>  <r_i_glide_erotb>  (137) 
0.200182

>  <r_i_glide_esite>  (137) 
0

>  <r_i_glide_emodel>  (137) 
-22.1143

>  <r_i_glide_energy>  (137) 
-22.5548

>  <r_i_glide_einternal>  (137) 
8.1405

>  <r_i_glide_intrahb_reward>  (137) 
-0

>  <i_i_glide_confnum>  (137) 
3

>  <i_i_glide_posenum>  (137) 
29

>  <r_i_glide_eff_state_penalty>  (137) 
0

>  <ligand_id>  (137) 
40

>  <original_smiles>  (137) 
COC(=O)C1(C(C)C)C2c3cc(OC)ccc3CC2CN1C

>  <smiles>  (137) 
[H]c1c([H])c2c(c([H])c1OC([H])([H])[H])C1([H])C(C(=O)OC([H])([H])[H])(C([H])(C([H])([H])[H])C([H])([H])[H])N(C([H])([H])[H])C([H])([H])C1([H])C2([H])[H]

$$$$
40:1:1
     RDKit          3D

 47 49  0  0  1  0  0  0  0  0999 V2000
    4.7128   -5.4095    2.6580 C   0  0  0  0  0  0  0  0  0  0  0  0
    4.8582   -4.0080    2.8368 O   0  0  0  0  0  0  0  0  0  0  0  0
    3.8150   -3.1969    2.5362 C   0  0  0  0  0  0  0  0  0  0  0  0
    2.7446   -3.6257    2.0796 O   0  0  0  0  0  0  0  0  0  0  0  0
    4.0743   -1.6680    2.7708 C   0  0  1  0  0  0  0  0  0  0  0  0
    4.8439   -1.3872    4.1210 C   0  0  0  0  0  0  0  0  0  0  0  0
    4.3014   -2.0615    5.4100 C   0  0  0  0  0  0  0  0  0  0  0  0
    5.1203    0.1052    4.4443 C   0  0  0  0  0  0  0  0  0  0  0  0
    4.8569   -1.0349    1.5444 C   0  0  1  0  0  0  0  0  0  0  0  0
    5.5653   -1.9092    0.5192 C   0  0  0  0  0  0  0  0  0  0  0  0
    6.6570   -2.7555    0.7603 C   0  0  0  0  0  0  0  0  0  0  0  0
    7.2320   -3.4682   -0.3179 C   0  0  0  0  0  0  0  0  0  0  0  0
    8.2775   -4.3373   -0.1339 O   0  0  0  0  0  0  0  0  0  0  0  0
    8.5811   -4.7607    1.1926 C   0  0  0  0  0  0  0  0  0  0  0  0
    6.7046   -3.2817   -1.6182 C   0  0  0  0  0  0  0  0  0  0  0  0
    5.6196   -2.4198   -1.8598 C   0  0  0  0  0  0  0  0  0  0  0  0
    5.0685   -1.7282   -0.7599 C   0  0  0  0  0  0  0  0  0  0  0  0
    3.9588   -0.7223   -0.7864 C   0  0  0  0  0  0  0  0  0  0  0  0
    3.8373   -0.2653    0.6956 C   0  0  1  0  0  0  0  0  0  0  0  0
    2.5057   -0.5808    1.3603 C   0  0  0  0  0  0  0  0  0  0  0  0
    2.8432   -0.8410    2.7585 N   0  0  0  0  0  0  0  0  0  0  0  0
    1.6574   -1.2557    3.5312 C   0  0  0  0  0  0  0  0  0  0  0  0
    5.6281   -5.9389    2.9328 H   0  0  0  0  0  0  0  0  0  0  0  0
    4.4710   -5.6407    1.6196 H   0  0  0  0  0  0  0  0  0  0  0  0
    3.8973   -5.7779    3.2817 H   0  0  0  0  0  0  0  0  0  0  0  0
    5.8071   -1.8488    3.9537 H   0  0  0  0  0  0  0  0  0  0  0  0
    3.3543   -1.6489    5.7322 H   0  0  0  0  0  0  0  0  0  0  0  0
    5.0264   -1.9315    6.2324 H   0  0  0  0  0  0  0  0  0  0  0  0
    4.2001   -3.1436    5.3044 H   0  0  0  0  0  0  0  0  0  0  0  0
    4.1997    0.6541    4.6554 H   0  0  0  0  0  0  0  0  0  0  0  0
    5.6439    0.6472    3.6621 H   0  0  0  0  0  0  0  0  0  0  0  0
    5.7562    0.1984    5.3277 H   0  0  0  0  0  0  0  0  0  0  0  0
    5.6375   -0.3526    1.8480 H   0  0  0  0  0  0  0  0  0  0  0  0
    7.0145   -2.8319    1.7793 H   0  0  0  0  0  0  0  0  0  0  0  0
    9.4094   -5.4774    1.2136 H   0  0  0  0  0  0  0  0  0  0  0  0
    7.7219   -5.2466    1.6476 H   0  0  0  0  0  0  0  0  0  0  0  0
    8.8781   -3.9087    1.7946 H   0  0  0  0  0  0  0  0  0  0  0  0
    7.1198   -3.8280   -2.4405 H   0  0  0  0  0  0  0  0  0  0  0  0
    5.2132   -2.2860   -2.8506 H   0  0  0  0  0  0  0  0  0  0  0  0
    4.2524    0.0969   -1.4398 H   0  0  0  0  0  0  0  0  0  0  0  0
    3.0464   -1.1704   -1.1791 H   0  0  0  0  0  0  0  0  0  0  0  0
    4.0373    0.8074    0.7902 H   0  0  0  0  0  0  0  0  0  0  0  0
    1.7935    0.2363    1.2524 H   0  0  0  0  0  0  0  0  0  0  0  0
    2.0751   -1.4796    0.9362 H   0  0  0  0  0  0  0  0  0  0  0  0
    0.9005   -0.4637    3.4340 H   0  0  0  0  0  0  0  0  0  0  0  0
    1.8780   -1.4005    4.5737 H   0  0  0  0  0  0  0  0  0  0  0  0
    1.2150   -2.1570    3.1030 H   0  0  0  0  0  0  0  0  0  0  0  0
  1  2  1  0
  1 23  1  0
  1 24  1  0
  1 25  1  0
  2  3  1  0
  3  4  2  0
  3  5  1  0
  5 21  1  0
  5  6  1  1
  5  9  1  0
  6  7  1  0
  6  8  1  0
  6 26  1  0
  7 27  1  0
  7 28  1  0
  7 29  1  0
  8 30  1  0
  8 31  1  0
  8 32  1  0
  9 19  1  0
  9 10  1  0
  9 33  1  1
 10 17  2  0
 10 11  1  0
 11 12  2  0
 11 34  1  0
 12 13  1  0
 12 15  1  0
 13 14  1  0
 14 35  1  0
 14 36  1  0
 14 37  1  0
 15 16  2  0
 15 38  1  0
 16 17  1  0
 16 39  1  0
 17 18  1  0
 18 19  1  0
 18 40  1  0
 18 41  1  0
 19 20  1  0
 19 42  1  6
 20 21  1  0
 20 43  1  0
 20 44  1  0
 21 22  1  0
 22 45  1  0
 22 46  1  0
 22 47  1  0
M  END
>  <i_m_ct_stereo_status>  (138) 
1

>  <s_m_source_file>  (138) 
/var/tmp/pbs.5076255.sched01/tmp9rjncpta/544vc0qzzn.sdf

>  <i_m_source_file_index>  (138) 
11

>  <i_lp_mmshare_version>  (138) 
48012

>  <i_f3d_flags>  (138) 
0

>  <s_epik_input>  (138) 
W0NIM11PQyg9TylbQ0BdMShbQ0hdKFtDSDNdKVtDSDNdKU4oW0NIM10pW0NIMl1bQ0BASF0yW0NIMl1jKGMzW0NASF0xMilbY0hdW2NIXWMoW2NIXTMpT1tDSDNd

>  <s_epik_cmdline>  (138) 
J2VwaWtfcHl0aG9uJywgJy1waHQnLCAnMi4wJywgJy1waCcsICc3LjAnLCAnLXRuJywgJzgnLCAnLW1hJywgJzIwMCcsICctaW1hZScsICc8aW5maWxlLm1hZT4nLCAnLW9tYWUnLCAnPG91dGZpbGUubWFlPic=

>  <r_lp_tautomer_probability>  (138) 
1

>  <r_epik_Ionization_Penalty>  (138) 
0.874376

>  <r_epik_Ionization_Penalty_Charging>  (138) 
0

>  <r_epik_Ionization_Penalty_Neutral>  (138) 
0.874376

>  <r_epik_State_Penalty>  (138) 
0.912006

>  <r_epik_Charging_Adjusted_Penalty>  (138) 
0.912006

>  <i_epik_Tot_Q>  (138) 
0

>  <i_epik_Tot_abs_Q>  (138) 
0

>  <s_epik_Chemistry_Notes>  (138) 
This compound has an ester and may undergo hydrolysis at high or low pH.

>  <s_lp_Force_Field>  (138) 
OPLS3e

>  <r_lp_Energy>  (138) 
34.0827

>  <b_lp_Chiralities_Consistent>  (138) 
1

>  <s_lp_Variant>  (138) 
40:0-2

>  <s_i_glide_gridfile>  (138) 
pfpi4k_grid

>  <i_i_glide_lignum>  (138) 
11

>  <i_i_glide_rotatable_bonds>  (138) 
4

>  <r_i_docking_score>  (138) 
-2.94962

>  <r_i_glide_ligand_efficiency>  (138) 
-0.134074

>  <r_i_glide_ligand_efficiency_sa>  (138) 
-0.375679

>  <r_i_glide_ligand_efficiency_ln>  (138) 
-0.720994

>  <r_i_glide_gscore>  (138) 
-2.94962

>  <r_i_glide_lipo>  (138) 
-0.70281

>  <r_i_glide_hbond>  (138) 
0

>  <r_i_glide_metal>  (138) 
-0

>  <r_i_glide_rewards>  (138) 
-1.34238

>  <r_i_glide_evdw>  (138) 
-18.562

>  <r_i_glide_ecoul>  (138) 
-1.17675

>  <r_i_glide_erotb>  (138) 
0.200182

>  <r_i_glide_esite>  (138) 
0

>  <r_i_glide_emodel>  (138) 
-19.0564

>  <r_i_glide_energy>  (138) 
-19.7387

>  <r_i_glide_einternal>  (138) 
8.70328

>  <r_i_glide_intrahb_reward>  (138) 
-0

>  <i_i_glide_confnum>  (138) 
6

>  <i_i_glide_posenum>  (138) 
5

>  <r_i_glide_eff_state_penalty>  (138) 
0

>  <ligand_id>  (138) 
40

>  <original_smiles>  (138) 
COC(=O)C1(C(C)C)C2c3cc(OC)ccc3CC2CN1C

>  <smiles>  (138) 
[H]c1c([H])c2c(c([H])c1OC([H])([H])[H])C1([H])C(C(=O)OC([H])([H])[H])(C([H])(C([H])([H])[H])C([H])([H])[H])N(C([H])([H])[H])C([H])([H])C1([H])C2([H])[H]

$$$$
40:1:2
     RDKit          3D

 47 49  0  0  1  0  0  0  0  0999 V2000
    1.6617   -4.6639    2.2633 C   0  0  0  0  0  0  0  0  0  0  0  0
    3.0356   -4.4190    2.3988 O   0  0  0  0  0  0  0  0  0  0  0  0
    3.6283   -3.5053    1.6007 C   0  0  0  0  0  0  0  0  0  0  0  0
    2.9987   -2.7347    0.8713 O   0  0  0  0  0  0  0  0  0  0  0  0
    5.1846   -3.5112    1.8039 C   0  0  1  0  0  0  0  0  0  0  0  0
    5.8475   -4.9756    1.9961 C   0  0  0  0  0  0  0  0  0  0  0  0
    5.8791   -5.8119    0.6993 C   0  0  0  0  0  0  0  0  0  0  0  0
    5.3512   -5.9448    3.1457 C   0  0  0  0  0  0  0  0  0  0  0  0
    5.9750   -2.7327    0.6447 C   0  0  1  0  0  0  0  0  0  0  0  0
    5.3115   -2.4627   -0.7073 C   0  0  0  0  0  0  0  0  0  0  0  0
    4.8287   -3.4007   -1.6455 C   0  0  0  0  0  0  0  0  0  0  0  0
    4.2081   -2.9129   -2.8286 C   0  0  0  0  0  0  0  0  0  0  0  0
    3.7795   -3.7959   -3.7786 O   0  0  0  0  0  0  0  0  0  0  0  0
    2.3659   -3.8909   -3.9118 C   0  0  0  0  0  0  0  0  0  0  0  0
    4.0644   -1.5333   -3.0492 C   0  0  0  0  0  0  0  0  0  0  0  0
    4.5793   -0.6166   -2.1115 C   0  0  0  0  0  0  0  0  0  0  0  0
    5.1991   -1.0995   -0.9423 C   0  0  0  0  0  0  0  0  0  0  0  0
    5.7597   -0.2816    0.1914 C   0  0  0  0  0  0  0  0  0  0  0  0
    6.2765   -1.3301    1.1971 C   0  0  1  0  0  0  0  0  0  0  0  0
    5.6133   -1.2810    2.5649 C   0  0  0  0  0  0  0  0  0  0  0  0
    5.5608   -2.6858    2.9795 N   0  0  0  0  0  0  0  0  0  0  0  0
    4.8622   -2.7788    4.2782 C   0  0  0  0  0  0  0  0  0  0  0  0
    1.3739   -5.4550    2.9513 H   0  0  0  0  0  0  0  0  0  0  0  0
    1.4309   -5.0124    1.2481 H   0  0  0  0  0  0  0  0  0  0  0  0
    1.0655   -3.7690    2.4887 H   0  0  0  0  0  0  0  0  0  0  0  0
    6.8926   -4.7738    2.2267 H   0  0  0  0  0  0  0  0  0  0  0  0
    4.8682   -6.0267    0.3497 H   0  0  0  0  0  0  0  0  0  0  0  0
    6.3696   -6.7694    0.8819 H   0  0  0  0  0  0  0  0  0  0  0  0
    6.4431   -5.3402   -0.1103 H   0  0  0  0  0  0  0  0  0  0  0  0
    4.3266   -6.2961    2.9510 H   0  0  0  0  0  0  0  0  0  0  0  0
    5.4434   -5.5178    4.1195 H   0  0  0  0  0  0  0  0  0  0  0  0
    5.9535   -6.8695    3.1400 H   0  0  0  0  0  0  0  0  0  0  0  0
    6.9332   -3.2034    0.4378 H   0  0  0  0  0  0  0  0  0  0  0  0
    4.9129   -4.4545   -1.4717 H   0  0  0  0  0  0  0  0  0  0  0  0
    2.1253   -4.7477   -4.5372 H   0  0  0  0  0  0  0  0  0  0  0  0
    1.9061   -3.0000   -4.3267 H   0  0  0  0  0  0  0  0  0  0  0  0
    1.8750   -4.1413   -2.9738 H   0  0  0  0  0  0  0  0  0  0  0  0
    3.5984   -1.1695   -3.9478 H   0  0  0  0  0  0  0  0  0  0  0  0
    4.4868    0.4325   -2.3217 H   0  0  0  0  0  0  0  0  0  0  0  0
    6.5877    0.3264   -0.1244 H   0  0  0  0  0  0  0  0  0  0  0  0
    5.0133    0.4015    0.6166 H   0  0  0  0  0  0  0  0  0  0  0  0
    7.3572   -1.2063    1.3253 H   0  0  0  0  0  0  0  0  0  0  0  0
    6.1726   -0.6581    3.2643 H   0  0  0  0  0  0  0  0  0  0  0  0
    4.5977   -0.9018    2.4934 H   0  0  0  0  0  0  0  0  0  0  0  0
    5.3654   -2.1058    4.9835 H   0  0  0  0  0  0  0  0  0  0  0  0
    4.8685   -3.7346    4.7357 H   0  0  0  0  0  0  0  0  0  0  0  0
    3.8313   -2.4317    4.1718 H   0  0  0  0  0  0  0  0  0  0  0  0
  1  2  1  0
  1 23  1  0
  1 24  1  0
  1 25  1  0
  2  3  1  0
  3  4  2  0
  3  5  1  0
  5 21  1  0
  5  6  1  1
  5  9  1  0
  6  7  1  0
  6  8  1  0
  6 26  1  0
  7 27  1  0
  7 28  1  0
  7 29  1  0
  8 30  1  0
  8 31  1  0
  8 32  1  0
  9 19  1  0
  9 10  1  0
  9 33  1  6
 10 17  2  0
 10 11  1  0
 11 12  2  0
 11 34  1  0
 12 13  1  0
 12 15  1  0
 13 14  1  0
 14 35  1  0
 14 36  1  0
 14 37  1  0
 15 16  2  0
 15 38  1  0
 16 17  1  0
 16 39  1  0
 17 18  1  0
 18 19  1  0
 18 40  1  0
 18 41  1  0
 19 20  1  0
 19 42  1  1
 20 21  1  0
 20 43  1  0
 20 44  1  0
 21 22  1  0
 22 45  1  0
 22 46  1  0
 22 47  1  0
M  END
>  <i_m_ct_stereo_status>  (139) 
1

>  <s_m_source_file>  (139) 
/var/tmp/pbs.5076255.sched01/tmp9rjncpta/544vc0qzzn.sdf

>  <i_m_source_file_index>  (139) 
11

>  <i_lp_mmshare_version>  (139) 
48012

>  <i_f3d_flags>  (139) 
0

>  <s_epik_input>  (139) 
W0NIM11PQyg9TylbQ0BdMShbQ0hdKFtDSDNdKVtDSDNdKU4oW0NIM10pW0NIMl1bQ0BASF0yW0NIMl1jKGMzW0NASF0xMilbY0hdW2NIXWMoW2NIXTMpT1tDSDNd

>  <s_epik_cmdline>  (139) 
J2VwaWtfcHl0aG9uJywgJy1waHQnLCAnMi4wJywgJy1waCcsICc3LjAnLCAnLXRuJywgJzgnLCAnLW1hJywgJzIwMCcsICctaW1hZScsICc8aW5maWxlLm1hZT4nLCAnLW9tYWUnLCAnPG91dGZpbGUubWFlPic=

>  <r_lp_tautomer_probability>  (139) 
1

>  <r_epik_Ionization_Penalty>  (139) 
0.874376

>  <r_epik_Ionization_Penalty_Charging>  (139) 
0

>  <r_epik_Ionization_Penalty_Neutral>  (139) 
0.874376

>  <r_epik_State_Penalty>  (139) 
0.912006

>  <r_epik_Charging_Adjusted_Penalty>  (139) 
0.912006

>  <i_epik_Tot_Q>  (139) 
0

>  <i_epik_Tot_abs_Q>  (139) 
0

>  <s_epik_Chemistry_Notes>  (139) 
This compound has an ester and may undergo hydrolysis at high or low pH.

>  <s_lp_Force_Field>  (139) 
OPLS3e

>  <r_lp_Energy>  (139) 
34.0827

>  <b_lp_Chiralities_Consistent>  (139) 
1

>  <s_lp_Variant>  (139) 
40:0-2

>  <s_i_glide_gridfile>  (139) 
pfpi4k_grid

>  <i_i_glide_lignum>  (139) 
11

>  <i_i_glide_rotatable_bonds>  (139) 
4

>  <r_i_docking_score>  (139) 
-2.88927

>  <r_i_glide_ligand_efficiency>  (139) 
-0.131331

>  <r_i_glide_ligand_efficiency_sa>  (139) 
-0.367993

>  <r_i_glide_ligand_efficiency_ln>  (139) 
-0.706243

>  <r_i_glide_gscore>  (139) 
-2.88927

>  <r_i_glide_lipo>  (139) 
-0.762

>  <r_i_glide_hbond>  (139) 
0

>  <r_i_glide_metal>  (139) 
-0

>  <r_i_glide_rewards>  (139) 
-1.34691

>  <r_i_glide_evdw>  (139) 
-16.058

>  <r_i_glide_ecoul>  (139) 
-1.18428

>  <r_i_glide_erotb>  (139) 
0.200182

>  <r_i_glide_esite>  (139) 
0

>  <r_i_glide_emodel>  (139) 
-17.375

>  <r_i_glide_energy>  (139) 
-17.2423

>  <r_i_glide_einternal>  (139) 
6.77531

>  <r_i_glide_intrahb_reward>  (139) 
-0

>  <i_i_glide_confnum>  (139) 
6

>  <i_i_glide_posenum>  (139) 
16

>  <r_i_glide_eff_state_penalty>  (139) 
0

>  <ligand_id>  (139) 
40

>  <original_smiles>  (139) 
COC(=O)C1(C(C)C)C2c3cc(OC)ccc3CC2CN1C

>  <smiles>  (139) 
[H]c1c([H])c2c(c([H])c1OC([H])([H])[H])C1([H])C(C(=O)OC([H])([H])[H])(C([H])(C([H])([H])[H])C([H])([H])[H])N(C([H])([H])[H])C([H])([H])C1([H])C2([H])[H]

$$$$
41:0:0
     RDKit          3D

 66 71  0  0  1  0  0  0  0  0999 V2000
    3.0742   -6.3926    2.4930 C   0  0  0  0  0  0  0  0  0  0  0  0
    3.5358   -5.1920    1.6438 C   0  0  2  0  0  0  0  0  0  0  0  0
    2.3526   -4.8759    0.6937 C   0  0  0  0  0  0  0  0  0  0  0  0
    2.4605   -3.6064   -0.1953 C   0  0  0  0  0  0  0  0  0  0  0  0
    3.8183   -3.4566   -0.9021 C   0  0  2  0  0  0  0  0  0  0  0  0
    5.0068   -3.2815    0.1269 C   0  0  2  0  0  0  0  0  0  0  0  0
    6.0845   -2.3200   -0.4328 C   0  0  0  0  0  0  0  0  0  0  0  0
    6.4183   -2.5799   -1.9107 C   0  0  0  0  0  0  0  0  0  0  0  0
    5.2139   -2.6709   -2.8695 C   0  0  1  0  0  0  0  0  0  0  0  0
    5.3505   -3.8499   -3.6170 O   0  0  0  0  0  0  0  0  0  0  0  0
    3.8194   -2.5745   -2.2149 C   0  0  0  0  0  0  0  0  0  0  0  0
    2.7487   -3.0522   -3.2405 C   0  0  0  0  0  0  0  0  0  0  0  0
    3.4960   -1.0815   -2.0135 C   0  0  0  0  0  0  0  0  0  0  0  0
    5.6843   -4.6579    0.2766 C   0  0  0  0  0  0  0  0  0  0  0  0
    4.7422   -5.7333    0.8282 C   0  0  0  0  0  0  0  0  0  0  0  0
    4.5644   -2.9249    1.5850 C   0  0  0  0  0  0  0  0  0  0  0  0
    3.9403   -3.8673    2.3583 C   0  0  0  0  0  0  0  0  0  0  0  0
    3.5795   -3.5119    3.8321 C   0  0  2  0  0  0  0  0  0  0  0  0
    3.3704   -4.6462    4.8611 C   0  0  0  0  0  0  0  0  0  0  0  0
    2.3994   -2.5143    3.8574 C   0  0  0  0  0  0  0  0  0  0  0  0
    3.0263   -1.1121    3.6993 C   0  0  2  0  0  0  0  0  0  0  0  0
    2.7368   -0.4415    2.3711 C   0  0  0  0  0  0  0  0  0  0  0  0
    1.6521    0.0517    2.0762 O   0  0  0  0  0  0  0  0  0  0  0  0
    3.9706   -0.4474    1.4859 C   0  0  0  0  0  0  0  0  0  0  0  0
    4.8752   -1.5101    2.1367 C   0  0  1  0  0  0  0  0  0  0  0  0
    4.5464   -1.3422    3.6497 C   0  0  1  0  0  0  0  0  0  0  0  0
    5.3176   -0.1719    4.2987 C   0  0  0  0  0  0  0  0  0  0  0  0
    4.7301   -2.6571    4.3818 C   0  0  0  0  0  0  0  0  0  0  0  0
    2.9117   -7.2625    1.8548 H   0  0  0  0  0  0  0  0  0  0  0  0
    2.1189   -6.2182    2.9831 H   0  0  0  0  0  0  0  0  0  0  0  0
    3.8206   -6.6984    3.2209 H   0  0  0  0  0  0  0  0  0  0  0  0
    2.1607   -5.7383    0.0506 H   0  0  0  0  0  0  0  0  0  0  0  0
    1.4553   -4.7698    1.3142 H   0  0  0  0  0  0  0  0  0  0  0  0
    1.6686   -3.6753   -0.9349 H   0  0  0  0  0  0  0  0  0  0  0  0
    2.2360   -2.7040    0.3758 H   0  0  0  0  0  0  0  0  0  0  0  0
    3.9556   -4.4414   -1.3409 H   0  0  0  0  0  0  0  0  0  0  0  0
    5.7826   -1.2830   -0.3227 H   0  0  0  0  0  0  0  0  0  0  0  0
    6.9958   -2.3948    0.1602 H   0  0  0  0  0  0  0  0  0  0  0  0
    7.0305   -1.7635   -2.2533 H   0  0  0  0  0  0  0  0  0  0  0  0
    7.0708   -3.4463   -2.0100 H   0  0  0  0  0  0  0  0  0  0  0  0
    5.2720   -1.8591   -3.5933 H   0  0  0  0  0  0  0  0  0  0  0  0
    5.1871   -4.5928   -3.0408 H   0  0  0  0  0  0  0  0  0  0  0  0
    2.9175   -2.6136   -4.2296 H   0  0  0  0  0  0  0  0  0  0  0  0
    1.7330   -2.7819   -2.9373 H   0  0  0  0  0  0  0  0  0  0  0  0
    2.7703   -4.1268   -3.3841 H   0  0  0  0  0  0  0  0  0  0  0  0
    3.2617   -0.5928   -2.9639 H   0  0  0  0  0  0  0  0  0  0  0  0
    4.3100   -0.5029   -1.5828 H   0  0  0  0  0  0  0  0  0  0  0  0
    2.6143   -0.9658   -1.3913 H   0  0  0  0  0  0  0  0  0  0  0  0
    6.0907   -4.9995   -0.6705 H   0  0  0  0  0  0  0  0  0  0  0  0
    6.5319   -4.5619    0.9567 H   0  0  0  0  0  0  0  0  0  0  0  0
    5.3451   -6.3987    1.4456 H   0  0  0  0  0  0  0  0  0  0  0  0
    4.3794   -6.3588    0.0109 H   0  0  0  0  0  0  0  0  0  0  0  0
    3.3267   -4.2440    5.8730 H   0  0  0  0  0  0  0  0  0  0  0  0
    4.1932   -5.3596    4.8636 H   0  0  0  0  0  0  0  0  0  0  0  0
    2.4213   -5.1623    4.7437 H   0  0  0  0  0  0  0  0  0  0  0  0
    1.6549   -2.7411    3.0917 H   0  0  0  0  0  0  0  0  0  0  0  0
    1.8835   -2.5575    4.8179 H   0  0  0  0  0  0  0  0  0  0  0  0
    2.7266   -0.4591    4.5198 H   0  0  0  0  0  0  0  0  0  0  0  0
    3.7066   -0.6726    0.4617 H   0  0  0  0  0  0  0  0  0  0  0  0
    4.4272    0.5398    1.5210 H   0  0  0  0  0  0  0  0  0  0  0  0
    5.9321   -1.2958    1.9839 H   0  0  0  0  0  0  0  0  0  0  0  0
    6.3950   -0.3109    4.2587 H   0  0  0  0  0  0  0  0  0  0  0  0
    5.0374   -0.0565    5.3487 H   0  0  0  0  0  0  0  0  0  0  0  0
    5.1156    0.7758    3.7967 H   0  0  0  0  0  0  0  0  0  0  0  0
    4.6269   -2.4939    5.4550 H   0  0  0  0  0  0  0  0  0  0  0  0
    5.7099   -3.1027    4.2078 H   0  0  0  0  0  0  0  0  0  0  0  0
  2  1  1  1
  1 29  1  0
  1 30  1  0
  1 31  1  0
  2 15  1  0
  2 17  1  0
  2  3  1  0
  3  4  1  0
  3 32  1  0
  3 33  1  0
  4  5  1  0
  4 34  1  0
  4 35  1  0
  5 11  1  0
  5  6  1  0
  5 36  1  6
  6  7  1  6
  6 14  1  0
  6 16  1  0
  7  8  1  0
  7 37  1  0
  7 38  1  0
  8  9  1  0
  8 39  1  0
  8 40  1  0
  9 10  1  0
  9 11  1  0
  9 41  1  6
 10 42  1  0
 11 12  1  0
 11 13  1  0
 12 43  1  0
 12 44  1  0
 12 45  1  0
 13 46  1  0
 13 47  1  0
 13 48  1  0
 14 15  1  0
 14 49  1  0
 14 50  1  0
 15 51  1  0
 15 52  1  0
 16 25  1  0
 16 17  2  0
 17 18  1  0
 18 28  1  0
 18 19  1  1
 18 20  1  0
 19 53  1  0
 19 54  1  0
 19 55  1  0
 20 21  1  0
 20 56  1  0
 20 57  1  0
 21 26  1  0
 21 22  1  0
 21 58  1  1
 22 23  2  0
 22 24  1  0
 24 25  1  0
 24 59  1  0
 24 60  1  0
 25 26  1  0
 25 61  1  1
 26 27  1  1
 26 28  1  0
 27 62  1  0
 27 63  1  0
 27 64  1  0
 28 65  1  0
 28 66  1  0
M  END
>  <i_m_ct_stereo_status>  (140) 
1

>  <s_m_source_file>  (140) 
/var/tmp/pbs.5076255.sched01/tmp9rjncpta/544vc0qzzn.sdf

>  <i_m_source_file_index>  (140) 
12

>  <i_lp_mmshare_version>  (140) 
48012

>  <i_f3d_flags>  (140) 
0

>  <s_epik_input>  (140) 
W0NIMl0xW0NIMl1bQ0BASF0oW09IXSlDKFtDSDNdKShbQ0gzXSlbQ0BASF0oW0NAXTEyMylbQ0gyXVtDSDJdW0NAQF0oW0NIM10pKFtDSDJdW0NIMl0yKUM0PUMzW0NIXTVbQ0BAXTYoW0NIM10pW0NAQEhdKEMoPU8pW0NIMl01KVtDSDJdW0NAXTQoW0NIM10pW0NIMl02

>  <s_epik_cmdline>  (140) 
J2VwaWtfcHl0aG9uJywgJy1waHQnLCAnMi4wJywgJy1waCcsICc3LjAnLCAnLXRuJywgJzgnLCAnLW1hJywgJzIwMCcsICctaW1hZScsICc8aW5maWxlLm1hZT4nLCAnLW9tYWUnLCAnPG91dGZpbGUubWFlPic=

>  <r_lp_tautomer_probability>  (140) 
1

>  <r_epik_Ionization_Penalty>  (140) 
2.44213e-06

>  <r_epik_Ionization_Penalty_Charging>  (140) 
0

>  <r_epik_Ionization_Penalty_Neutral>  (140) 
2.44213e-06

>  <r_epik_State_Penalty>  (140) 
-0

>  <r_epik_Charging_Adjusted_Penalty>  (140) 
0

>  <i_epik_Tot_Q>  (140) 
0

>  <i_epik_Tot_abs_Q>  (140) 
0

>  <s_lp_Force_Field>  (140) 
OPLS3e

>  <r_lp_Energy>  (140) 
89.9742

>  <b_lp_Chiralities_Consistent>  (140) 
1

>  <s_lp_Variant>  (140) 
41:0-1

>  <s_i_glide_gridfile>  (140) 
pfpi4k_grid

>  <i_i_glide_lignum>  (140) 
12

>  <i_i_glide_rotatable_bonds>  (140) 
1

>  <r_i_docking_score>  (140) 
-3.0819

>  <r_i_glide_ligand_efficiency>  (140) 
-0.110068

>  <r_i_glide_ligand_efficiency_sa>  (140) 
-0.334231

>  <r_i_glide_ligand_efficiency_ln>  (140) 
-0.711393

>  <r_i_glide_gscore>  (140) 
-3.0819

>  <r_i_glide_lipo>  (140) 
-0.811785

>  <r_i_glide_hbond>  (140) 
0

>  <r_i_glide_metal>  (140) 
-0

>  <r_i_glide_rewards>  (140) 
-0.8006

>  <r_i_glide_evdw>  (140) 
-26.0293

>  <r_i_glide_ecoul>  (140) 
-1.02744

>  <r_i_glide_erotb>  (140) 
0

>  <r_i_glide_esite>  (140) 
-0.0139348

>  <r_i_glide_emodel>  (140) 
-32.0705

>  <r_i_glide_energy>  (140) 
-27.0567

>  <r_i_glide_einternal>  (140) 
0.0947707

>  <r_i_glide_intrahb_reward>  (140) 
-0

>  <i_i_glide_confnum>  (140) 
1

>  <i_i_glide_posenum>  (140) 
28

>  <r_i_glide_eff_state_penalty>  (140) 
0

>  <ligand_id>  (140) 
41

>  <original_smiles>  (140) 
CC12CCC3C(CCC(O)C3(C)C)(CC1)C1=C2C2(C)CC3C(=O)CC1C3(C)C2

>  <smiles>  (140) 
[H]OC1([H])C([H])([H])C([H])([H])C23C4=C(C(C([H])([H])[H])(C([H])([H])C([H])([H])C2([H])C1(C([H])([H])[H])C([H])([H])[H])C([H])([H])C3([H])[H])C1(C([H])([H])[H])C([H])([H])C2([H])C(=O)C([H])([H])C4([H])C2(C([H])([H])[H])C1([H])[H]

$$$$
41:0:1
     RDKit          3D

 66 71  0  0  1  0  0  0  0  0999 V2000
    2.8018   -7.5079    1.9235 C   0  0  0  0  0  0  0  0  0  0  0  0
    3.4175   -6.1400    1.5536 C   0  0  2  0  0  0  0  0  0  0  0  0
    2.4113   -5.4633    0.5805 C   0  0  0  0  0  0  0  0  0  0  0  0
    2.7044   -4.0074    0.1372 C   0  0  0  0  0  0  0  0  0  0  0  0
    4.1761   -3.7728   -0.2799 C   0  0  2  0  0  0  0  0  0  0  0  0
    5.1806   -3.9866    0.9258 C   0  0  2  0  0  0  0  0  0  0  0  0
    6.3601   -2.9728    0.8629 C   0  0  0  0  0  0  0  0  0  0  0  0
    6.9600   -2.7582   -0.5388 C   0  0  0  0  0  0  0  0  0  0  0  0
    5.9311   -2.5185   -1.6709 C   0  0  1  0  0  0  0  0  0  0  0  0
    6.2062   -3.4459   -2.7064 O   0  0  0  0  0  0  0  0  0  0  0  0
    4.4341   -2.5456   -1.2385 C   0  0  0  0  0  0  0  0  0  0  0  0
    3.5484   -2.6589   -2.5121 C   0  0  0  0  0  0  0  0  0  0  0  0
    4.0818   -1.1694   -0.6339 C   0  0  0  0  0  0  0  0  0  0  0  0
    5.7898   -5.3930    0.7578 C   0  0  0  0  0  0  0  0  0  0  0  0
    4.7343   -6.5077    0.8113 C   0  0  0  0  0  0  0  0  0  0  0  0
    4.5038   -4.0491    2.3378 C   0  0  0  0  0  0  0  0  0  0  0  0
    3.7328   -5.1260    2.6862 C   0  0  0  0  0  0  0  0  0  0  0  0
    3.1412   -5.1958    4.1278 C   0  0  2  0  0  0  0  0  0  0  0  0
    2.7372   -6.5657    4.7218 C   0  0  0  0  0  0  0  0  0  0  0  0
    1.9966   -4.1666    4.2735 C   0  0  0  0  0  0  0  0  0  0  0  0
    2.6729   -2.8275    4.6433 C   0  0  2  0  0  0  0  0  0  0  0  0
    2.6294   -1.7809    3.5471 C   0  0  0  0  0  0  0  0  0  0  0  0
    1.6204   -1.1603    3.2195 O   0  0  0  0  0  0  0  0  0  0  0  0
    3.9945   -1.6133    2.9119 C   0  0  0  0  0  0  0  0  0  0  0  0
    4.7456   -2.8877    3.3345 C   0  0  1  0  0  0  0  0  0  0  0  0
    4.1731   -3.1495    4.7584 C   0  0  1  0  0  0  0  0  0  0  0  0
    4.8715   -2.3040    5.8425 C   0  0  0  0  0  0  0  0  0  0  0  0
    4.2027   -4.6291    5.0791 C   0  0  0  0  0  0  0  0  0  0  0  0
    2.7375   -8.1450    1.0404 H   0  0  0  0  0  0  0  0  0  0  0  0
    1.7802   -7.4273    2.2897 H   0  0  0  0  0  0  0  0  0  0  0  0
    3.4129   -8.0660    2.6309 H   0  0  0  0  0  0  0  0  0  0  0  0
    2.3111   -6.0823   -0.3144 H   0  0  0  0  0  0  0  0  0  0  0  0
    1.4271   -5.4717    1.0496 H   0  0  0  0  0  0  0  0  0  0  0  0
    2.0382   -3.8063   -0.6965 H   0  0  0  0  0  0  0  0  0  0  0  0
    2.4086   -3.2974    0.9115 H   0  0  0  0  0  0  0  0  0  0  0  0
    4.3569   -4.5973   -0.9708 H   0  0  0  0  0  0  0  0  0  0  0  0
    6.0640   -2.0004    1.2446 H   0  0  0  0  0  0  0  0  0  0  0  0
    7.1555   -3.2983    1.5345 H   0  0  0  0  0  0  0  0  0  0  0  0
    7.6388   -1.9079   -0.4863 H   0  0  0  0  0  0  0  0  0  0  0  0
    7.5988   -3.6087   -0.7812 H   0  0  0  0  0  0  0  0  0  0  0  0
    6.1263   -1.5404   -2.1121 H   0  0  0  0  0  0  0  0  0  0  0  0
    7.0873   -3.3221   -3.0260 H   0  0  0  0  0  0  0  0  0  0  0  0
    3.8857   -1.9754   -3.2939 H   0  0  0  0  0  0  0  0  0  0  0  0
    2.5056   -2.4064   -2.3078 H   0  0  0  0  0  0  0  0  0  0  0  0
    3.5672   -3.6671   -2.9302 H   0  0  0  0  0  0  0  0  0  0  0  0
    4.0480   -0.4147   -1.4219 H   0  0  0  0  0  0  0  0  0  0  0  0
    4.8230   -0.7973    0.0698 H   0  0  0  0  0  0  0  0  0  0  0  0
    3.1014   -1.1723   -0.1525 H   0  0  0  0  0  0  0  0  0  0  0  0
    6.3511   -5.4764   -0.1705 H   0  0  0  0  0  0  0  0  0  0  0  0
    6.5104   -5.5646    1.5595 H   0  0  0  0  0  0  0  0  0  0  0  0
    5.2098   -7.3671    1.2854 H   0  0  0  0  0  0  0  0  0  0  0  0
    4.5040   -6.8419   -0.2014 H   0  0  0  0  0  0  0  0  0  0  0  0
    2.5321   -6.4794    5.7893 H   0  0  0  0  0  0  0  0  0  0  0  0
    3.5309   -7.3063    4.6366 H   0  0  0  0  0  0  0  0  0  0  0  0
    1.8107   -6.9562    4.3100 H   0  0  0  0  0  0  0  0  0  0  0  0
    1.3871   -4.1078    3.3690 H   0  0  0  0  0  0  0  0  0  0  0  0
    1.3258   -4.4559    5.0853 H   0  0  0  0  0  0  0  0  0  0  0  0
    2.2540   -2.4264    5.5658 H   0  0  0  0  0  0  0  0  0  0  0  0
    3.9109   -1.5027    1.8399 H   0  0  0  0  0  0  0  0  0  0  0  0
    4.4637   -0.7187    3.3202 H   0  0  0  0  0  0  0  0  0  0  0  0
    5.8144   -2.7113    3.4190 H   0  0  0  0  0  0  0  0  0  0  0  0
    5.9260   -2.5688    5.9220 H   0  0  0  0  0  0  0  0  0  0  0  0
    4.4133   -2.4663    6.8208 H   0  0  0  0  0  0  0  0  0  0  0  0
    4.8080   -1.2359    5.6278 H   0  0  0  0  0  0  0  0  0  0  0  0
    3.9246   -4.7822    6.1232 H   0  0  0  0  0  0  0  0  0  0  0  0
    5.1887   -5.0718    4.9328 H   0  0  0  0  0  0  0  0  0  0  0  0
  2  1  1  1
  1 29  1  0
  1 30  1  0
  1 31  1  0
  2 15  1  0
  2 17  1  0
  2  3  1  0
  3  4  1  0
  3 32  1  0
  3 33  1  0
  4  5  1  0
  4 34  1  0
  4 35  1  0
  5 11  1  0
  5  6  1  0
  5 36  1  6
  6  7  1  1
  6 14  1  0
  6 16  1  0
  7  8  1  0
  7 37  1  0
  7 38  1  0
  8  9  1  0
  8 39  1  0
  8 40  1  0
  9 10  1  0
  9 11  1  0
  9 41  1  6
 10 42  1  0
 11 12  1  0
 11 13  1  0
 12 43  1  0
 12 44  1  0
 12 45  1  0
 13 46  1  0
 13 47  1  0
 13 48  1  0
 14 15  1  0
 14 49  1  0
 14 50  1  0
 15 51  1  0
 15 52  1  0
 16 25  1  0
 16 17  2  0
 17 18  1  0
 18 28  1  0
 18 19  1  1
 18 20  1  0
 19 53  1  0
 19 54  1  0
 19 55  1  0
 20 21  1  0
 20 56  1  0
 20 57  1  0
 21 26  1  0
 21 22  1  0
 21 58  1  1
 22 23  2  0
 22 24  1  0
 24 25  1  0
 24 59  1  0
 24 60  1  0
 25 26  1  0
 25 61  1  1
 26 27  1  1
 26 28  1  0
 27 62  1  0
 27 63  1  0
 27 64  1  0
 28 65  1  0
 28 66  1  0
M  END
>  <i_m_ct_stereo_status>  (141) 
1

>  <s_m_source_file>  (141) 
/var/tmp/pbs.5076255.sched01/tmp9rjncpta/544vc0qzzn.sdf

>  <i_m_source_file_index>  (141) 
12

>  <i_lp_mmshare_version>  (141) 
48012

>  <i_f3d_flags>  (141) 
0

>  <s_epik_input>  (141) 
W0NIMl0xW0NIMl1bQ0BASF0oW09IXSlDKFtDSDNdKShbQ0gzXSlbQ0BASF0oW0NAXTEyMylbQ0gyXVtDSDJdW0NAQF0oW0NIM10pKFtDSDJdW0NIMl0yKUM0PUMzW0NIXTVbQ0BAXTYoW0NIM10pW0NAQEhdKEMoPU8pW0NIMl01KVtDSDJdW0NAXTQoW0NIM10pW0NIMl02

>  <s_epik_cmdline>  (141) 
J2VwaWtfcHl0aG9uJywgJy1waHQnLCAnMi4wJywgJy1waCcsICc3LjAnLCAnLXRuJywgJzgnLCAnLW1hJywgJzIwMCcsICctaW1hZScsICc8aW5maWxlLm1hZT4nLCAnLW9tYWUnLCAnPG91dGZpbGUubWFlPic=

>  <r_lp_tautomer_probability>  (141) 
1

>  <r_epik_Ionization_Penalty>  (141) 
2.44213e-06

>  <r_epik_Ionization_Penalty_Charging>  (141) 
0

>  <r_epik_Ionization_Penalty_Neutral>  (141) 
2.44213e-06

>  <r_epik_State_Penalty>  (141) 
-0

>  <r_epik_Charging_Adjusted_Penalty>  (141) 
0

>  <i_epik_Tot_Q>  (141) 
0

>  <i_epik_Tot_abs_Q>  (141) 
0

>  <s_lp_Force_Field>  (141) 
OPLS3e

>  <r_lp_Energy>  (141) 
89.9742

>  <b_lp_Chiralities_Consistent>  (141) 
1

>  <s_lp_Variant>  (141) 
41:0-1

>  <s_i_glide_gridfile>  (141) 
pfpi4k_grid

>  <i_i_glide_lignum>  (141) 
12

>  <i_i_glide_rotatable_bonds>  (141) 
1

>  <r_i_docking_score>  (141) 
-2.95956

>  <r_i_glide_ligand_efficiency>  (141) 
-0.105699

>  <r_i_glide_ligand_efficiency_sa>  (141) 
-0.320963

>  <r_i_glide_ligand_efficiency_ln>  (141) 
-0.683153

>  <r_i_glide_gscore>  (141) 
-2.95956

>  <r_i_glide_lipo>  (141) 
-0.453118

>  <r_i_glide_hbond>  (141) 
-0.298466

>  <r_i_glide_metal>  (141) 
-0

>  <r_i_glide_rewards>  (141) 
-0.8006

>  <r_i_glide_evdw>  (141) 
-28.0231

>  <r_i_glide_ecoul>  (141) 
-0.041466

>  <r_i_glide_erotb>  (141) 
0

>  <r_i_glide_esite>  (141) 
0

>  <r_i_glide_emodel>  (141) 
-32.8651

>  <r_i_glide_energy>  (141) 
-28.0646

>  <r_i_glide_einternal>  (141) 
0.33484

>  <r_i_glide_intrahb_reward>  (141) 
-0

>  <i_i_glide_confnum>  (141) 
1

>  <i_i_glide_posenum>  (141) 
29

>  <r_i_glide_eff_state_penalty>  (141) 
0

>  <ligand_id>  (141) 
41

>  <original_smiles>  (141) 
CC12CCC3C(CCC(O)C3(C)C)(CC1)C1=C2C2(C)CC3C(=O)CC1C3(C)C2

>  <smiles>  (141) 
[H]OC1([H])C([H])([H])C([H])([H])C23C4=C(C(C([H])([H])[H])(C([H])([H])C([H])([H])C2([H])C1(C([H])([H])[H])C([H])([H])[H])C([H])([H])C3([H])[H])C1(C([H])([H])[H])C([H])([H])C2([H])C(=O)C([H])([H])C4([H])C2(C([H])([H])[H])C1([H])[H]

$$$$
41:0:2
     RDKit          3D

 66 71  0  0  1  0  0  0  0  0999 V2000
    2.8140   -7.6636    1.9398 C   0  0  0  0  0  0  0  0  0  0  0  0
    3.4034   -6.2801    1.5809 C   0  0  2  0  0  0  0  0  0  0  0  0
    2.3566   -5.5921    0.6581 C   0  0  0  0  0  0  0  0  0  0  0  0
    2.6155   -4.1223    0.2413 C   0  0  0  0  0  0  0  0  0  0  0  0
    4.0655   -3.8588   -0.2194 C   0  0  2  0  0  0  0  0  0  0  0  0
    5.1150   -4.0879    0.9447 C   0  0  2  0  0  0  0  0  0  0  0  0
    6.2792   -3.0583    0.8616 C   0  0  0  0  0  0  0  0  0  0  0  0
    6.8185   -2.8057   -0.5596 C   0  0  0  0  0  0  0  0  0  0  0  0
    5.7450   -2.5489   -1.6452 C   0  0  1  0  0  0  0  0  0  0  0  0
    5.9649   -3.4507   -2.7122 O   0  0  0  0  0  0  0  0  0  0  0  0
    4.2683   -2.6073   -1.1580 C   0  0  0  0  0  0  0  0  0  0  0  0
    3.3373   -2.7002   -2.4019 C   0  0  0  0  0  0  0  0  0  0  0  0
    3.9273   -1.2501   -0.5060 C   0  0  0  0  0  0  0  0  0  0  0  0
    5.7348   -5.4821    0.7197 C   0  0  0  0  0  0  0  0  0  0  0  0
    4.6965   -6.6122    0.7833 C   0  0  0  0  0  0  0  0  0  0  0  0
    4.4857   -4.1883    2.3765 C   0  0  0  0  0  0  0  0  0  0  0  0
    3.7439   -5.2857    2.7265 C   0  0  0  0  0  0  0  0  0  0  0  0
    3.2027   -5.3973    4.1859 C   0  0  2  0  0  0  0  0  0  0  0  0
    2.8369   -6.7856    4.7616 C   0  0  0  0  0  0  0  0  0  0  0  0
    2.0518   -4.3866    4.3951 C   0  0  0  0  0  0  0  0  0  0  0  0
    2.7221   -3.0472    4.7731 C   0  0  2  0  0  0  0  0  0  0  0  0
    2.6267   -1.9746    3.7017 C   0  0  0  0  0  0  0  0  0  0  0  0
    1.6017   -1.3573    3.4259 O   0  0  0  0  0  0  0  0  0  0  0  0
    3.9695   -1.7743    3.0258 C   0  0  0  0  0  0  0  0  0  0  0  0
    4.7510   -3.0472    3.3922 C   0  0  1  0  0  0  0  0  0  0  0  0
    4.2298   -3.3522    4.8275 C   0  0  1  0  0  0  0  0  0  0  0  0
    4.9580   -2.5229    5.9050 C   0  0  0  0  0  0  0  0  0  0  0  0
    4.2906   -4.8385    5.1120 C   0  0  0  0  0  0  0  0  0  0  0  0
    2.7243   -8.2838    1.0477 H   0  0  0  0  0  0  0  0  0  0  0  0
    1.8059   -7.6036    2.3446 H   0  0  0  0  0  0  0  0  0  0  0  0
    3.4555   -8.2283    2.6127 H   0  0  0  0  0  0  0  0  0  0  0  0
    2.2255   -6.1887   -0.2455 H   0  0  0  0  0  0  0  0  0  0  0  0
    1.3919   -5.6171    1.1622 H   0  0  0  0  0  0  0  0  0  0  0  0
    1.9205   -3.9098   -0.5679 H   0  0  0  0  0  0  0  0  0  0  0  0
    2.3421   -3.4338    1.0428 H   0  0  0  0  0  0  0  0  0  0  0  0
    4.2317   -4.6633   -0.9368 H   0  0  0  0  0  0  0  0  0  0  0  0
    5.9852   -2.0995    1.2761 H   0  0  0  0  0  0  0  0  0  0  0  0
    7.1031   -3.3831    1.4969 H   0  0  0  0  0  0  0  0  0  0  0  0
    7.4871   -1.9463   -0.5128 H   0  0  0  0  0  0  0  0  0  0  0  0
    7.4620   -3.6358   -0.8507 H   0  0  0  0  0  0  0  0  0  0  0  0
    5.9191   -1.5595   -2.0702 H   0  0  0  0  0  0  0  0  0  0  0  0
    5.7099   -4.3172   -2.4351 H   0  0  0  0  0  0  0  0  0  0  0  0
    3.6387   -1.9960   -3.1805 H   0  0  0  0  0  0  0  0  0  0  0  0
    2.2985   -2.4659   -2.1609 H   0  0  0  0  0  0  0  0  0  0  0  0
    3.3501   -3.6969   -2.8473 H   0  0  0  0  0  0  0  0  0  0  0  0
    3.8461   -0.4840   -1.2772 H   0  0  0  0  0  0  0  0  0  0  0  0
    4.6922   -0.8803    0.1718 H   0  0  0  0  0  0  0  0  0  0  0  0
    2.9737   -1.2743    0.0211 H   0  0  0  0  0  0  0  0  0  0  0  0
    6.2618   -5.5373   -0.2298 H   0  0  0  0  0  0  0  0  0  0  0  0
    6.4856   -5.6636    1.4902 H   0  0  0  0  0  0  0  0  0  0  0  0
    5.1968   -7.4762    1.2211 H   0  0  0  0  0  0  0  0  0  0  0  0
    4.4328   -6.9266   -0.2275 H   0  0  0  0  0  0  0  0  0  0  0  0
    2.6688   -6.7270    5.8372 H   0  0  0  0  0  0  0  0  0  0  0  0
    3.6360   -7.5136    4.6306 H   0  0  0  0  0  0  0  0  0  0  0  0
    1.9013   -7.1782    4.3733 H   0  0  0  0  0  0  0  0  0  0  0  0
    1.4094   -4.3154    3.5161 H   0  0  0  0  0  0  0  0  0  0  0  0
    1.4155   -4.6999    5.2237 H   0  0  0  0  0  0  0  0  0  0  0  0
    2.3347   -2.6719    5.7210 H   0  0  0  0  0  0  0  0  0  0  0  0
    3.8471   -1.6397    1.9605 H   0  0  0  0  0  0  0  0  0  0  0  0
    4.4435   -0.8847    3.4388 H   0  0  0  0  0  0  0  0  0  0  0  0
    5.8180   -2.8587    3.4421 H   0  0  0  0  0  0  0  0  0  0  0  0
    6.0183   -2.7744    5.9423 H   0  0  0  0  0  0  0  0  0  0  0  0
    4.5385   -2.7129    6.8957 H   0  0  0  0  0  0  0  0  0  0  0  0
    4.8750   -1.4506    5.7198 H   0  0  0  0  0  0  0  0  0  0  0  0
    4.0536   -5.0184    6.1620 H   0  0  0  0  0  0  0  0  0  0  0  0
    5.2767   -5.2640    4.9212 H   0  0  0  0  0  0  0  0  0  0  0  0
  2  1  1  1
  1 29  1  0
  1 30  1  0
  1 31  1  0
  2 15  1  0
  2 17  1  0
  2  3  1  0
  3  4  1  0
  3 32  1  0
  3 33  1  0
  4  5  1  0
  4 34  1  0
  4 35  1  0
  5 11  1  0
  5  6  1  0
  5 36  1  6
  6  7  1  1
  6 14  1  0
  6 16  1  0
  7  8  1  0
  7 37  1  0
  7 38  1  0
  8  9  1  0
  8 39  1  0
  8 40  1  0
  9 10  1  0
  9 11  1  0
  9 41  1  6
 10 42  1  0
 11 12  1  0
 11 13  1  0
 12 43  1  0
 12 44  1  0
 12 45  1  0
 13 46  1  0
 13 47  1  0
 13 48  1  0
 14 15  1  0
 14 49  1  0
 14 50  1  0
 15 51  1  0
 15 52  1  0
 16 25  1  0
 16 17  2  0
 17 18  1  0
 18 28  1  0
 18 19  1  1
 18 20  1  0
 19 53  1  0
 19 54  1  0
 19 55  1  0
 20 21  1  0
 20 56  1  0
 20 57  1  0
 21 26  1  0
 21 22  1  0
 21 58  1  1
 22 23  2  0
 22 24  1  0
 24 25  1  0
 24 59  1  0
 24 60  1  0
 25 26  1  0
 25 61  1  1
 26 27  1  1
 26 28  1  0
 27 62  1  0
 27 63  1  0
 27 64  1  0
 28 65  1  0
 28 66  1  0
M  END
>  <i_m_ct_stereo_status>  (142) 
1

>  <s_m_source_file>  (142) 
/var/tmp/pbs.5076255.sched01/tmp9rjncpta/544vc0qzzn.sdf

>  <i_m_source_file_index>  (142) 
12

>  <i_lp_mmshare_version>  (142) 
48012

>  <i_f3d_flags>  (142) 
0

>  <s_epik_input>  (142) 
W0NIMl0xW0NIMl1bQ0BASF0oW09IXSlDKFtDSDNdKShbQ0gzXSlbQ0BASF0oW0NAXTEyMylbQ0gyXVtDSDJdW0NAQF0oW0NIM10pKFtDSDJdW0NIMl0yKUM0PUMzW0NIXTVbQ0BAXTYoW0NIM10pW0NAQEhdKEMoPU8pW0NIMl01KVtDSDJdW0NAXTQoW0NIM10pW0NIMl02

>  <s_epik_cmdline>  (142) 
J2VwaWtfcHl0aG9uJywgJy1waHQnLCAnMi4wJywgJy1waCcsICc3LjAnLCAnLXRuJywgJzgnLCAnLW1hJywgJzIwMCcsICctaW1hZScsICc8aW5maWxlLm1hZT4nLCAnLW9tYWUnLCAnPG91dGZpbGUubWFlPic=

>  <r_lp_tautomer_probability>  (142) 
1

>  <r_epik_Ionization_Penalty>  (142) 
2.44213e-06

>  <r_epik_Ionization_Penalty_Charging>  (142) 
0

>  <r_epik_Ionization_Penalty_Neutral>  (142) 
2.44213e-06

>  <r_epik_State_Penalty>  (142) 
-0

>  <r_epik_Charging_Adjusted_Penalty>  (142) 
0

>  <i_epik_Tot_Q>  (142) 
0

>  <i_epik_Tot_abs_Q>  (142) 
0

>  <s_lp_Force_Field>  (142) 
OPLS3e

>  <r_lp_Energy>  (142) 
89.9742

>  <b_lp_Chiralities_Consistent>  (142) 
1

>  <s_lp_Variant>  (142) 
41:0-1

>  <s_i_glide_gridfile>  (142) 
pfpi4k_grid

>  <i_i_glide_lignum>  (142) 
12

>  <i_i_glide_rotatable_bonds>  (142) 
1

>  <r_i_docking_score>  (142) 
-2.49333

>  <r_i_glide_ligand_efficiency>  (142) 
-0.0890474

>  <r_i_glide_ligand_efficiency_sa>  (142) 
-0.2704

>  <r_i_glide_ligand_efficiency_ln>  (142) 
-0.575533

>  <r_i_glide_gscore>  (142) 
-2.49333

>  <r_i_glide_lipo>  (142) 
-0.444288

>  <r_i_glide_hbond>  (142) 
0

>  <r_i_glide_metal>  (142) 
-0

>  <r_i_glide_rewards>  (142) 
-0.8006

>  <r_i_glide_evdw>  (142) 
-27.7623

>  <r_i_glide_ecoul>  (142) 
0.931177

>  <r_i_glide_erotb>  (142) 
0

>  <r_i_glide_esite>  (142) 
0

>  <r_i_glide_emodel>  (142) 
-30.9191

>  <r_i_glide_energy>  (142) 
-26.8311

>  <r_i_glide_einternal>  (142) 
0.0848766

>  <r_i_glide_intrahb_reward>  (142) 
-0

>  <i_i_glide_confnum>  (142) 
1

>  <i_i_glide_posenum>  (142) 
30

>  <r_i_glide_eff_state_penalty>  (142) 
0

>  <ligand_id>  (142) 
41

>  <original_smiles>  (142) 
CC12CCC3C(CCC(O)C3(C)C)(CC1)C1=C2C2(C)CC3C(=O)CC1C3(C)C2

>  <smiles>  (142) 
[H]OC1([H])C([H])([H])C([H])([H])C23C4=C(C(C([H])([H])[H])(C([H])([H])C([H])([H])C2([H])C1(C([H])([H])[H])C([H])([H])[H])C([H])([H])C3([H])[H])C1(C([H])([H])[H])C([H])([H])C2([H])C(=O)C([H])([H])C4([H])C2(C([H])([H])[H])C1([H])[H]

$$$$
42:0:0
     RDKit          3D

 49 53  0  0  1  0  0  0  0  0999 V2000
   -0.4446    1.4666    2.2247 C   0  0  0  0  0  0  0  0  0  0  0  0
    0.9231    0.9591    2.6072 C   0  0  0  0  0  0  0  0  0  0  0  0
    1.4580    1.1422    3.9073 C   0  0  0  0  0  0  0  0  0  0  0  0
    2.7284    0.5981    4.2159 C   0  0  0  0  0  0  0  0  0  0  0  0
    3.4349    0.0232    3.1492 C   0  0  0  0  0  0  0  0  0  0  0  0
    2.8878   -0.1426    1.8677 C   0  0  0  0  0  0  0  0  0  0  0  0
    1.6256    0.3173    1.6303 N   0  0  0  0  0  0  0  0  0  0  0  0
    3.7615   -0.8584    0.8444 C   0  0  0  0  0  0  0  0  0  0  0  0
    5.2573   -0.7709    1.1342 C   0  0  0  0  0  0  0  0  0  0  0  0
    5.5102   -1.1504    2.5877 C   0  0  0  0  0  0  0  0  0  0  0  0
    4.7645   -0.3178    3.5265 N   0  0  0  0  0  0  0  0  0  0  0  0
    4.8582   -0.2973    4.9934 C   0  0  2  0  0  0  0  0  0  0  0  0
    6.1652    0.4036    5.4205 C   0  0  0  0  0  0  0  0  0  0  0  0
    4.8490   -1.7292    5.6020 C   0  0  0  0  0  0  0  0  0  0  0  0
    5.7842   -2.4598    5.3395 O   0  0  0  0  0  0  0  0  0  0  0  0
    3.8462   -2.1713    6.3945 N   0  0  0  0  0  0  0  0  0  0  0  0
    3.8300   -3.5530    6.8893 C   0  0  0  0  0  0  0  0  0  0  0  0
    2.8073   -1.3150    6.9561 C   0  0  2  0  0  0  0  0  0  0  0  0
    1.4085   -1.6139    6.3904 C   0  0  0  0  0  0  0  0  0  0  0  0
    0.3858   -0.2569    7.0152 S   0  0  0  0  0  0  0  0  0  0  0  0
   -0.5301    0.1798    5.9706 O   0  0  0  0  0  0  0  0  0  0  0  0
   -0.1160   -0.6110    8.3510 O   0  0  0  0  0  0  0  0  0  0  0  0
    1.7501    0.9166    7.2445 C   0  0  0  0  0  0  0  0  0  0  0  0
    3.0536    0.2044    6.8226 C   0  0  2  0  0  0  0  0  0  0  0  0
    3.6462    0.5756    5.4290 C   0  0  2  0  0  0  0  0  0  0  0  0
   -0.9090    1.9955    3.0551 H   0  0  0  0  0  0  0  0  0  0  0  0
   -1.0867    0.6395    1.9355 H   0  0  0  0  0  0  0  0  0  0  0  0
   -0.3581    2.1413    1.3819 H   0  0  0  0  0  0  0  0  0  0  0  0
    0.9021    1.6820    4.6503 H   0  0  0  0  0  0  0  0  0  0  0  0
    3.4400   -1.9021    0.8070 H   0  0  0  0  0  0  0  0  0  0  0  0
    3.5473   -0.4482   -0.1433 H   0  0  0  0  0  0  0  0  0  0  0  0
    5.7976   -1.4281    0.4577 H   0  0  0  0  0  0  0  0  0  0  0  0
    5.5979    0.2410    0.9245 H   0  0  0  0  0  0  0  0  0  0  0  0
    5.2678   -2.1975    2.7460 H   0  0  0  0  0  0  0  0  0  0  0  0
    6.5698   -1.0160    2.7858 H   0  0  0  0  0  0  0  0  0  0  0  0
    6.2459    0.5174    6.5009 H   0  0  0  0  0  0  0  0  0  0  0  0
    6.2402    1.3871    4.9811 H   0  0  0  0  0  0  0  0  0  0  0  0
    7.0452   -0.1246    5.0883 H   0  0  0  0  0  0  0  0  0  0  0  0
    4.6256   -4.1837    6.4970 H   0  0  0  0  0  0  0  0  0  0  0  0
    2.8997   -4.0377    6.6052 H   0  0  0  0  0  0  0  0  0  0  0  0
    3.9255   -3.5802    7.9736 H   0  0  0  0  0  0  0  0  0  0  0  0
    2.7705   -1.5256    8.0308 H   0  0  0  0  0  0  0  0  0  0  0  0
    1.3822   -1.6132    5.3003 H   0  0  0  0  0  0  0  0  0  0  0  0
    0.9955   -2.5586    6.7571 H   0  0  0  0  0  0  0  0  0  0  0  0
    1.5634    1.8645    6.7434 H   0  0  0  0  0  0  0  0  0  0  0  0
    1.7923    1.1230    8.3139 H   0  0  0  0  0  0  0  0  0  0  0  0
    3.8274    0.4628    7.5499 H   0  0  0  0  0  0  0  0  0  0  0  0
    3.9662    1.6166    5.5154 H   0  0  0  0  0  0  0  0  0  0  0  0
    1.2211    0.1681    0.7078 H   0  0  0  0  0  0  0  0  0  0  0  0
  1  2  1  0
  1 26  1  0
  1 27  1  0
  1 28  1  0
  2  7  2  0
  2  3  1  0
  3  4  2  0
  3 29  1  0
  4 25  1  0
  4  5  1  0
  5 11  1  0
  5  6  2  0
  6  7  1  0
  6  8  1  0
  7 49  1  0
  8  9  1  0
  8 30  1  0
  8 31  1  0
  9 10  1  0
  9 32  1  0
  9 33  1  0
 10 11  1  0
 10 34  1  0
 10 35  1  0
 11 12  1  0
 12 25  1  0
 12 13  1  6
 12 14  1  0
 13 36  1  0
 13 37  1  0
 13 38  1  0
 14 15  2  0
 14 16  1  0
 16 17  1  0
 16 18  1  0
 17 39  1  0
 17 40  1  0
 17 41  1  0
 18 24  1  0
 18 19  1  0
 18 42  1  1
 19 20  1  0
 19 43  1  0
 19 44  1  0
 20 21  2  0
 20 22  2  0
 20 23  1  0
 23 24  1  0
 23 45  1  0
 23 46  1  0
 24 25  1  0
 24 47  1  1
 25 48  1  1
M  CHG  1   7   1
M  END
>  <i_m_ct_stereo_status>  (143) 
1

>  <s_m_source_file>  (143) 
/var/tmp/pbs.5076255.sched01/tmp9rjncpta/544vc0qzzn.sdf

>  <i_m_source_file_index>  (143) 
13

>  <i_lp_mmshare_version>  (143) 
48012

>  <i_f3d_flags>  (143) 
0

>  <s_epik_input>  (143) 
W0NIMl0xW0NIMl1bQ0gyXWMybmMoW0NIM10pW2NIXWMoYzJOMVtDQF0zNFtDSDNdKVtDQEhdNFtDQEBIXTVbQ0BIXShOKEMzPU8pW0NIM10pW0NIMl1TKD1PKSg9TylbQ0gyXTU=

>  <s_epik_cmdline>  (143) 
J2VwaWtfcHl0aG9uJywgJy1waHQnLCAnMi4wJywgJy1waCcsICc3LjAnLCAnLXRuJywgJzgnLCAnLW1hJywgJzIwMCcsICctaW1hZScsICc8aW5maWxlLm1hZT4nLCAnLW9tYWUnLCAnPG91dGZpbGUubWFlPic=

>  <r_lp_tautomer_probability>  (143) 
0.999846

>  <r_epik_Ionization_Penalty>  (143) 
0.0400404

>  <r_epik_Ionization_Penalty_Charging>  (143) 
0.0400404

>  <r_epik_Ionization_Penalty_Neutral>  (143) 
1.07956e-10

>  <r_epik_State_Penalty>  (143) 
0.0336781

>  <r_epik_Charging_Adjusted_Penalty>  (143) 
0.0737185

>  <i_epik_Tot_Q>  (143) 
1

>  <i_epik_Tot_abs_Q>  (143) 
1

>  <s_lp_Force_Field>  (143) 
OPLS3e

>  <r_lp_Energy>  (143) 
52.9576

>  <b_lp_Chiralities_Consistent>  (143) 
1

>  <s_lp_Variant>  (143) 
42:0-1

>  <s_i_glide_gridfile>  (143) 
pfpi4k_grid

>  <i_i_glide_lignum>  (143) 
13

>  <i_i_glide_rotatable_bonds>  (143) 
0

>  <r_i_docking_score>  (143) 
-3.56308

>  <r_i_glide_ligand_efficiency>  (143) 
-0.142523

>  <r_i_glide_ligand_efficiency_sa>  (143) 
-0.41674

>  <r_i_glide_ligand_efficiency_ln>  (143) 
-0.844557

>  <r_i_glide_gscore>  (143) 
-3.56308

>  <r_i_glide_lipo>  (143) 
-0.417049

>  <r_i_glide_hbond>  (143) 
-0.2

>  <r_i_glide_metal>  (143) 
-0

>  <r_i_glide_rewards>  (143) 
-1.09439

>  <r_i_glide_evdw>  (143) 
-13.4944

>  <r_i_glide_ecoul>  (143) 
-6.57003

>  <r_i_glide_erotb>  (143) 
0

>  <r_i_glide_esite>  (143) 
-0.191413

>  <r_i_glide_emodel>  (143) 
-25.922

>  <r_i_glide_energy>  (143) 
-20.0644

>  <r_i_glide_einternal>  (143) 
0

>  <r_i_glide_intrahb_reward>  (143) 
-0

>  <i_i_glide_confnum>  (143) 
1

>  <i_i_glide_posenum>  (143) 
15

>  <r_i_glide_eff_state_penalty>  (143) 
0

>  <ligand_id>  (143) 
42

>  <original_smiles>  (143) 
Cc1cc2c3c(n1)CCCN3C1(C)C(=O)N(C)C3CS(=O)(=O)CC3C21

>  <smiles>  (143) 
[H]c1c2c3c([n+]([H])c1C([H])([H])[H])C([H])([H])C([H])([H])C([H])([H])N3C1(C([H])([H])[H])C(=O)N(C([H])([H])[H])C3([H])C([H])(C21[H])C([H])([H])S(=O)(=O)C3([H])[H]

$$$$
42:0:1
     RDKit          3D

 49 53  0  0  1  0  0  0  0  0999 V2000
   -1.6149   -1.2133    4.9055 C   0  0  0  0  0  0  0  0  0  0  0  0
   -1.0534    0.1074    5.3730 C   0  0  0  0  0  0  0  0  0  0  0  0
    0.3353    0.3914    5.3217 C   0  0  0  0  0  0  0  0  0  0  0  0
    0.7913    1.6662    5.7241 C   0  0  0  0  0  0  0  0  0  0  0  0
   -0.1609    2.5257    6.2748 C   0  0  0  0  0  0  0  0  0  0  0  0
   -1.5293    2.2189    6.3357 C   0  0  0  0  0  0  0  0  0  0  0  0
   -1.9284    1.0231    5.8622 N   0  0  0  0  0  0  0  0  0  0  0  0
   -2.4599    3.2846    6.8967 C   0  0  0  0  0  0  0  0  0  0  0  0
   -1.7592    4.2544    7.8509 C   0  0  0  0  0  0  0  0  0  0  0  0
   -0.4633    4.7660    7.2177 C   0  0  0  0  0  0  0  0  0  0  0  0
    0.4335    3.6777    6.8262 N   0  0  0  0  0  0  0  0  0  0  0  0
    1.8120    3.7848    6.3298 C   0  0  2  0  0  0  0  0  0  0  0  0
    2.7544    4.1839    7.4937 C   0  0  0  0  0  0  0  0  0  0  0  0
    1.9236    4.8666    5.2169 C   0  0  0  0  0  0  0  0  0  0  0  0
    1.6826    6.0326    5.5363 O   0  0  0  0  0  0  0  0  0  0  0  0
    2.2529    4.5429    3.9465 N   0  0  0  0  0  0  0  0  0  0  0  0
    2.2959    5.5626    2.8916 C   0  0  0  0  0  0  0  0  0  0  0  0
    2.7286    3.2248    3.5089 C   0  0  2  0  0  0  0  0  0  0  0  0
    1.7660    2.4715    2.5796 C   0  0  0  0  0  0  0  0  0  0  0  0
    2.4420    0.7746    2.4651 S   0  0  0  0  0  0  0  0  0  0  0  0
    1.3425   -0.1932    2.5981 O   0  0  0  0  0  0  0  0  0  0  0  0
    3.3977    0.6694    1.3556 O   0  0  0  0  0  0  0  0  0  0  0  0
    3.4000    0.8840    4.0285 C   0  0  0  0  0  0  0  0  0  0  0  0
    3.1390    2.2765    4.6506 C   0  0  2  0  0  0  0  0  0  0  0  0
    2.1470    2.3421    5.8470 C   0  0  2  0  0  0  0  0  0  0  0  0
   -0.8231   -1.8766    4.5603 H   0  0  0  0  0  0  0  0  0  0  0  0
   -2.3070   -1.0480    4.0809 H   0  0  0  0  0  0  0  0  0  0  0  0
   -2.1526   -1.7115    5.7110 H   0  0  0  0  0  0  0  0  0  0  0  0
    1.0262   -0.3496    4.9690 H   0  0  0  0  0  0  0  0  0  0  0  0
   -2.8927    3.8280    6.0572 H   0  0  0  0  0  0  0  0  0  0  0  0
   -3.2912    2.7983    7.4107 H   0  0  0  0  0  0  0  0  0  0  0  0
   -2.4245    5.0787    8.1027 H   0  0  0  0  0  0  0  0  0  0  0  0
   -1.5416    3.7420    8.7902 H   0  0  0  0  0  0  0  0  0  0  0  0
   -0.7058    5.3708    6.3395 H   0  0  0  0  0  0  0  0  0  0  0  0
    0.0482    5.4207    7.9235 H   0  0  0  0  0  0  0  0  0  0  0  0
    3.7973    4.2078    7.1731 H   0  0  0  0  0  0  0  0  0  0  0  0
    2.6862    3.4753    8.3211 H   0  0  0  0  0  0  0  0  0  0  0  0
    2.5171    5.1678    7.8976 H   0  0  0  0  0  0  0  0  0  0  0  0
    1.9536    6.5503    3.2017 H   0  0  0  0  0  0  0  0  0  0  0  0
    1.6375    5.2740    2.0806 H   0  0  0  0  0  0  0  0  0  0  0  0
    3.3008    5.6840    2.4835 H   0  0  0  0  0  0  0  0  0  0  0  0
    3.6304    3.4237    2.9332 H   0  0  0  0  0  0  0  0  0  0  0  0
    0.7631    2.4082    3.0043 H   0  0  0  0  0  0  0  0  0  0  0  0
    1.6874    2.9089    1.5863 H   0  0  0  0  0  0  0  0  0  0  0  0
    3.1803    0.0391    4.6745 H   0  0  0  0  0  0  0  0  0  0  0  0
    4.4497    0.8074    3.7413 H   0  0  0  0  0  0  0  0  0  0  0  0
    4.0938    2.6364    5.0420 H   0  0  0  0  0  0  0  0  0  0  0  0
    2.6261    1.8022    6.6647 H   0  0  0  0  0  0  0  0  0  0  0  0
   -2.9226    0.8098    5.8607 H   0  0  0  0  0  0  0  0  0  0  0  0
  1  2  1  0
  1 26  1  0
  1 27  1  0
  1 28  1  0
  2  7  2  0
  2  3  1  0
  3  4  2  0
  3 29  1  0
  4 25  1  0
  4  5  1  0
  5 11  1  0
  5  6  2  0
  6  7  1  0
  6  8  1  0
  7 49  1  0
  8  9  1  0
  8 30  1  0
  8 31  1  0
  9 10  1  0
  9 32  1  0
  9 33  1  0
 10 11  1  0
 10 34  1  0
 10 35  1  0
 11 12  1  0
 12 25  1  0
 12 13  1  1
 12 14  1  0
 13 36  1  0
 13 37  1  0
 13 38  1  0
 14 15  2  0
 14 16  1  0
 16 17  1  0
 16 18  1  0
 17 39  1  0
 17 40  1  0
 17 41  1  0
 18 24  1  0
 18 19  1  0
 18 42  1  6
 19 20  1  0
 19 43  1  0
 19 44  1  0
 20 21  2  0
 20 22  2  0
 20 23  1  0
 23 24  1  0
 23 45  1  0
 23 46  1  0
 24 25  1  0
 24 47  1  1
 25 48  1  1
M  CHG  1   7   1
M  END
>  <i_m_ct_stereo_status>  (144) 
1

>  <s_m_source_file>  (144) 
/var/tmp/pbs.5076255.sched01/tmp9rjncpta/544vc0qzzn.sdf

>  <i_m_source_file_index>  (144) 
13

>  <i_lp_mmshare_version>  (144) 
48012

>  <i_f3d_flags>  (144) 
0

>  <s_epik_input>  (144) 
W0NIMl0xW0NIMl1bQ0gyXWMybmMoW0NIM10pW2NIXWMoYzJOMVtDQF0zNFtDSDNdKVtDQEhdNFtDQEBIXTVbQ0BIXShOKEMzPU8pW0NIM10pW0NIMl1TKD1PKSg9TylbQ0gyXTU=

>  <s_epik_cmdline>  (144) 
J2VwaWtfcHl0aG9uJywgJy1waHQnLCAnMi4wJywgJy1waCcsICc3LjAnLCAnLXRuJywgJzgnLCAnLW1hJywgJzIwMCcsICctaW1hZScsICc8aW5maWxlLm1hZT4nLCAnLW9tYWUnLCAnPG91dGZpbGUubWFlPic=

>  <r_lp_tautomer_probability>  (144) 
0.999846

>  <r_epik_Ionization_Penalty>  (144) 
0.0400404

>  <r_epik_Ionization_Penalty_Charging>  (144) 
0.0400404

>  <r_epik_Ionization_Penalty_Neutral>  (144) 
1.07956e-10

>  <r_epik_State_Penalty>  (144) 
0.0336781

>  <r_epik_Charging_Adjusted_Penalty>  (144) 
0.0737185

>  <i_epik_Tot_Q>  (144) 
1

>  <i_epik_Tot_abs_Q>  (144) 
1

>  <s_lp_Force_Field>  (144) 
OPLS3e

>  <r_lp_Energy>  (144) 
52.9576

>  <b_lp_Chiralities_Consistent>  (144) 
1

>  <s_lp_Variant>  (144) 
42:0-1

>  <s_i_glide_gridfile>  (144) 
pfpi4k_grid

>  <i_i_glide_lignum>  (144) 
13

>  <i_i_glide_rotatable_bonds>  (144) 
0

>  <r_i_docking_score>  (144) 
-2.24925

>  <r_i_glide_ligand_efficiency>  (144) 
-0.0899701

>  <r_i_glide_ligand_efficiency_sa>  (144) 
-0.263074

>  <r_i_glide_ligand_efficiency_ln>  (144) 
-0.53314

>  <r_i_glide_gscore>  (144) 
-2.24925

>  <r_i_glide_lipo>  (144) 
-0.114034

>  <r_i_glide_hbond>  (144) 
0

>  <r_i_glide_metal>  (144) 
-0

>  <r_i_glide_rewards>  (144) 
-0.937853

>  <r_i_glide_evdw>  (144) 
-20.3708

>  <r_i_glide_ecoul>  (144) 
-0.460101

>  <r_i_glide_erotb>  (144) 
0

>  <r_i_glide_esite>  (144) 
-0.109811

>  <r_i_glide_emodel>  (144) 
-24.4474

>  <r_i_glide_energy>  (144) 
-20.8309

>  <r_i_glide_einternal>  (144) 
0

>  <r_i_glide_intrahb_reward>  (144) 
-0

>  <i_i_glide_confnum>  (144) 
2

>  <i_i_glide_posenum>  (144) 
31

>  <r_i_glide_eff_state_penalty>  (144) 
0

>  <ligand_id>  (144) 
42

>  <original_smiles>  (144) 
Cc1cc2c3c(n1)CCCN3C1(C)C(=O)N(C)C3CS(=O)(=O)CC3C21

>  <smiles>  (144) 
[H]c1c2c3c([n+]([H])c1C([H])([H])[H])C([H])([H])C([H])([H])C([H])([H])N3C1(C([H])([H])[H])C(=O)N(C([H])([H])[H])C3([H])C([H])(C21[H])C([H])([H])S(=O)(=O)C3([H])[H]

$$$$
42:0:2
     RDKit          3D

 49 53  0  0  1  0  0  0  0  0999 V2000
    1.5453   -0.8710    2.0823 C   0  0  0  0  0  0  0  0  0  0  0  0
    0.7500    0.0235    3.0029 C   0  0  0  0  0  0  0  0  0  0  0  0
    0.9230   -0.0269    4.4148 C   0  0  0  0  0  0  0  0  0  0  0  0
    0.1874    0.8628    5.2290 C   0  0  0  0  0  0  0  0  0  0  0  0
   -0.7642    1.6491    4.5879 C   0  0  0  0  0  0  0  0  0  0  0  0
   -0.9309    1.6714    3.1925 C   0  0  0  0  0  0  0  0  0  0  0  0
   -0.1485    0.8723    2.4387 N   0  0  0  0  0  0  0  0  0  0  0  0
   -1.9691    2.6229    2.6370 C   0  0  0  0  0  0  0  0  0  0  0  0
   -3.0633    2.9936    3.6294 C   0  0  0  0  0  0  0  0  0  0  0  0
   -2.4468    3.3835    4.9777 C   0  0  0  0  0  0  0  0  0  0  0  0
   -1.5761    2.3365    5.5155 N   0  0  0  0  0  0  0  0  0  0  0  0
   -0.9258    2.3031    6.8333 C   0  0  2  0  0  0  0  0  0  0  0  0
   -1.9880    2.0195    7.9269 C   0  0  0  0  0  0  0  0  0  0  0  0
   -0.2416    3.6650    7.1645 C   0  0  0  0  0  0  0  0  0  0  0  0
   -0.9732    4.6523    7.2722 O   0  0  0  0  0  0  0  0  0  0  0  0
    1.1030    3.7692    7.3098 N   0  0  0  0  0  0  0  0  0  0  0  0
    1.7455    5.0710    7.5415 C   0  0  0  0  0  0  0  0  0  0  0  0
    2.0350    2.6358    7.3844 C   0  0  2  0  0  0  0  0  0  0  0  0
    2.9843    2.5254    6.1806 C   0  0  0  0  0  0  0  0  0  0  0  0
    3.7786    0.8932    6.3708 S   0  0  0  0  0  0  0  0  0  0  0  0
    3.8330    0.2257    5.0662 O   0  0  0  0  0  0  0  0  0  0  0  0
    4.9870    1.0299    7.2001 O   0  0  0  0  0  0  0  0  0  0  0  0
    2.4465    0.1834    7.4167 C   0  0  0  0  0  0  0  0  0  0  0  0
    1.3572    1.2671    7.5863 C   0  0  2  0  0  0  0  0  0  0  0  0
    0.0690    1.1105    6.7249 C   0  0  2  0  0  0  0  0  0  0  0  0
    2.2123   -1.5256    2.6429 H   0  0  0  0  0  0  0  0  0  0  0  0
    2.1406   -0.2663    1.3996 H   0  0  0  0  0  0  0  0  0  0  0  0
    0.8743   -1.4928    1.4949 H   0  0  0  0  0  0  0  0  0  0  0  0
    1.6115   -0.7288    4.8499 H   0  0  0  0  0  0  0  0  0  0  0  0
   -1.4587    3.5279    2.3076 H   0  0  0  0  0  0  0  0  0  0  0  0
   -2.4372    2.1468    1.7741 H   0  0  0  0  0  0  0  0  0  0  0  0
   -3.6740    3.7973    3.2195 H   0  0  0  0  0  0  0  0  0  0  0  0
   -3.7316    2.1464    3.7103 H   0  0  0  0  0  0  0  0  0  0  0  0
   -1.8729    4.3045    4.8550 H   0  0  0  0  0  0  0  0  0  0  0  0
   -3.2422    3.5930    5.6974 H   0  0  0  0  0  0  0  0  0  0  0  0
   -1.5333    1.9195    8.9152 H   0  0  0  0  0  0  0  0  0  0  0  0
   -2.5287    1.0989    7.7161 H   0  0  0  0  0  0  0  0  0  0  0  0
   -2.7345    2.8132    7.9952 H   0  0  0  0  0  0  0  0  0  0  0  0
    1.0634    5.9212    7.5147 H   0  0  0  0  0  0  0  0  0  0  0  0
    2.4995    5.2635    6.7789 H   0  0  0  0  0  0  0  0  0  0  0  0
    2.2317    5.0978    8.5174 H   0  0  0  0  0  0  0  0  0  0  0  0
    2.6581    2.7942    8.2697 H   0  0  0  0  0  0  0  0  0  0  0  0
    2.4472    2.5309    5.2320 H   0  0  0  0  0  0  0  0  0  0  0  0
    3.7549    3.2951    6.1529 H   0  0  0  0  0  0  0  0  0  0  0  0
    2.1038   -0.7651    7.0122 H   0  0  0  0  0  0  0  0  0  0  0  0
    2.9064   -0.0279    8.3828 H   0  0  0  0  0  0  0  0  0  0  0  0
    1.0230    1.2238    8.6250 H   0  0  0  0  0  0  0  0  0  0  0  0
   -0.4276    0.2137    7.0949 H   0  0  0  0  0  0  0  0  0  0  0  0
   -0.2516    0.8928    1.4194 H   0  0  0  0  0  0  0  0  0  0  0  0
  1  2  1  0
  1 26  1  0
  1 27  1  0
  1 28  1  0
  2  7  2  0
  2  3  1  0
  3  4  2  0
  3 29  1  0
  4 25  1  0
  4  5  1  0
  5 11  1  0
  5  6  2  0
  6  7  1  0
  6  8  1  0
  7 49  1  0
  8  9  1  0
  8 30  1  0
  8 31  1  0
  9 10  1  0
  9 32  1  0
  9 33  1  0
 10 11  1  0
 10 34  1  0
 10 35  1  0
 11 12  1  0
 12 25  1  0
 12 13  1  1
 12 14  1  0
 13 36  1  0
 13 37  1  0
 13 38  1  0
 14 15  2  0
 14 16  1  0
 16 17  1  0
 16 18  1  0
 17 39  1  0
 17 40  1  0
 17 41  1  0
 18 24  1  0
 18 19  1  0
 18 42  1  1
 19 20  1  0
 19 43  1  0
 19 44  1  0
 20 21  2  0
 20 22  2  0
 20 23  1  0
 23 24  1  0
 23 45  1  0
 23 46  1  0
 24 25  1  0
 24 47  1  1
 25 48  1  1
M  CHG  1   7   1
M  END
>  <i_m_ct_stereo_status>  (145) 
1

>  <s_m_source_file>  (145) 
/var/tmp/pbs.5076255.sched01/tmp9rjncpta/544vc0qzzn.sdf

>  <i_m_source_file_index>  (145) 
13

>  <i_lp_mmshare_version>  (145) 
48012

>  <i_f3d_flags>  (145) 
0

>  <s_epik_input>  (145) 
W0NIMl0xW0NIMl1bQ0gyXWMybmMoW0NIM10pW2NIXWMoYzJOMVtDQF0zNFtDSDNdKVtDQEhdNFtDQEBIXTVbQ0BIXShOKEMzPU8pW0NIM10pW0NIMl1TKD1PKSg9TylbQ0gyXTU=

>  <s_epik_cmdline>  (145) 
J2VwaWtfcHl0aG9uJywgJy1waHQnLCAnMi4wJywgJy1waCcsICc3LjAnLCAnLXRuJywgJzgnLCAnLW1hJywgJzIwMCcsICctaW1hZScsICc8aW5maWxlLm1hZT4nLCAnLW9tYWUnLCAnPG91dGZpbGUubWFlPic=

>  <r_lp_tautomer_probability>  (145) 
0.999846

>  <r_epik_Ionization_Penalty>  (145) 
0.0400404

>  <r_epik_Ionization_Penalty_Charging>  (145) 
0.0400404

>  <r_epik_Ionization_Penalty_Neutral>  (145) 
1.07956e-10

>  <r_epik_State_Penalty>  (145) 
0.0336781

>  <r_epik_Charging_Adjusted_Penalty>  (145) 
0.0737185

>  <i_epik_Tot_Q>  (145) 
1

>  <i_epik_Tot_abs_Q>  (145) 
1

>  <s_lp_Force_Field>  (145) 
OPLS3e

>  <r_lp_Energy>  (145) 
52.9576

>  <b_lp_Chiralities_Consistent>  (145) 
1

>  <s_lp_Variant>  (145) 
42:0-1

>  <s_i_glide_gridfile>  (145) 
pfpi4k_grid

>  <i_i_glide_lignum>  (145) 
13

>  <i_i_glide_rotatable_bonds>  (145) 
0

>  <r_i_docking_score>  (145) 
-2.17285

>  <r_i_glide_ligand_efficiency>  (145) 
-0.0869139

>  <r_i_glide_ligand_efficiency_sa>  (145) 
-0.254138

>  <r_i_glide_ligand_efficiency_ln>  (145) 
-0.51503

>  <r_i_glide_gscore>  (145) 
-2.17285

>  <r_i_glide_lipo>  (145) 
0

>  <r_i_glide_hbond>  (145) 
0

>  <r_i_glide_metal>  (145) 
-0

>  <r_i_glide_rewards>  (145) 
-0.946887

>  <r_i_glide_evdw>  (145) 
-16.2127

>  <r_i_glide_ecoul>  (145) 
-2.3929

>  <r_i_glide_erotb>  (145) 
0

>  <r_i_glide_esite>  (145) 
-0.0563934

>  <r_i_glide_emodel>  (145) 
-22.0954

>  <r_i_glide_energy>  (145) 
-18.6056

>  <r_i_glide_einternal>  (145) 
0

>  <r_i_glide_intrahb_reward>  (145) 
-0

>  <i_i_glide_confnum>  (145) 
2

>  <i_i_glide_posenum>  (145) 
14

>  <r_i_glide_eff_state_penalty>  (145) 
0

>  <ligand_id>  (145) 
42

>  <original_smiles>  (145) 
Cc1cc2c3c(n1)CCCN3C1(C)C(=O)N(C)C3CS(=O)(=O)CC3C21

>  <smiles>  (145) 
[H]c1c2c3c([n+]([H])c1C([H])([H])[H])C([H])([H])C([H])([H])C([H])([H])N3C1(C([H])([H])[H])C(=O)N(C([H])([H])[H])C3([H])C([H])(C21[H])C([H])([H])S(=O)(=O)C3([H])[H]

$$$$
42:1:0
     RDKit          3D

 48 52  0  0  1  0  0  0  0  0999 V2000
   -1.3524   -1.6669    5.5851 C   0  0  0  0  0  0  0  0  0  0  0  0
   -0.9214   -0.2651    5.9487 C   0  0  0  0  0  0  0  0  0  0  0  0
    0.4249    0.1289    5.7773 C   0  0  0  0  0  0  0  0  0  0  0  0
    0.7802    1.4476    6.1120 C   0  0  0  0  0  0  0  0  0  0  0  0
   -0.2197    2.2141    6.7026 C   0  0  0  0  0  0  0  0  0  0  0  0
   -1.5525    1.7855    6.8557 C   0  0  0  0  0  0  0  0  0  0  0  0
   -1.8908    0.5350    6.4669 N   0  0  0  0  0  0  0  0  0  0  0  0
   -2.5291    2.7841    7.4609 C   0  0  0  0  0  0  0  0  0  0  0  0
   -1.8433    3.7252    8.4491 C   0  0  0  0  0  0  0  0  0  0  0  0
   -0.6483    4.3908    7.7646 C   0  0  0  0  0  0  0  0  0  0  0  0
    0.3023    3.4155    7.2305 N   0  0  0  0  0  0  0  0  0  0  0  0
    1.6334    3.6515    6.6680 C   0  0  2  0  0  0  0  0  0  0  0  0
    2.5969    4.1226    7.7861 C   0  0  0  0  0  0  0  0  0  0  0  0
    1.5794    4.7462    5.5676 C   0  0  0  0  0  0  0  0  0  0  0  0
    1.2507    5.8842    5.9128 O   0  0  0  0  0  0  0  0  0  0  0  0
    1.8703    4.4658    4.2766 N   0  0  0  0  0  0  0  0  0  0  0  0
    1.7434    5.4917    3.2341 C   0  0  0  0  0  0  0  0  0  0  0  0
    2.4234    3.1918    3.7901 C   0  0  2  0  0  0  0  0  0  0  0  0
    1.4485    2.3608    2.9396 C   0  0  0  0  0  0  0  0  0  0  0  0
    2.2525    0.7329    2.7648 S   0  0  0  0  0  0  0  0  0  0  0  0
    1.2623   -0.3347    2.9573 O   0  0  0  0  0  0  0  0  0  0  0  0
    3.1228    0.7366    1.5827 O   0  0  0  0  0  0  0  0  0  0  0  0
    3.3198    0.9177    4.2450 C   0  0  0  0  0  0  0  0  0  0  0  0
    2.9848    2.2792    4.8976 C   0  0  2  0  0  0  0  0  0  0  0  0
    2.0677    2.2470    6.1522 C   0  0  2  0  0  0  0  0  0  0  0  0
   -0.5412   -2.2187    5.1133 H   0  0  0  0  0  0  0  0  0  0  0  0
   -2.1857   -1.6205    4.8860 H   0  0  0  0  0  0  0  0  0  0  0  0
   -1.6649   -2.2220    6.4701 H   0  0  0  0  0  0  0  0  0  0  0  0
    1.1578   -0.5661    5.4120 H   0  0  0  0  0  0  0  0  0  0  0  0
   -2.9787    3.3654    6.6535 H   0  0  0  0  0  0  0  0  0  0  0  0
   -3.3380    2.2408    7.9517 H   0  0  0  0  0  0  0  0  0  0  0  0
   -2.5451    4.4676    8.8195 H   0  0  0  0  0  0  0  0  0  0  0  0
   -1.5100    3.1546    9.3172 H   0  0  0  0  0  0  0  0  0  0  0  0
   -1.0006    5.0313    6.9542 H   0  0  0  0  0  0  0  0  0  0  0  0
   -0.1386    5.0319    8.4775 H   0  0  0  0  0  0  0  0  0  0  0  0
    3.6164    4.2359    7.4152 H   0  0  0  0  0  0  0  0  0  0  0  0
    2.6300    3.4098    8.6126 H   0  0  0  0  0  0  0  0  0  0  0  0
    2.3012    5.0815    8.2097 H   0  0  0  0  0  0  0  0  0  0  0  0
    1.3675    6.4544    3.5768 H   0  0  0  0  0  0  0  0  0  0  0  0
    1.0287    5.1600    2.4862 H   0  0  0  0  0  0  0  0  0  0  0  0
    2.6961    5.6784    2.7376 H   0  0  0  0  0  0  0  0  0  0  0  0
    3.2702    3.4405    3.1412 H   0  0  0  0  0  0  0  0  0  0  0  0
    0.4918    2.2107    3.4472 H   0  0  0  0  0  0  0  0  0  0  0  0
    1.2618    2.7812    1.9537 H   0  0  0  0  0  0  0  0  0  0  0  0
    3.2158    0.0587    4.9011 H   0  0  0  0  0  0  0  0  0  0  0  0
    4.3459    0.9347    3.8727 H   0  0  0  0  0  0  0  0  0  0  0  0
    3.9285    2.7210    5.2296 H   0  0  0  0  0  0  0  0  0  0  0  0
    2.6455    1.7526    6.9345 H   0  0  0  0  0  0  0  0  0  0  0  0
  1  2  1  0
  1 26  1  0
  1 27  1  0
  1 28  1  0
  2  7  2  0
  2  3  1  0
  3  4  2  0
  3 29  1  0
  4 25  1  0
  4  5  1  0
  5 11  1  0
  5  6  2  0
  6  7  1  0
  6  8  1  0
  8  9  1  0
  8 30  1  0
  8 31  1  0
  9 10  1  0
  9 32  1  0
  9 33  1  0
 10 11  1  0
 10 34  1  0
 10 35  1  0
 11 12  1  0
 12 25  1  0
 12 13  1  1
 12 14  1  0
 13 36  1  0
 13 37  1  0
 13 38  1  0
 14 15  2  0
 14 16  1  0
 16 17  1  0
 16 18  1  0
 17 39  1  0
 17 40  1  0
 17 41  1  0
 18 24  1  0
 18 19  1  0
 18 42  1  6
 19 20  1  0
 19 43  1  0
 19 44  1  0
 20 21  2  0
 20 22  2  0
 20 23  1  0
 23 24  1  0
 23 45  1  0
 23 46  1  0
 24 25  1  0
 24 47  1  1
 25 48  1  1
M  END
>  <i_m_ct_stereo_status>  (146) 
1

>  <s_m_source_file>  (146) 
/var/tmp/pbs.5076255.sched01/tmp9rjncpta/544vc0qzzn.sdf

>  <i_m_source_file_index>  (146) 
14

>  <i_lp_mmshare_version>  (146) 
48012

>  <i_f3d_flags>  (146) 
0

>  <s_epik_input>  (146) 
W0NIMl0xW0NIMl1bQ0gyXWMybmMoW0NIM10pW2NIXWMoYzJOMVtDQF0zNFtDSDNdKVtDQEhdNFtDQEBIXTVbQ0BIXShOKEMzPU8pW0NIM10pW0NIMl1TKD1PKSg9TylbQ0gyXTU=

>  <s_epik_cmdline>  (146) 
J2VwaWtfcHl0aG9uJywgJy1waHQnLCAnMi4wJywgJy1waCcsICc3LjAnLCAnLXRuJywgJzgnLCAnLW1hJywgJzIwMCcsICctaW1hZScsICc8aW5maWxlLm1hZT4nLCAnLW9tYWUnLCAnPG91dGZpbGUubWFlPic=

>  <r_lp_tautomer_probability>  (146) 
1

>  <r_epik_Ionization_Penalty>  (146) 
1.61632

>  <r_epik_Ionization_Penalty_Charging>  (146) 
0

>  <r_epik_Ionization_Penalty_Neutral>  (146) 
1.61632

>  <r_epik_State_Penalty>  (146) 
1.7157

>  <r_epik_Charging_Adjusted_Penalty>  (146) 
1.7157

>  <i_epik_Tot_Q>  (146) 
0

>  <i_epik_Tot_abs_Q>  (146) 
0

>  <s_lp_Force_Field>  (146) 
OPLS3e

>  <r_lp_Energy>  (146) 
44.2537

>  <b_lp_Chiralities_Consistent>  (146) 
1

>  <s_lp_Variant>  (146) 
42:0-2

>  <s_i_glide_gridfile>  (146) 
pfpi4k_grid

>  <i_i_glide_lignum>  (146) 
14

>  <i_i_glide_rotatable_bonds>  (146) 
0

>  <r_i_docking_score>  (146) 
-2.76266

>  <r_i_glide_ligand_efficiency>  (146) 
-0.110506

>  <r_i_glide_ligand_efficiency_sa>  (146) 
-0.323123

>  <r_i_glide_ligand_efficiency_ln>  (146) 
-0.654833

>  <r_i_glide_gscore>  (146) 
-2.76266

>  <r_i_glide_lipo>  (146) 
-0.133267

>  <r_i_glide_hbond>  (146) 
-0.16

>  <r_i_glide_metal>  (146) 
-0

>  <r_i_glide_rewards>  (146) 
-0.944594

>  <r_i_glide_evdw>  (146) 
-19.5494

>  <r_i_glide_ecoul>  (146) 
-3.28768

>  <r_i_glide_erotb>  (146) 
0

>  <r_i_glide_esite>  (146) 
-0.0541771

>  <r_i_glide_emodel>  (146) 
-27.1231

>  <r_i_glide_energy>  (146) 
-22.837

>  <r_i_glide_einternal>  (146) 
0

>  <r_i_glide_intrahb_reward>  (146) 
-0

>  <i_i_glide_confnum>  (146) 
1

>  <i_i_glide_posenum>  (146) 
31

>  <r_i_glide_eff_state_penalty>  (146) 
0

>  <ligand_id>  (146) 
42

>  <original_smiles>  (146) 
Cc1cc2c3c(n1)CCCN3C1(C)C(=O)N(C)C3CS(=O)(=O)CC3C21

>  <smiles>  (146) 
[H]c1c(C([H])([H])[H])nc2c3c1C1([H])C(C([H])([H])[H])(C(=O)N(C([H])([H])[H])C4([H])C1([H])C([H])([H])S(=O)(=O)C4([H])[H])N3C([H])([H])C([H])([H])C2([H])[H]

$$$$
42:1:1
     RDKit          3D

 48 52  0  0  1  0  0  0  0  0999 V2000
   -2.7602    3.0577    2.9870 C   0  0  0  0  0  0  0  0  0  0  0  0
   -2.0168    2.5231    4.1906 C   0  0  0  0  0  0  0  0  0  0  0  0
   -1.2376    1.3472    4.0791 C   0  0  0  0  0  0  0  0  0  0  0  0
   -0.5640    0.8799    5.2211 C   0  0  0  0  0  0  0  0  0  0  0  0
   -0.8424    1.5538    6.4063 C   0  0  0  0  0  0  0  0  0  0  0  0
   -1.6192    2.7295    6.4762 C   0  0  0  0  0  0  0  0  0  0  0  0
   -2.1863    3.2161    5.3471 N   0  0  0  0  0  0  0  0  0  0  0  0
   -1.7564    3.3764    7.8466 C   0  0  0  0  0  0  0  0  0  0  0  0
   -1.6833    2.3528    8.9777 C   0  0  0  0  0  0  0  0  0  0  0  0
   -0.4073    1.5212    8.8246 C   0  0  0  0  0  0  0  0  0  0  0  0
   -0.3380    0.8513    7.5235 N   0  0  0  0  0  0  0  0  0  0  0  0
    0.6499   -0.1309    7.0641 C   0  0  2  0  0  0  0  0  0  0  0  0
    0.4381   -1.4629    7.8241 C   0  0  0  0  0  0  0  0  0  0  0  0
    2.1060    0.3585    7.3231 C   0  0  0  0  0  0  0  0  0  0  0  0
    2.4539    0.5069    8.4964 O   0  0  0  0  0  0  0  0  0  0  0  0
    2.9599    0.6172    6.3038 N   0  0  0  0  0  0  0  0  0  0  0  0
    4.3071    1.1543    6.5517 C   0  0  0  0  0  0  0  0  0  0  0  0
    2.7088    0.3001    4.8914 C   0  0  2  0  0  0  0  0  0  0  0  0
    2.5139    1.5349    3.9988 C   0  0  0  0  0  0  0  0  0  0  0  0
    1.9037    0.8614    2.4162 S   0  0  0  0  0  0  0  0  0  0  0  0
    0.8003    1.6937    1.9298 O   0  0  0  0  0  0  0  0  0  0  0  0
    3.0515    0.5456    1.5584 O   0  0  0  0  0  0  0  0  0  0  0  0
    1.2706   -0.7055    3.1305 C   0  0  0  0  0  0  0  0  0  0  0  0
    1.5225   -0.6563    4.6534 C   0  0  2  0  0  0  0  0  0  0  0  0
    0.3030   -0.3183    5.5570 C   0  0  2  0  0  0  0  0  0  0  0  0
   -2.5095    2.4920    2.0914 H   0  0  0  0  0  0  0  0  0  0  0  0
   -2.4955    4.1006    2.8156 H   0  0  0  0  0  0  0  0  0  0  0  0
   -3.8381    2.9878    3.1402 H   0  0  0  0  0  0  0  0  0  0  0  0
   -1.1751    0.8240    3.1401 H   0  0  0  0  0  0  0  0  0  0  0  0
   -0.9589    4.1114    7.9681 H   0  0  0  0  0  0  0  0  0  0  0  0
   -2.7019    3.9214    7.8907 H   0  0  0  0  0  0  0  0  0  0  0  0
   -1.7120    2.8447    9.9481 H   0  0  0  0  0  0  0  0  0  0  0  0
   -2.5664    1.7192    8.9284 H   0  0  0  0  0  0  0  0  0  0  0  0
    0.4626    2.1681    8.9552 H   0  0  0  0  0  0  0  0  0  0  0  0
   -0.3627    0.7741    9.6142 H   0  0  0  0  0  0  0  0  0  0  0  0
    1.1029   -2.2456    7.4564 H   0  0  0  0  0  0  0  0  0  0  0  0
   -0.5814   -1.8285    7.7037 H   0  0  0  0  0  0  0  0  0  0  0  0
    0.6227   -1.3610    8.8943 H   0  0  0  0  0  0  0  0  0  0  0  0
    4.5251    1.3502    7.6007 H   0  0  0  0  0  0  0  0  0  0  0  0
    4.4383    2.1010    6.0304 H   0  0  0  0  0  0  0  0  0  0  0  0
    5.0752    0.4653    6.2006 H   0  0  0  0  0  0  0  0  0  0  0  0
    3.5947   -0.2208    4.5161 H   0  0  0  0  0  0  0  0  0  0  0  0
    1.7454    2.2041    4.3914 H   0  0  0  0  0  0  0  0  0  0  0  0
    3.4222    2.1087    3.8131 H   0  0  0  0  0  0  0  0  0  0  0  0
    0.2349   -0.8615    2.8444 H   0  0  0  0  0  0  0  0  0  0  0  0
    1.8634   -1.5003    2.6761 H   0  0  0  0  0  0  0  0  0  0  0  0
    1.8482   -1.6537    4.9589 H   0  0  0  0  0  0  0  0  0  0  0  0
   -0.3835   -1.1589    5.4577 H   0  0  0  0  0  0  0  0  0  0  0  0
  1  2  1  0
  1 26  1  0
  1 27  1  0
  1 28  1  0
  2  7  2  0
  2  3  1  0
  3  4  2  0
  3 29  1  0
  4 25  1  0
  4  5  1  0
  5 11  1  0
  5  6  2  0
  6  7  1  0
  6  8  1  0
  8  9  1  0
  8 30  1  0
  8 31  1  0
  9 10  1  0
  9 32  1  0
  9 33  1  0
 10 11  1  0
 10 34  1  0
 10 35  1  0
 11 12  1  0
 12 25  1  0
 12 13  1  1
 12 14  1  0
 13 36  1  0
 13 37  1  0
 13 38  1  0
 14 15  2  0
 14 16  1  0
 16 17  1  0
 16 18  1  0
 17 39  1  0
 17 40  1  0
 17 41  1  0
 18 24  1  0
 18 19  1  0
 18 42  1  6
 19 20  1  0
 19 43  1  0
 19 44  1  0
 20 21  2  0
 20 22  2  0
 20 23  1  0
 23 24  1  0
 23 45  1  0
 23 46  1  0
 24 25  1  0
 24 47  1  1
 25 48  1  1
M  END
>  <i_m_ct_stereo_status>  (147) 
1

>  <s_m_source_file>  (147) 
/var/tmp/pbs.5076255.sched01/tmp9rjncpta/544vc0qzzn.sdf

>  <i_m_source_file_index>  (147) 
14

>  <i_lp_mmshare_version>  (147) 
48012

>  <i_f3d_flags>  (147) 
0

>  <s_epik_input>  (147) 
W0NIMl0xW0NIMl1bQ0gyXWMybmMoW0NIM10pW2NIXWMoYzJOMVtDQF0zNFtDSDNdKVtDQEhdNFtDQEBIXTVbQ0BIXShOKEMzPU8pW0NIM10pW0NIMl1TKD1PKSg9TylbQ0gyXTU=

>  <s_epik_cmdline>  (147) 
J2VwaWtfcHl0aG9uJywgJy1waHQnLCAnMi4wJywgJy1waCcsICc3LjAnLCAnLXRuJywgJzgnLCAnLW1hJywgJzIwMCcsICctaW1hZScsICc8aW5maWxlLm1hZT4nLCAnLW9tYWUnLCAnPG91dGZpbGUubWFlPic=

>  <r_lp_tautomer_probability>  (147) 
1

>  <r_epik_Ionization_Penalty>  (147) 
1.61632

>  <r_epik_Ionization_Penalty_Charging>  (147) 
0

>  <r_epik_Ionization_Penalty_Neutral>  (147) 
1.61632

>  <r_epik_State_Penalty>  (147) 
1.7157

>  <r_epik_Charging_Adjusted_Penalty>  (147) 
1.7157

>  <i_epik_Tot_Q>  (147) 
0

>  <i_epik_Tot_abs_Q>  (147) 
0

>  <s_lp_Force_Field>  (147) 
OPLS3e

>  <r_lp_Energy>  (147) 
44.2537

>  <b_lp_Chiralities_Consistent>  (147) 
1

>  <s_lp_Variant>  (147) 
42:0-2

>  <s_i_glide_gridfile>  (147) 
pfpi4k_grid

>  <i_i_glide_lignum>  (147) 
14

>  <i_i_glide_rotatable_bonds>  (147) 
0

>  <r_i_docking_score>  (147) 
-2.57113

>  <r_i_glide_ligand_efficiency>  (147) 
-0.102845

>  <r_i_glide_ligand_efficiency_sa>  (147) 
-0.300721

>  <r_i_glide_ligand_efficiency_ln>  (147) 
-0.609435

>  <r_i_glide_gscore>  (147) 
-2.57113

>  <r_i_glide_lipo>  (147) 
-0.0631251

>  <r_i_glide_hbond>  (147) 
0

>  <r_i_glide_metal>  (147) 
-0

>  <r_i_glide_rewards>  (147) 
-0.944594

>  <r_i_glide_evdw>  (147) 
-22.2527

>  <r_i_glide_ecoul>  (147) 
-2.23566

>  <r_i_glide_erotb>  (147) 
0

>  <r_i_glide_esite>  (147) 
-0.115425

>  <r_i_glide_emodel>  (147) 
-28.4724

>  <r_i_glide_energy>  (147) 
-24.4884

>  <r_i_glide_einternal>  (147) 
0

>  <r_i_glide_intrahb_reward>  (147) 
-0

>  <i_i_glide_confnum>  (147) 
1

>  <i_i_glide_posenum>  (147) 
3

>  <r_i_glide_eff_state_penalty>  (147) 
0

>  <ligand_id>  (147) 
42

>  <original_smiles>  (147) 
Cc1cc2c3c(n1)CCCN3C1(C)C(=O)N(C)C3CS(=O)(=O)CC3C21

>  <smiles>  (147) 
[H]c1c(C([H])([H])[H])nc2c3c1C1([H])C(C([H])([H])[H])(C(=O)N(C([H])([H])[H])C4([H])C1([H])C([H])([H])S(=O)(=O)C4([H])[H])N3C([H])([H])C([H])([H])C2([H])[H]

$$$$
42:1:2
     RDKit          3D

 48 52  0  0  1  0  0  0  0  0999 V2000
   -0.7432    1.1861    9.0296 C   0  0  0  0  0  0  0  0  0  0  0  0
   -0.2542    1.2233    7.5999 C   0  0  0  0  0  0  0  0  0  0  0  0
    0.9479    1.8984    7.2818 C   0  0  0  0  0  0  0  0  0  0  0  0
    1.3713    1.9116    5.9412 C   0  0  0  0  0  0  0  0  0  0  0  0
    0.4861    1.3580    5.0233 C   0  0  0  0  0  0  0  0  0  0  0  0
   -0.7038    0.6907    5.3787 C   0  0  0  0  0  0  0  0  0  0  0  0
   -1.0498    0.6038    6.6872 N   0  0  0  0  0  0  0  0  0  0  0  0
   -1.5125    0.0993    4.2341 C   0  0  0  0  0  0  0  0  0  0  0  0
   -1.3430    0.9030    2.9400 C   0  0  0  0  0  0  0  0  0  0  0  0
    0.1353    1.0308    2.6100 C   0  0  0  0  0  0  0  0  0  0  0  0
    0.8833    1.6495    3.7008 N   0  0  0  0  0  0  0  0  0  0  0  0
    2.2728    2.0997    3.6935 C   0  0  2  0  0  0  0  0  0  0  0  0
    2.4130    3.3223    2.7512 C   0  0  0  0  0  0  0  0  0  0  0  0
    3.2094    0.9575    3.1998 C   0  0  0  0  0  0  0  0  0  0  0  0
    3.0761    0.5705    2.0355 O   0  0  0  0  0  0  0  0  0  0  0  0
    4.1427    0.4093    4.0122 N   0  0  0  0  0  0  0  0  0  0  0  0
    4.9874   -0.7062    3.5590 C   0  0  0  0  0  0  0  0  0  0  0  0
    4.5000    0.9097    5.3469 C   0  0  2  0  0  0  0  0  0  0  0  0
    4.0794   -0.0231    6.4921 C   0  0  0  0  0  0  0  0  0  0  0  0
    4.3322    0.9640    8.0059 S   0  0  0  0  0  0  0  0  0  0  0  0
    3.1916    0.7750    8.9098 O   0  0  0  0  0  0  0  0  0  0  0  0
    5.7063    0.7689    8.4821 O   0  0  0  0  0  0  0  0  0  0  0  0
    4.2479    2.5911    7.1619 C   0  0  0  0  0  0  0  0  0  0  0  0
    3.9754    2.3256    5.6639 C   0  0  2  0  0  0  0  0  0  0  0  0
    2.5179    2.5353    5.1682 C   0  0  2  0  0  0  0  0  0  0  0  0
   -0.0109    1.6233    9.7065 H   0  0  0  0  0  0  0  0  0  0  0  0
   -0.9085    0.1550    9.3374 H   0  0  0  0  0  0  0  0  0  0  0  0
   -1.6775    1.7415    9.1323 H   0  0  0  0  0  0  0  0  0  0  0  0
    1.5158    2.3991    8.0458 H   0  0  0  0  0  0  0  0  0  0  0  0
   -1.1834   -0.9299    4.0806 H   0  0  0  0  0  0  0  0  0  0  0  0
   -2.5637    0.0577    4.5266 H   0  0  0  0  0  0  0  0  0  0  0  0
   -1.8298    0.4364    2.0945 H   0  0  0  0  0  0  0  0  0  0  0  0
   -1.8016    1.8847    3.0597 H   0  0  0  0  0  0  0  0  0  0  0  0
    0.5432    0.0411    2.3924 H   0  0  0  0  0  0  0  0  0  0  0  0
    0.2465    1.6220    1.7031 H   0  0  0  0  0  0  0  0  0  0  0  0
    3.4156    3.7419    2.7814 H   0  0  0  0  0  0  0  0  0  0  0  0
    1.7295    4.1268    3.0264 H   0  0  0  0  0  0  0  0  0  0  0  0
    2.1990    3.0759    1.7121 H   0  0  0  0  0  0  0  0  0  0  0  0
    4.7678   -1.0517    2.5500 H   0  0  0  0  0  0  0  0  0  0  0  0
    4.8558   -1.5672    4.2117 H   0  0  0  0  0  0  0  0  0  0  0  0
    6.0412   -0.4283    3.5665 H   0  0  0  0  0  0  0  0  0  0  0  0
    5.5912    0.9790    5.3812 H   0  0  0  0  0  0  0  0  0  0  0  0
    3.0189   -0.2784    6.4320 H   0  0  0  0  0  0  0  0  0  0  0  0
    4.6634   -0.9397    6.5574 H   0  0  0  0  0  0  0  0  0  0  0  0
    3.5245    3.2388    7.6484 H   0  0  0  0  0  0  0  0  0  0  0  0
    5.2332    3.0429    7.2845 H   0  0  0  0  0  0  0  0  0  0  0  0
    4.5857    3.0320    5.0940 H   0  0  0  0  0  0  0  0  0  0  0  0
    2.3243    3.6049    5.2499 H   0  0  0  0  0  0  0  0  0  0  0  0
  1  2  1  0
  1 26  1  0
  1 27  1  0
  1 28  1  0
  2  7  2  0
  2  3  1  0
  3  4  2  0
  3 29  1  0
  4 25  1  0
  4  5  1  0
  5 11  1  0
  5  6  2  0
  6  7  1  0
  6  8  1  0
  8  9  1  0
  8 30  1  0
  8 31  1  0
  9 10  1  0
  9 32  1  0
  9 33  1  0
 10 11  1  0
 10 34  1  0
 10 35  1  0
 11 12  1  0
 12 25  1  0
 12 13  1  6
 12 14  1  0
 13 36  1  0
 13 37  1  0
 13 38  1  0
 14 15  2  0
 14 16  1  0
 16 17  1  0
 16 18  1  0
 17 39  1  0
 17 40  1  0
 17 41  1  0
 18 24  1  0
 18 19  1  0
 18 42  1  6
 19 20  1  0
 19 43  1  0
 19 44  1  0
 20 21  2  0
 20 22  2  0
 20 23  1  0
 23 24  1  0
 23 45  1  0
 23 46  1  0
 24 25  1  0
 24 47  1  6
 25 48  1  6
M  END
>  <i_m_ct_stereo_status>  (148) 
1

>  <s_m_source_file>  (148) 
/var/tmp/pbs.5076255.sched01/tmp9rjncpta/544vc0qzzn.sdf

>  <i_m_source_file_index>  (148) 
14

>  <i_lp_mmshare_version>  (148) 
48012

>  <i_f3d_flags>  (148) 
0

>  <s_epik_input>  (148) 
W0NIMl0xW0NIMl1bQ0gyXWMybmMoW0NIM10pW2NIXWMoYzJOMVtDQF0zNFtDSDNdKVtDQEhdNFtDQEBIXTVbQ0BIXShOKEMzPU8pW0NIM10pW0NIMl1TKD1PKSg9TylbQ0gyXTU=

>  <s_epik_cmdline>  (148) 
J2VwaWtfcHl0aG9uJywgJy1waHQnLCAnMi4wJywgJy1waCcsICc3LjAnLCAnLXRuJywgJzgnLCAnLW1hJywgJzIwMCcsICctaW1hZScsICc8aW5maWxlLm1hZT4nLCAnLW9tYWUnLCAnPG91dGZpbGUubWFlPic=

>  <r_lp_tautomer_probability>  (148) 
1

>  <r_epik_Ionization_Penalty>  (148) 
1.61632

>  <r_epik_Ionization_Penalty_Charging>  (148) 
0

>  <r_epik_Ionization_Penalty_Neutral>  (148) 
1.61632

>  <r_epik_State_Penalty>  (148) 
1.7157

>  <r_epik_Charging_Adjusted_Penalty>  (148) 
1.7157

>  <i_epik_Tot_Q>  (148) 
0

>  <i_epik_Tot_abs_Q>  (148) 
0

>  <s_lp_Force_Field>  (148) 
OPLS3e

>  <r_lp_Energy>  (148) 
44.2537

>  <b_lp_Chiralities_Consistent>  (148) 
1

>  <s_lp_Variant>  (148) 
42:0-2

>  <s_i_glide_gridfile>  (148) 
pfpi4k_grid

>  <i_i_glide_lignum>  (148) 
14

>  <i_i_glide_rotatable_bonds>  (148) 
0

>  <r_i_docking_score>  (148) 
-2.50934

>  <r_i_glide_ligand_efficiency>  (148) 
-0.100374

>  <r_i_glide_ligand_efficiency_sa>  (148) 
-0.293495

>  <r_i_glide_ligand_efficiency_ln>  (148) 
-0.59479

>  <r_i_glide_gscore>  (148) 
-2.50934

>  <r_i_glide_lipo>  (148) 
-0.122179

>  <r_i_glide_hbond>  (148) 
-0.0660054

>  <r_i_glide_metal>  (148) 
-0

>  <r_i_glide_rewards>  (148) 
-0.944594

>  <r_i_glide_evdw>  (148) 
-17.247

>  <r_i_glide_ecoul>  (148) 
-3.26238

>  <r_i_glide_erotb>  (148) 
0

>  <r_i_glide_esite>  (148) 
-0.0248569

>  <r_i_glide_emodel>  (148) 
-24.3701

>  <r_i_glide_energy>  (148) 
-20.5094

>  <r_i_glide_einternal>  (148) 
0

>  <r_i_glide_intrahb_reward>  (148) 
-0

>  <i_i_glide_confnum>  (148) 
1

>  <i_i_glide_posenum>  (148) 
30

>  <r_i_glide_eff_state_penalty>  (148) 
0

>  <ligand_id>  (148) 
42

>  <original_smiles>  (148) 
Cc1cc2c3c(n1)CCCN3C1(C)C(=O)N(C)C3CS(=O)(=O)CC3C21

>  <smiles>  (148) 
[H]c1c(C([H])([H])[H])nc2c3c1C1([H])C(C([H])([H])[H])(C(=O)N(C([H])([H])[H])C4([H])C1([H])C([H])([H])S(=O)(=O)C4([H])[H])N3C([H])([H])C([H])([H])C2([H])[H]

$$$$
43:0:0
     RDKit          3D

 77 82  0  0  1  0  0  0  0  0999 V2000
    2.5385   -0.8223    9.5892 C   0  0  0  0  0  0  0  0  0  0  0  0
    2.8324   -0.0122    8.5609 C   0  0  0  0  0  0  0  0  0  0  0  0
    4.0799   -0.2554    7.7927 C   0  0  0  0  0  0  0  0  0  0  0  0
    5.1716   -0.2856    8.3577 O   0  0  0  0  0  0  0  0  0  0  0  0
    4.0118   -0.5073    6.2549 C   0  0  2  0  0  0  0  0  0  0  0  0
    4.8625    0.5748    5.5283 C   0  0  0  0  0  0  0  0  0  0  0  0
    6.0758    0.5139    5.3110 O   0  0  0  0  0  0  0  0  0  0  0  0
    4.0312    1.8079    5.1139 C   0  0  0  0  0  0  0  0  0  0  0  0
    2.6159    1.5184    5.6776 C   0  0  1  0  0  0  0  0  0  0  0  0
    2.7952    2.0923    7.1588 C   0  0  0  0  0  0  0  0  0  0  0  0
    2.0917    1.2887    8.2590 C   0  0  1  0  0  0  0  0  0  0  0  0
    0.6139    1.1132    7.8824 C   0  0  0  0  0  0  0  0  0  0  0  0
   -0.0202    0.0733    8.0314 O   0  0  0  0  0  0  0  0  0  0  0  0
    0.1189    2.2513    7.3992 O   0  0  0  0  0  0  0  0  0  0  0  0
    0.0478    2.5169    5.9955 C   0  0  2  0  0  0  0  0  0  0  0  0
   -1.2131    1.8884    5.3668 C   0  0  1  0  0  0  0  0  0  0  0  0
   -2.3444    2.1859    6.1593 O   0  0  0  0  0  0  0  0  0  0  0  0
   -1.4385    2.4287    3.9388 C   0  0  1  0  0  0  0  0  0  0  0  0
   -1.8249    3.9243    3.8612 C   0  0  0  0  0  0  0  0  0  0  0  0
   -0.2083    2.0891    3.0849 C   0  0  0  0  0  0  0  0  0  0  0  0
    1.1332    2.6610    3.6178 C   0  0  1  0  0  0  0  0  0  0  0  0
    1.1557    4.0410    3.2765 O   0  0  0  0  0  0  0  0  0  0  0  0
    1.3922    2.4354    5.1469 C   0  0  2  0  0  0  0  0  0  0  0  0
    2.6343   -0.1148    5.5717 C   0  0  1  0  0  0  0  0  0  0  0  0
    2.3815   -0.9143    4.1601 C   0  0  1  0  0  0  0  0  0  0  0  0
    0.8975   -1.3602    4.2358 C   0  0  0  0  0  0  0  0  0  0  0  0
    2.5974   -0.1380    2.8058 C   0  0  0  0  0  0  0  0  0  0  0  0
    3.0521   -0.9029    1.5419 C   0  0  1  0  0  0  0  0  0  0  0  0
    4.4495   -0.8024    1.3573 O   0  0  0  0  0  0  0  0  0  0  0  0
    2.5865   -2.3550    1.5326 C   0  0  0  0  0  0  0  0  0  0  0  0
    3.0193   -3.1600    2.7820 C   0  0  0  0  0  0  0  0  0  0  0  0
    1.9369   -4.2324    3.0747 C   0  0  0  0  0  0  0  0  0  0  0  0
    4.3237   -3.9237    2.4228 C   0  0  0  0  0  0  0  0  0  0  0  0
    3.3018   -2.1831    3.9865 C   0  0  2  0  0  0  0  0  0  0  0  0
    3.5488   -2.9029    5.2980 C   0  0  0  0  0  0  0  0  0  0  0  0
    4.4363   -2.0292    6.1622 C   0  0  1  0  0  0  0  0  0  0  0  0
    5.8008   -2.2622    5.8649 O   0  0  0  0  0  0  0  0  0  0  0  0
    1.6786   -0.6350   10.2208 H   0  0  0  0  0  0  0  0  0  0  0  0
    3.1354   -1.7004    9.8091 H   0  0  0  0  0  0  0  0  0  0  0  0
    4.4797    2.7161    5.5203 H   0  0  0  0  0  0  0  0  0  0  0  0
    4.0793    1.9663    4.0459 H   0  0  0  0  0  0  0  0  0  0  0  0
    3.8384    2.2450    7.4568 H   0  0  0  0  0  0  0  0  0  0  0  0
    2.4730    3.1306    7.2606 H   0  0  0  0  0  0  0  0  0  0  0  0
    2.1226    1.8766    9.1751 H   0  0  0  0  0  0  0  0  0  0  0  0
   -0.1772    3.5834    6.0018 H   0  0  0  0  0  0  0  0  0  0  0  0
   -1.1369    0.8079    5.3443 H   0  0  0  0  0  0  0  0  0  0  0  0
   -2.4408    3.1242    6.2139 H   0  0  0  0  0  0  0  0  0  0  0  0
   -2.2821    1.8878    3.5048 H   0  0  0  0  0  0  0  0  0  0  0  0
   -1.1009    4.5767    4.3504 H   0  0  0  0  0  0  0  0  0  0  0  0
   -2.7911    4.0967    4.3310 H   0  0  0  0  0  0  0  0  0  0  0  0
   -1.9022    4.2481    2.8205 H   0  0  0  0  0  0  0  0  0  0  0  0
   -0.1759    1.0050    3.0403 H   0  0  0  0  0  0  0  0  0  0  0  0
   -0.3662    2.4164    2.0576 H   0  0  0  0  0  0  0  0  0  0  0  0
    1.9699    2.2988    3.0395 H   0  0  0  0  0  0  0  0  0  0  0  0
    0.8942    4.1431    2.3567 H   0  0  0  0  0  0  0  0  0  0  0  0
    1.8179    3.4171    5.3674 H   0  0  0  0  0  0  0  0  0  0  0  0
    1.8651   -0.5135    6.2300 H   0  0  0  0  0  0  0  0  0  0  0  0
    0.4829   -1.6566    3.2769 H   0  0  0  0  0  0  0  0  0  0  0  0
    0.2659   -0.5584    4.5963 H   0  0  0  0  0  0  0  0  0  0  0  0
    0.7538   -2.1873    4.9300 H   0  0  0  0  0  0  0  0  0  0  0  0
    1.6499    0.2724    2.4992 H   0  0  0  0  0  0  0  0  0  0  0  0
    3.2915    0.6778    2.8904 H   0  0  0  0  0  0  0  0  0  0  0  0
    2.6275   -0.4126    0.6671 H   0  0  0  0  0  0  0  0  0  0  0  0
    4.6555    0.0969    1.1445 H   0  0  0  0  0  0  0  0  0  0  0  0
    1.5006   -2.3304    1.4535 H   0  0  0  0  0  0  0  0  0  0  0  0
    2.9127   -2.8412    0.6146 H   0  0  0  0  0  0  0  0  0  0  0  0
    2.1594   -4.8112    3.9715 H   0  0  0  0  0  0  0  0  0  0  0  0
    1.8583   -4.9390    2.2452 H   0  0  0  0  0  0  0  0  0  0  0  0
    0.9458   -3.8010    3.2032 H   0  0  0  0  0  0  0  0  0  0  0  0
    4.6543   -4.5864    3.2204 H   0  0  0  0  0  0  0  0  0  0  0  0
    5.1476   -3.2407    2.2119 H   0  0  0  0  0  0  0  0  0  0  0  0
    4.1948   -4.5523    1.5403 H   0  0  0  0  0  0  0  0  0  0  0  0
    4.2777   -1.7616    3.7410 H   0  0  0  0  0  0  0  0  0  0  0  0
    2.6085   -3.0992    5.8089 H   0  0  0  0  0  0  0  0  0  0  0  0
    4.0204   -3.8763    5.1582 H   0  0  0  0  0  0  0  0  0  0  0  0
    4.3452   -2.5096    7.1388 H   0  0  0  0  0  0  0  0  0  0  0  0
    5.9640   -3.1922    5.9038 H   0  0  0  0  0  0  0  0  0  0  0  0
  1  2  2  0
  1 38  1  0
  1 39  1  0
  2 11  1  0
  2  3  1  0
  3  4  2  0
  5  3  1  1
  5 24  1  0
  5 36  1  0
  5  6  1  0
  6  7  2  0
  6  8  1  0
  9  8  1  6
  8 40  1  0
  8 41  1  0
  9 23  1  0
  9 10  1  0
  9 24  1  0
 10 11  1  0
 10 42  1  0
 10 43  1  0
 11 12  1  0
 11 44  1  1
 12 13  2  0
 12 14  1  0
 14 15  1  0
 15 23  1  0
 15 16  1  0
 15 45  1  1
 16 17  1  0
 16 18  1  0
 16 46  1  6
 17 47  1  0
 18 19  1  0
 18 20  1  0
 18 48  1  6
 19 49  1  0
 19 50  1  0
 19 51  1  0
 20 21  1  0
 20 52  1  0
 20 53  1  0
 21 22  1  0
 21 23  1  0
 21 54  1  6
 22 55  1  0
 23 56  1  1
 24 25  1  0
 24 57  1  1
 25 34  1  0
 25 26  1  1
 25 27  1  0
 26 58  1  0
 26 59  1  0
 26 60  1  0
 27 28  1  0
 27 61  1  0
 27 62  1  0
 28 29  1  0
 28 30  1  0
 28 63  1  6
 29 64  1  0
 30 31  1  0
 30 65  1  0
 30 66  1  0
 31 32  1  0
 31 33  1  0
 31 34  1  0
 32 67  1  0
 32 68  1  0
 32 69  1  0
 33 70  1  0
 33 71  1  0
 33 72  1  0
 34 35  1  0
 34 73  1  6
 35 36  1  0
 35 74  1  0
 35 75  1  0
 36 37  1  0
 36 76  1  1
 37 77  1  0
M  END
>  <i_m_ct_stereo_status>  (149) 
1

>  <s_m_source_file>  (149) 
/var/tmp/pbs.5076255.sched01/tmp9rjncpta/544vc0qzzn.sdf

>  <i_m_source_file_index>  (149) 
15

>  <i_lp_mmshare_version>  (149) 
48012

>  <i_f3d_flags>  (149) 
0

>  <s_epik_input>  (149) 
Tz1DMUMoPVtDSDJdKVtDQEBIXShbQ0gyXTIpQyg9TylPW0NASF0oW0NAQEhdKFtPSF0pW0NAQEhdKFtDSDNdKVtDSDJdW0NASF0zW09IXSlbQ0BIXTNbQ0BdMihbQ0gyXUM0PU8pW0NASF0oW0NAXTE0NSlbQ0BdNihbQ0gzXSlbQ0BASF0oW0NIMl1bQ0BIXTVbT0hdKUMoW0NIM10pKFtDSDNdKVtDSDJdW0NAQEhdKFtDSDJdNilbT0hd

>  <s_epik_cmdline>  (149) 
J2VwaWtfcHl0aG9uJywgJy1waHQnLCAnMi4wJywgJy1waCcsICc3LjAnLCAnLXRuJywgJzgnLCAnLW1hJywgJzIwMCcsICctaW1hZScsICc8aW5maWxlLm1hZT4nLCAnLW9tYWUnLCAnPG91dGZpbGUubWFlPic=

>  <r_lp_tautomer_probability>  (149) 
1

>  <r_epik_Ionization_Penalty>  (149) 
9.37369e-07

>  <r_epik_Ionization_Penalty_Charging>  (149) 
0

>  <r_epik_Ionization_Penalty_Neutral>  (149) 
9.37369e-07

>  <r_epik_State_Penalty>  (149) 
-0

>  <r_epik_Charging_Adjusted_Penalty>  (149) 
0

>  <i_epik_Tot_Q>  (149) 
0

>  <i_epik_Tot_abs_Q>  (149) 
0

>  <s_epik_Chemistry_Notes>  (149) 
This compound has an ester and may undergo hydrolysis at high or low pH.

>  <s_lp_Force_Field>  (149) 
OPLS3e

>  <r_lp_Energy>  (149) 
152.639

>  <b_lp_Chiralities_Consistent>  (149) 
1

>  <s_lp_Variant>  (149) 
43:0-1

>  <s_i_glide_gridfile>  (149) 
pfpi4k_grid

>  <i_i_glide_lignum>  (149) 
15

>  <i_i_glide_rotatable_bonds>  (149) 
4

>  <r_i_docking_score>  (149) 
-2.66741

>  <r_i_glide_ligand_efficiency>  (149) 
-0.0720923

>  <r_i_glide_ligand_efficiency_sa>  (149) 
-0.240227

>  <r_i_glide_ligand_efficiency_ln>  (149) 
-0.578499

>  <r_i_glide_gscore>  (149) 
-2.66741

>  <r_i_glide_lipo>  (149) 
-0.0107128

>  <r_i_glide_hbond>  (149) 
-0.16

>  <r_i_glide_metal>  (149) 
-0

>  <r_i_glide_rewards>  (149) 
-0.0426306

>  <r_i_glide_evdw>  (149) 
-24.8468

>  <r_i_glide_ecoul>  (149) 
-8.03649

>  <r_i_glide_erotb>  (149) 
0

>  <r_i_glide_esite>  (149) 
-0.00625367

>  <r_i_glide_emodel>  (149) 
-38.0933

>  <r_i_glide_energy>  (149) 
-32.8833

>  <r_i_glide_einternal>  (149) 
1.28219

>  <r_i_glide_intrahb_reward>  (149) 
-0

>  <i_i_glide_confnum>  (149) 
1

>  <i_i_glide_posenum>  (149) 
26

>  <r_i_glide_eff_state_penalty>  (149) 
0

>  <ligand_id>  (149) 
43

>  <original_smiles>  (149) 
C=C1C(=O)C23C(=O)CC4(CC1C(=O)OC1C(O)C(C)CC(O)C14)C2C1(C)CC(O)CC(C)(C)C1CC3O

>  <smiles>  (149) 
[H]OC1([H])C([H])([H])C(C([H])([H])[H])(C([H])([H])[H])C2([H])C([H])([H])C([H])(O[H])C34C(=O)C(=C([H])[H])C5([H])C(=O)OC6([H])C([H])(O[H])C([H])(C([H])([H])[H])C([H])([H])C([H])(O[H])C6([H])C(C([H])([H])C3=O)(C5([H])[H])C4([H])C2(C([H])([H])[H])C1([H])[H]

$$$$
43:0:1
     RDKit          3D

 77 82  0  0  1  0  0  0  0  0999 V2000
    2.5358   -0.7711    9.6226 C   0  0  0  0  0  0  0  0  0  0  0  0
    2.8272    0.0324    8.5890 C   0  0  0  0  0  0  0  0  0  0  0  0
    4.0737   -0.2134    7.8202 C   0  0  0  0  0  0  0  0  0  0  0  0
    5.1676   -0.2311    8.3825 O   0  0  0  0  0  0  0  0  0  0  0  0
    4.0037   -0.4757    6.2846 C   0  0  2  0  0  0  0  0  0  0  0  0
    4.8526    0.5981    5.5497 C   0  0  0  0  0  0  0  0  0  0  0  0
    6.0604    0.5130    5.3101 O   0  0  0  0  0  0  0  0  0  0  0  0
    4.0243    1.8336    5.1309 C   0  0  0  0  0  0  0  0  0  0  0  0
    2.6073    1.5454    5.6944 C   0  0  1  0  0  0  0  0  0  0  0  0
    2.7854    2.1282    7.1718 C   0  0  0  0  0  0  0  0  0  0  0  0
    2.0843    1.3298    8.2775 C   0  0  1  0  0  0  0  0  0  0  0  0
    0.6074    1.1489    7.9015 C   0  0  0  0  0  0  0  0  0  0  0  0
   -0.0244    0.1081    8.0558 O   0  0  0  0  0  0  0  0  0  0  0  0
    0.1094    2.2824    7.4115 O   0  0  0  0  0  0  0  0  0  0  0  0
    0.0372    2.5393    6.0063 C   0  0  2  0  0  0  0  0  0  0  0  0
   -1.2223    1.9047    5.3827 C   0  0  1  0  0  0  0  0  0  0  0  0
   -2.3533    2.2043    6.1751 O   0  0  0  0  0  0  0  0  0  0  0  0
   -1.4487    2.4346    3.9510 C   0  0  1  0  0  0  0  0  0  0  0  0
   -1.8381    3.9286    3.8635 C   0  0  0  0  0  0  0  0  0  0  0  0
   -0.2179    2.0928    3.0986 C   0  0  0  0  0  0  0  0  0  0  0  0
    1.1226    2.6714    3.6276 C   0  0  1  0  0  0  0  0  0  0  0  0
    1.1455    4.0486    3.2764 O   0  0  0  0  0  0  0  0  0  0  0  0
    1.3819    2.4559    5.1581 C   0  0  2  0  0  0  0  0  0  0  0  0
    2.6271   -0.0887    5.5988 C   0  0  1  0  0  0  0  0  0  0  0  0
    2.3763   -0.8974    4.1922 C   0  0  1  0  0  0  0  0  0  0  0  0
    0.8942   -1.3463    4.2716 C   0  0  0  0  0  0  0  0  0  0  0  0
    2.5913   -0.1298    2.8339 C   0  0  0  0  0  0  0  0  0  0  0  0
    3.0473   -0.9033    1.5758 C   0  0  1  0  0  0  0  0  0  0  0  0
    4.4452   -0.8016    1.3934 O   0  0  0  0  0  0  0  0  0  0  0  0
    2.5836   -2.3562    1.5755 C   0  0  0  0  0  0  0  0  0  0  0  0
    3.0184   -3.1519    2.8291 C   0  0  0  0  0  0  0  0  0  0  0  0
    1.9387   -4.2254    3.1295 C   0  0  0  0  0  0  0  0  0  0  0  0
    4.3245   -3.9153    2.4753 C   0  0  0  0  0  0  0  0  0  0  0  0
    3.2977   -2.1661    4.0264 C   0  0  2  0  0  0  0  0  0  0  0  0
    3.5440   -2.8771    5.3434 C   0  0  0  0  0  0  0  0  0  0  0  0
    4.4296   -1.9987    6.2003 C   0  0  1  0  0  0  0  0  0  0  0  0
    5.7902   -2.2425    5.8954 O   0  0  0  0  0  0  0  0  0  0  0  0
    1.6752   -0.5823   10.2529 H   0  0  0  0  0  0  0  0  0  0  0  0
    3.1344   -1.6470    9.8471 H   0  0  0  0  0  0  0  0  0  0  0  0
    4.4692    2.7470    5.5310 H   0  0  0  0  0  0  0  0  0  0  0  0
    4.0712    1.9860    4.0623 H   0  0  0  0  0  0  0  0  0  0  0  0
    3.8283    2.2849    7.4692 H   0  0  0  0  0  0  0  0  0  0  0  0
    2.4610    3.1667    7.2675 H   0  0  0  0  0  0  0  0  0  0  0  0
    2.1133    1.9237    9.1896 H   0  0  0  0  0  0  0  0  0  0  0  0
   -0.1889    3.6058    6.0056 H   0  0  0  0  0  0  0  0  0  0  0  0
   -1.1437    0.8244    5.3668 H   0  0  0  0  0  0  0  0  0  0  0  0
   -2.4293    3.1428    6.2562 H   0  0  0  0  0  0  0  0  0  0  0  0
   -2.2921    1.8894    3.5217 H   0  0  0  0  0  0  0  0  0  0  0  0
   -1.1150    4.5855    4.3482 H   0  0  0  0  0  0  0  0  0  0  0  0
   -2.8049    4.1003    4.3325 H   0  0  0  0  0  0  0  0  0  0  0  0
   -1.9164    4.2448    2.8203 H   0  0  0  0  0  0  0  0  0  0  0  0
   -0.1833    1.0081    3.0605 H   0  0  0  0  0  0  0  0  0  0  0  0
   -0.3774    2.4139    2.0692 H   0  0  0  0  0  0  0  0  0  0  0  0
    1.9589    2.3051    3.0510 H   0  0  0  0  0  0  0  0  0  0  0  0
    0.8888    4.1445    2.3547 H   0  0  0  0  0  0  0  0  0  0  0  0
    1.8063    3.4399    5.3718 H   0  0  0  0  0  0  0  0  0  0  0  0
    1.8593   -0.4857    6.2599 H   0  0  0  0  0  0  0  0  0  0  0  0
    0.4804   -1.6502    3.3145 H   0  0  0  0  0  0  0  0  0  0  0  0
    0.2609   -0.5436    4.6271 H   0  0  0  0  0  0  0  0  0  0  0  0
    0.7532   -2.1691    4.9709 H   0  0  0  0  0  0  0  0  0  0  0  0
    1.6429    0.2750    2.5242 H   0  0  0  0  0  0  0  0  0  0  0  0
    3.2843    0.6891    2.9118 H   0  0  0  0  0  0  0  0  0  0  0  0
    2.6231   -0.4198    0.6975 H   0  0  0  0  0  0  0  0  0  0  0  0
    4.6457    0.0887    1.1398 H   0  0  0  0  0  0  0  0  0  0  0  0
    1.4974   -2.3365    1.4955 H   0  0  0  0  0  0  0  0  0  0  0  0
    2.9124   -2.8467    0.6612 H   0  0  0  0  0  0  0  0  0  0  0  0
    2.1647   -4.7976    4.0302 H   0  0  0  0  0  0  0  0  0  0  0  0
    1.8627   -4.9376    2.3042 H   0  0  0  0  0  0  0  0  0  0  0  0
    0.9465   -3.7954    3.2558 H   0  0  0  0  0  0  0  0  0  0  0  0
    4.6568   -4.5717    3.2777 H   0  0  0  0  0  0  0  0  0  0  0  0
    5.1477   -3.2328    2.2583 H   0  0  0  0  0  0  0  0  0  0  0  0
    4.1967   -4.5507    1.5975 H   0  0  0  0  0  0  0  0  0  0  0  0
    4.2710   -1.7441    3.7743 H   0  0  0  0  0  0  0  0  0  0  0  0
    2.6061   -3.0717    5.8593 H   0  0  0  0  0  0  0  0  0  0  0  0
    4.0237   -3.8489    5.2125 H   0  0  0  0  0  0  0  0  0  0  0  0
    4.3469   -2.4691    7.1808 H   0  0  0  0  0  0  0  0  0  0  0  0
    5.9596   -1.9299    5.0166 H   0  0  0  0  0  0  0  0  0  0  0  0
  1  2  2  0
  1 38  1  0
  1 39  1  0
  2 11  1  0
  2  3  1  0
  3  4  2  0
  5  3  1  1
  5 24  1  0
  5 36  1  0
  5  6  1  0
  6  7  2  0
  6  8  1  0
  9  8  1  6
  8 40  1  0
  8 41  1  0
  9 23  1  0
  9 10  1  0
  9 24  1  0
 10 11  1  0
 10 42  1  0
 10 43  1  0
 11 12  1  0
 11 44  1  1
 12 13  2  0
 12 14  1  0
 14 15  1  0
 15 23  1  0
 15 16  1  0
 15 45  1  1
 16 17  1  0
 16 18  1  0
 16 46  1  6
 17 47  1  0
 18 19  1  0
 18 20  1  0
 18 48  1  6
 19 49  1  0
 19 50  1  0
 19 51  1  0
 20 21  1  0
 20 52  1  0
 20 53  1  0
 21 22  1  0
 21 23  1  0
 21 54  1  6
 22 55  1  0
 23 56  1  1
 24 25  1  0
 24 57  1  1
 25 34  1  0
 25 26  1  1
 25 27  1  0
 26 58  1  0
 26 59  1  0
 26 60  1  0
 27 28  1  0
 27 61  1  0
 27 62  1  0
 28 29  1  0
 28 30  1  0
 28 63  1  6
 29 64  1  0
 30 31  1  0
 30 65  1  0
 30 66  1  0
 31 32  1  0
 31 33  1  0
 31 34  1  0
 32 67  1  0
 32 68  1  0
 32 69  1  0
 33 70  1  0
 33 71  1  0
 33 72  1  0
 34 35  1  0
 34 73  1  6
 35 36  1  0
 35 74  1  0
 35 75  1  0
 36 37  1  0
 36 76  1  1
 37 77  1  0
M  END
>  <i_m_ct_stereo_status>  (150) 
1

>  <s_m_source_file>  (150) 
/var/tmp/pbs.5076255.sched01/tmp9rjncpta/544vc0qzzn.sdf

>  <i_m_source_file_index>  (150) 
15

>  <i_lp_mmshare_version>  (150) 
48012

>  <i_f3d_flags>  (150) 
0

>  <s_epik_input>  (150) 
Tz1DMUMoPVtDSDJdKVtDQEBIXShbQ0gyXTIpQyg9TylPW0NASF0oW0NAQEhdKFtPSF0pW0NAQEhdKFtDSDNdKVtDSDJdW0NASF0zW09IXSlbQ0BIXTNbQ0BdMihbQ0gyXUM0PU8pW0NASF0oW0NAXTE0NSlbQ0BdNihbQ0gzXSlbQ0BASF0oW0NIMl1bQ0BIXTVbT0hdKUMoW0NIM10pKFtDSDNdKVtDSDJdW0NAQEhdKFtDSDJdNilbT0hd

>  <s_epik_cmdline>  (150) 
J2VwaWtfcHl0aG9uJywgJy1waHQnLCAnMi4wJywgJy1waCcsICc3LjAnLCAnLXRuJywgJzgnLCAnLW1hJywgJzIwMCcsICctaW1hZScsICc8aW5maWxlLm1hZT4nLCAnLW9tYWUnLCAnPG91dGZpbGUubWFlPic=

>  <r_lp_tautomer_probability>  (150) 
1

>  <r_epik_Ionization_Penalty>  (150) 
9.37369e-07

>  <r_epik_Ionization_Penalty_Charging>  (150) 
0

>  <r_epik_Ionization_Penalty_Neutral>  (150) 
9.37369e-07

>  <r_epik_State_Penalty>  (150) 
-0

>  <r_epik_Charging_Adjusted_Penalty>  (150) 
0

>  <i_epik_Tot_Q>  (150) 
0

>  <i_epik_Tot_abs_Q>  (150) 
0

>  <s_epik_Chemistry_Notes>  (150) 
This compound has an ester and may undergo hydrolysis at high or low pH.

>  <s_lp_Force_Field>  (150) 
OPLS3e

>  <r_lp_Energy>  (150) 
152.639

>  <b_lp_Chiralities_Consistent>  (150) 
1

>  <s_lp_Variant>  (150) 
43:0-1

>  <s_i_glide_gridfile>  (150) 
pfpi4k_grid

>  <i_i_glide_lignum>  (150) 
15

>  <i_i_glide_rotatable_bonds>  (150) 
4

>  <r_i_docking_score>  (150) 
-2.63249

>  <r_i_glide_ligand_efficiency>  (150) 
-0.0711485

>  <r_i_glide_ligand_efficiency_sa>  (150) 
-0.237083

>  <r_i_glide_ligand_efficiency_ln>  (150) 
-0.570926

>  <r_i_glide_gscore>  (150) 
-2.63249

>  <r_i_glide_lipo>  (150) 
-0.0102277

>  <r_i_glide_hbond>  (150) 
-0.16

>  <r_i_glide_metal>  (150) 
-0

>  <r_i_glide_rewards>  (150) 
-0.0413129

>  <r_i_glide_evdw>  (150) 
-24.8846

>  <r_i_glide_ecoul>  (150) 
-7.8049

>  <r_i_glide_erotb>  (150) 
0

>  <r_i_glide_esite>  (150) 
-0.0059886

>  <r_i_glide_emodel>  (150) 
-37.9304

>  <r_i_glide_energy>  (150) 
-32.6895

>  <r_i_glide_einternal>  (150) 
1.01458

>  <r_i_glide_intrahb_reward>  (150) 
-0

>  <i_i_glide_confnum>  (150) 
1

>  <i_i_glide_posenum>  (150) 
9

>  <r_i_glide_eff_state_penalty>  (150) 
0

>  <ligand_id>  (150) 
43

>  <original_smiles>  (150) 
C=C1C(=O)C23C(=O)CC4(CC1C(=O)OC1C(O)C(C)CC(O)C14)C2C1(C)CC(O)CC(C)(C)C1CC3O

>  <smiles>  (150) 
[H]OC1([H])C([H])([H])C(C([H])([H])[H])(C([H])([H])[H])C2([H])C([H])([H])C([H])(O[H])C34C(=O)C(=C([H])[H])C5([H])C(=O)OC6([H])C([H])(O[H])C([H])(C([H])([H])[H])C([H])([H])C([H])(O[H])C6([H])C(C([H])([H])C3=O)(C5([H])[H])C4([H])C2(C([H])([H])[H])C1([H])[H]

$$$$
43:0:2
     RDKit          3D

 77 82  0  0  1  0  0  0  0  0999 V2000
    2.5085   -0.8642    9.5801 C   0  0  0  0  0  0  0  0  0  0  0  0
    2.8148   -0.0504    8.5575 C   0  0  0  0  0  0  0  0  0  0  0  0
    4.0672   -0.2959    7.7993 C   0  0  0  0  0  0  0  0  0  0  0  0
    5.1550   -0.3269    8.3703 O   0  0  0  0  0  0  0  0  0  0  0  0
    4.0091   -0.5405    6.2604 C   0  0  2  0  0  0  0  0  0  0  0  0
    4.8728    0.5348    5.5441 C   0  0  0  0  0  0  0  0  0  0  0  0
    6.0796    0.4372    5.3072 O   0  0  0  0  0  0  0  0  0  0  0  0
    4.0572    1.7819    5.1327 C   0  0  0  0  0  0  0  0  0  0  0  0
    2.6337    1.4960    5.6788 C   0  0  1  0  0  0  0  0  0  0  0  0
    2.8003    2.0615    7.1644 C   0  0  0  0  0  0  0  0  0  0  0  0
    2.0829    1.2551    8.2536 C   0  0  1  0  0  0  0  0  0  0  0  0
    0.6091    1.0884    7.8616 C   0  0  0  0  0  0  0  0  0  0  0  0
   -0.0305    0.0502    7.9984 O   0  0  0  0  0  0  0  0  0  0  0  0
    0.1231    2.2311    7.3800 O   0  0  0  0  0  0  0  0  0  0  0  0
    0.0683    2.5054    5.9770 C   0  0  2  0  0  0  0  0  0  0  0  0
   -1.1895    1.8853    5.3339 C   0  0  1  0  0  0  0  0  0  0  0  0
   -2.3243    2.1858    6.1186 O   0  0  0  0  0  0  0  0  0  0  0  0
   -1.4013    2.4327    3.9069 C   0  0  1  0  0  0  0  0  0  0  0  0
   -1.7844    3.9302    3.8334 C   0  0  0  0  0  0  0  0  0  0  0  0
   -0.1637    2.0910    3.0626 C   0  0  0  0  0  0  0  0  0  0  0  0
    1.1758    2.6547    3.6100 C   0  0  1  0  0  0  0  0  0  0  0  0
    1.2076    4.0365    3.2739 O   0  0  0  0  0  0  0  0  0  0  0  0
    1.4202    2.4223    5.1401 C   0  0  2  0  0  0  0  0  0  0  0  0
    2.6426   -0.1370    5.5654 C   0  0  1  0  0  0  0  0  0  0  0  0
    2.4006   -0.9266    4.1472 C   0  0  1  0  0  0  0  0  0  0  0  0
    0.9148   -1.3670    4.2071 C   0  0  0  0  0  0  0  0  0  0  0  0
    2.6359   -0.1457    2.7980 C   0  0  0  0  0  0  0  0  0  0  0  0
    3.0998   -0.9064    1.5359 C   0  0  1  0  0  0  0  0  0  0  0  0
    4.5035   -0.8256    1.3774 O   0  0  0  0  0  0  0  0  0  0  0  0
    2.6179   -2.3540    1.5146 C   0  0  0  0  0  0  0  0  0  0  0  0
    3.0397   -3.1690    2.7630 C   0  0  0  0  0  0  0  0  0  0  0  0
    1.9532   -4.2411    3.0415 C   0  0  0  0  0  0  0  0  0  0  0  0
    4.3456   -3.9382    2.4132 C   0  0  0  0  0  0  0  0  0  0  0  0
    3.3140   -2.2014    3.9765 C   0  0  2  0  0  0  0  0  0  0  0  0
    3.5413   -2.9284    5.2874 C   0  0  0  0  0  0  0  0  0  0  0  0
    4.4267   -2.0662    6.1622 C   0  0  1  0  0  0  0  0  0  0  0  0
    5.7891   -2.3154    5.8697 O   0  0  0  0  0  0  0  0  0  0  0  0
    1.6425   -0.6772   10.2039 H   0  0  0  0  0  0  0  0  0  0  0  0
    3.0991   -1.7471    9.8002 H   0  0  0  0  0  0  0  0  0  0  0  0
    4.5035    2.6877    5.5478 H   0  0  0  0  0  0  0  0  0  0  0  0
    4.1156    1.9460    4.0662 H   0  0  0  0  0  0  0  0  0  0  0  0
    3.8415    2.2074    7.4735 H   0  0  0  0  0  0  0  0  0  0  0  0
    2.4817    3.1012    7.2687 H   0  0  0  0  0  0  0  0  0  0  0  0
    2.1071    1.8381    9.1727 H   0  0  0  0  0  0  0  0  0  0  0  0
   -0.1513    3.5730    5.9857 H   0  0  0  0  0  0  0  0  0  0  0  0
   -1.1167    0.8051    5.3087 H   0  0  0  0  0  0  0  0  0  0  0  0
   -2.4209    3.1241    6.1666 H   0  0  0  0  0  0  0  0  0  0  0  0
   -2.2423    1.8957    3.4632 H   0  0  0  0  0  0  0  0  0  0  0  0
   -1.0599    4.5765    4.3308 H   0  0  0  0  0  0  0  0  0  0  0  0
   -2.7533    4.1076    4.2966 H   0  0  0  0  0  0  0  0  0  0  0  0
   -1.8488    4.2585    2.7931 H   0  0  0  0  0  0  0  0  0  0  0  0
   -0.1337    1.0069    3.0129 H   0  0  0  0  0  0  0  0  0  0  0  0
   -0.3113    2.4234    2.0356 H   0  0  0  0  0  0  0  0  0  0  0  0
    2.0149    2.2905    3.0366 H   0  0  0  0  0  0  0  0  0  0  0  0
    0.9487    4.1435    2.3559 H   0  0  0  0  0  0  0  0  0  0  0  0
    1.8496    3.4009    5.3687 H   0  0  0  0  0  0  0  0  0  0  0  0
    1.8655   -0.5358    6.2144 H   0  0  0  0  0  0  0  0  0  0  0  0
    0.5088   -1.6573    3.2433 H   0  0  0  0  0  0  0  0  0  0  0  0
    0.2837   -0.5636    4.5654 H   0  0  0  0  0  0  0  0  0  0  0  0
    0.7609   -2.1964    4.8966 H   0  0  0  0  0  0  0  0  0  0  0  0
    1.6911    0.2675    2.4852 H   0  0  0  0  0  0  0  0  0  0  0  0
    3.3318    0.6687    2.8901 H   0  0  0  0  0  0  0  0  0  0  0  0
    2.6894   -0.4025    0.6610 H   0  0  0  0  0  0  0  0  0  0  0  0
    4.9146   -1.2453    2.1179 H   0  0  0  0  0  0  0  0  0  0  0  0
    1.5336   -2.3292    1.4225 H   0  0  0  0  0  0  0  0  0  0  0  0
    2.9520   -2.8387    0.5991 H   0  0  0  0  0  0  0  0  0  0  0  0
    2.1670   -4.8251    3.9377 H   0  0  0  0  0  0  0  0  0  0  0  0
    1.8804   -4.9433    2.2075 H   0  0  0  0  0  0  0  0  0  0  0  0
    0.9625   -3.8058    3.1638 H   0  0  0  0  0  0  0  0  0  0  0  0
    4.6623   -4.6072    3.2115 H   0  0  0  0  0  0  0  0  0  0  0  0
    5.1793   -3.2655    2.2122 H   0  0  0  0  0  0  0  0  0  0  0  0
    4.2195   -4.5641    1.5281 H   0  0  0  0  0  0  0  0  0  0  0  0
    4.2938   -1.7838    3.7451 H   0  0  0  0  0  0  0  0  0  0  0  0
    2.5975   -3.1224    5.7931 H   0  0  0  0  0  0  0  0  0  0  0  0
    4.0168   -3.9014    5.1505 H   0  0  0  0  0  0  0  0  0  0  0  0
    4.3299   -2.5473    7.1362 H   0  0  0  0  0  0  0  0  0  0  0  0
    5.9903   -1.9401    5.0237 H   0  0  0  0  0  0  0  0  0  0  0  0
  1  2  2  0
  1 38  1  0
  1 39  1  0
  2 11  1  0
  2  3  1  0
  3  4  2  0
  5  3  1  1
  5 24  1  0
  5 36  1  0
  5  6  1  0
  6  7  2  0
  6  8  1  0
  9  8  1  6
  8 40  1  0
  8 41  1  0
  9 23  1  0
  9 10  1  0
  9 24  1  0
 10 11  1  0
 10 42  1  0
 10 43  1  0
 11 12  1  0
 11 44  1  1
 12 13  2  0
 12 14  1  0
 14 15  1  0
 15 23  1  0
 15 16  1  0
 15 45  1  1
 16 17  1  0
 16 18  1  0
 16 46  1  6
 17 47  1  0
 18 19  1  0
 18 20  1  0
 18 48  1  6
 19 49  1  0
 19 50  1  0
 19 51  1  0
 20 21  1  0
 20 52  1  0
 20 53  1  0
 21 22  1  0
 21 23  1  0
 21 54  1  6
 22 55  1  0
 23 56  1  1
 24 25  1  0
 24 57  1  1
 25 34  1  0
 25 26  1  1
 25 27  1  0
 26 58  1  0
 26 59  1  0
 26 60  1  0
 27 28  1  0
 27 61  1  0
 27 62  1  0
 28 29  1  0
 28 30  1  0
 28 63  1  6
 29 64  1  0
 30 31  1  0
 30 65  1  0
 30 66  1  0
 31 32  1  0
 31 33  1  0
 31 34  1  0
 32 67  1  0
 32 68  1  0
 32 69  1  0
 33 70  1  0
 33 71  1  0
 33 72  1  0
 34 35  1  0
 34 73  1  6
 35 36  1  0
 35 74  1  0
 35 75  1  0
 36 37  1  0
 36 76  1  1
 37 77  1  0
M  END
>  <i_m_ct_stereo_status>  (151) 
1

>  <s_m_source_file>  (151) 
/var/tmp/pbs.5076255.sched01/tmp9rjncpta/544vc0qzzn.sdf

>  <i_m_source_file_index>  (151) 
15

>  <i_lp_mmshare_version>  (151) 
48012

>  <i_f3d_flags>  (151) 
0

>  <s_epik_input>  (151) 
Tz1DMUMoPVtDSDJdKVtDQEBIXShbQ0gyXTIpQyg9TylPW0NASF0oW0NAQEhdKFtPSF0pW0NAQEhdKFtDSDNdKVtDSDJdW0NASF0zW09IXSlbQ0BIXTNbQ0BdMihbQ0gyXUM0PU8pW0NASF0oW0NAXTE0NSlbQ0BdNihbQ0gzXSlbQ0BASF0oW0NIMl1bQ0BIXTVbT0hdKUMoW0NIM10pKFtDSDNdKVtDSDJdW0NAQEhdKFtDSDJdNilbT0hd

>  <s_epik_cmdline>  (151) 
J2VwaWtfcHl0aG9uJywgJy1waHQnLCAnMi4wJywgJy1waCcsICc3LjAnLCAnLXRuJywgJzgnLCAnLW1hJywgJzIwMCcsICctaW1hZScsICc8aW5maWxlLm1hZT4nLCAnLW9tYWUnLCAnPG91dGZpbGUubWFlPic=

>  <r_lp_tautomer_probability>  (151) 
1

>  <r_epik_Ionization_Penalty>  (151) 
9.37369e-07

>  <r_epik_Ionization_Penalty_Charging>  (151) 
0

>  <r_epik_Ionization_Penalty_Neutral>  (151) 
9.37369e-07

>  <r_epik_State_Penalty>  (151) 
-0

>  <r_epik_Charging_Adjusted_Penalty>  (151) 
0

>  <i_epik_Tot_Q>  (151) 
0

>  <i_epik_Tot_abs_Q>  (151) 
0

>  <s_epik_Chemistry_Notes>  (151) 
This compound has an ester and may undergo hydrolysis at high or low pH.

>  <s_lp_Force_Field>  (151) 
OPLS3e

>  <r_lp_Energy>  (151) 
152.639

>  <b_lp_Chiralities_Consistent>  (151) 
1

>  <s_lp_Variant>  (151) 
43:0-1

>  <s_i_glide_gridfile>  (151) 
pfpi4k_grid

>  <i_i_glide_lignum>  (151) 
15

>  <i_i_glide_rotatable_bonds>  (151) 
4

>  <r_i_docking_score>  (151) 
-2.57667

>  <r_i_glide_ligand_efficiency>  (151) 
-0.0696398

>  <r_i_glide_ligand_efficiency_sa>  (151) 
-0.232055

>  <r_i_glide_ligand_efficiency_ln>  (151) 
-0.55882

>  <r_i_glide_gscore>  (151) 
-2.57667

>  <r_i_glide_lipo>  (151) 
-0.0113375

>  <r_i_glide_hbond>  (151) 
-0.16

>  <r_i_glide_metal>  (151) 
-0

>  <r_i_glide_rewards>  (151) 
-0.0418937

>  <r_i_glide_evdw>  (151) 
-25.0858

>  <r_i_glide_ecoul>  (151) 
-7.35077

>  <r_i_glide_erotb>  (151) 
0

>  <r_i_glide_esite>  (151) 
-0.00653632

>  <r_i_glide_emodel>  (151) 
-37.8852

>  <r_i_glide_energy>  (151) 
-32.4365

>  <r_i_glide_einternal>  (151) 
0.499281

>  <r_i_glide_intrahb_reward>  (151) 
-0

>  <i_i_glide_confnum>  (151) 
1

>  <i_i_glide_posenum>  (151) 
17

>  <r_i_glide_eff_state_penalty>  (151) 
0

>  <ligand_id>  (151) 
43

>  <original_smiles>  (151) 
C=C1C(=O)C23C(=O)CC4(CC1C(=O)OC1C(O)C(C)CC(O)C14)C2C1(C)CC(O)CC(C)(C)C1CC3O

>  <smiles>  (151) 
[H]OC1([H])C([H])([H])C(C([H])([H])[H])(C([H])([H])[H])C2([H])C([H])([H])C([H])(O[H])C34C(=O)C(=C([H])[H])C5([H])C(=O)OC6([H])C([H])(O[H])C([H])(C([H])([H])[H])C([H])([H])C([H])(O[H])C6([H])C(C([H])([H])C3=O)(C5([H])[H])C4([H])C2(C([H])([H])[H])C1([H])[H]

$$$$
44:0:0
     RDKit          3D

 53 57  0  0  1  0  0  0  0  0999 V2000
    4.8941   -4.1772   -3.9609 C   0  0  0  0  0  0  0  0  0  0  0  0
    4.7268   -3.9726   -2.4752 C   0  0  0  0  0  0  0  0  0  0  0  0
    5.5052   -3.3330   -1.6045 C   0  0  0  0  0  0  0  0  0  0  0  0
    5.1525   -3.1277   -0.1222 C   0  0  2  0  0  0  0  0  0  0  0  0
    6.0319   -3.9293    0.8375 C   0  0  1  0  0  0  0  0  0  0  0  0
    5.8677   -3.4835    2.3123 C   0  0  0  0  0  0  0  0  0  0  0  0
    4.4877   -3.0010    2.8130 C   0  0  2  0  0  0  0  0  0  0  0  0
    3.7168   -3.9377    3.7460 C   0  0  0  0  0  0  0  0  0  0  0  0
    2.9592   -5.0376    3.0102 C   0  0  2  0  0  0  0  0  0  0  0  0
    3.8498   -6.1275    2.5382 C   0  0  0  0  0  0  0  0  0  0  0  0
    3.5170   -6.1531    1.1276 N   0  0  0  0  0  0  0  0  0  0  0  0
    4.3624   -5.6513    0.1862 C   0  0  2  0  0  0  0  0  0  0  0  0
    5.8151   -5.4164    0.5754 C   0  0  0  0  0  0  0  0  0  0  0  0
    3.1221   -4.7760    0.6362 C   0  0  1  0  0  0  0  0  0  0  0  0
    2.3052   -4.6323    1.8098 O   0  0  0  0  0  0  0  0  0  0  0  0
    3.6557   -3.2841    0.3925 C   0  0  2  0  0  0  0  0  0  0  0  0
    2.6679   -2.5791   -0.5720 C   0  0  0  0  0  0  0  0  0  0  0  0
    3.6455   -2.3831    1.6926 C   0  0  1  0  0  0  0  0  0  0  0  0
    2.2716   -1.7613    2.1909 C   0  0  0  0  0  0  0  0  0  0  0  0
    1.9129   -0.4006    1.6657 N   0  0  0  0  0  0  0  0  0  0  0  0
    3.0103    0.6101    1.6504 C   0  0  0  0  0  0  0  0  0  0  0  0
    0.7541    0.1734    2.4039 C   0  0  0  0  0  0  0  0  0  0  0  0
    4.0953   -3.6424   -4.4813 H   0  0  0  0  0  0  0  0  0  0  0  0
    4.7585   -5.2357   -4.1809 H   0  0  0  0  0  0  0  0  0  0  0  0
    5.8795   -3.8527   -4.2885 H   0  0  0  0  0  0  0  0  0  0  0  0
    3.8414   -4.3956   -2.0588 H   0  0  0  0  0  0  0  0  0  0  0  0
    6.4418   -2.9010   -1.9357 H   0  0  0  0  0  0  0  0  0  0  0  0
    5.4634   -2.0959   -0.0485 H   0  0  0  0  0  0  0  0  0  0  0  0
    7.0665   -3.7361    0.5841 H   0  0  0  0  0  0  0  0  0  0  0  0
    6.2085   -4.2912    2.9478 H   0  0  0  0  0  0  0  0  0  0  0  0
    6.5414   -2.6370    2.4444 H   0  0  0  0  0  0  0  0  0  0  0  0
    4.7478   -2.1713    3.4687 H   0  0  0  0  0  0  0  0  0  0  0  0
    4.3820   -4.3501    4.5073 H   0  0  0  0  0  0  0  0  0  0  0  0
    2.9954   -3.3615    4.3217 H   0  0  0  0  0  0  0  0  0  0  0  0
    2.2138   -5.4457    3.6843 H   0  0  0  0  0  0  0  0  0  0  0  0
    4.8850   -5.9938    2.8190 H   0  0  0  0  0  0  0  0  0  0  0  0
    3.5412   -7.0778    2.9612 H   0  0  0  0  0  0  0  0  0  0  0  0
    4.2819   -6.1227   -0.7764 H   0  0  0  0  0  0  0  0  0  0  0  0
    6.4154   -5.6761   -0.2929 H   0  0  0  0  0  0  0  0  0  0  0  0
    6.2137   -6.0983    1.3310 H   0  0  0  0  0  0  0  0  0  0  0  0
    1.6969   -2.6701   -0.0997 H   0  0  0  0  0  0  0  0  0  0  0  0
    2.4771   -3.0152   -1.5577 H   0  0  0  0  0  0  0  0  0  0  0  0
    2.9831   -1.5372   -0.7301 H   0  0  0  0  0  0  0  0  0  0  0  0
    4.2937   -1.5331    1.4969 H   0  0  0  0  0  0  0  0  0  0  0  0
    1.4219   -2.4087    1.9801 H   0  0  0  0  0  0  0  0  0  0  0  0
    2.2518   -1.6638    3.2721 H   0  0  0  0  0  0  0  0  0  0  0  0
    3.4611    0.7057    2.6431 H   0  0  0  0  0  0  0  0  0  0  0  0
    2.6079    1.5852    1.3636 H   0  0  0  0  0  0  0  0  0  0  0  0
    3.7912    0.4096    0.9127 H   0  0  0  0  0  0  0  0  0  0  0  0
    0.9922    0.3360    3.4570 H   0  0  0  0  0  0  0  0  0  0  0  0
   -0.1220   -0.4686    2.3688 H   0  0  0  0  0  0  0  0  0  0  0  0
    0.4679    1.1416    1.9878 H   0  0  0  0  0  0  0  0  0  0  0  0
    1.5905   -0.5320    0.7013 H   0  0  0  0  0  0  0  0  0  0  0  0
  1  2  1  0
  1 23  1  0
  1 24  1  0
  1 25  1  0
  2  3  2  3
  2 26  1  0
  3  4  1  0
  3 27  1  0
  4 16  1  0
  4  5  1  0
  4 28  1  1
  5 13  1  0
  5  6  1  0
  5 29  1  6
  6  7  1  0
  6 30  1  0
  6 31  1  0
  7 18  1  0
  7  8  1  0
  7 32  1  1
  8  9  1  0
  8 33  1  0
  8 34  1  0
  9 15  1  0
  9 10  1  0
  9 35  1  1
 10 11  1  0
 10 36  1  0
 10 37  1  0
 11 14  1  0
 11 12  1  0
 12 13  1  0
 12 14  1  0
 12 38  1  6
 13 39  1  0
 13 40  1  0
 14 15  1  1
 14 16  1  0
 16 17  1  6
 16 18  1  0
 17 41  1  0
 17 42  1  0
 17 43  1  0
 18 19  1  0
 18 44  1  6
 19 20  1  0
 19 45  1  0
 19 46  1  0
 20 21  1  0
 20 22  1  0
 20 53  1  0
 21 47  1  0
 21 48  1  0
 21 49  1  0
 22 50  1  0
 22 51  1  0
 22 52  1  0
M  CHG  1  20   1
M  END
>  <i_m_ct_stereo_status>  (152) 
1

>  <s_m_source_file>  (152) 
/var/tmp/pbs.5076255.sched01/tmp9rjncpta/544vc0qzzn.sdf

>  <i_m_source_file_index>  (152) 
16

>  <i_lp_mmshare_version>  (152) 
48012

>  <i_f3d_flags>  (152) 
2

>  <s_epik_input>  (152) 
W0NAQF0xMjNONFtDQEBIXTFbQ0gyXVtDQEhdNVtDQEBIXSgvW0NIXT1bQ0hdXFtDSDNdKVtDQF0zKFtDSDNdKVtDQEBIXShbQ0gyXU4oW0NIM10pW0NIM10pW0NASF0oW0NIMl01KVtDSDJdW0NAQEhdKE8yKVtDSDJdNA==

>  <s_epik_cmdline>  (152) 
J2VwaWtfcHl0aG9uJywgJy1waHQnLCAnMi4wJywgJy1waCcsICc3LjAnLCAnLXRuJywgJzgnLCAnLW1hJywgJzIwMCcsICctaW1hZScsICc8aW5maWxlLm1hZT4nLCAnLW9tYWUnLCAnPG91dGZpbGUubWFlPic=

>  <r_epik_Ionization_Penalty>  (152) 
0.0169307

>  <r_epik_Ionization_Penalty_Charging>  (152) 
0.00146761

>  <r_epik_Ionization_Penalty_Neutral>  (152) 
0.0154631

>  <r_epik_State_Penalty>  (152) 
0.012153

>  <r_epik_Charging_Adjusted_Penalty>  (152) 
0.0136206

>  <i_epik_Tot_Q>  (152) 
1

>  <i_epik_Tot_abs_Q>  (152) 
1

>  <s_lp_Force_Field>  (152) 
OPLS3e

>  <r_lp_Energy>  (152) 
240.732

>  <b_lp_Chiralities_Consistent>  (152) 
0

>  <s_lp_Variant>  (152) 
44:0-1

>  <s_i_glide_gridfile>  (152) 
pfpi4k_grid

>  <i_i_glide_lignum>  (152) 
16

>  <i_i_glide_rotatable_bonds>  (152) 
3

>  <r_i_docking_score>  (152) 
-3.38577

>  <r_i_glide_ligand_efficiency>  (152) 
-0.153898

>  <r_i_glide_ligand_efficiency_sa>  (152) 
-0.43123

>  <r_i_glide_ligand_efficiency_ln>  (152) 
-0.827605

>  <r_i_glide_gscore>  (152) 
-3.38577

>  <r_i_glide_lipo>  (152) 
-0.561711

>  <r_i_glide_hbond>  (152) 
-0.2

>  <r_i_glide_metal>  (152) 
-0

>  <r_i_glide_rewards>  (152) 
-1.34003

>  <r_i_glide_evdw>  (152) 
-12.1895

>  <r_i_glide_ecoul>  (152) 
-6.46658

>  <r_i_glide_erotb>  (152) 
0.400211

>  <r_i_glide_esite>  (152) 
-0.104771

>  <r_i_glide_emodel>  (152) 
-18.6223

>  <r_i_glide_energy>  (152) 
-18.6561

>  <r_i_glide_einternal>  (152) 
5.73593

>  <r_i_glide_intrahb_reward>  (152) 
-0

>  <i_i_glide_confnum>  (152) 
3

>  <i_i_glide_posenum>  (152) 
1

>  <r_i_glide_eff_state_penalty>  (152) 
0

>  <ligand_id>  (152) 
44

>  <original_smiles>  (152) 
CC=CC1C2CC3CC4CN5C(C2)C5(O4)C1(C)C3CN(C)C

>  <smiles>  (152) 
[H]C(=C([H])C1([H])C2([H])C([H])([H])C3([H])N4C([H])([H])C5([H])OC43C1(C([H])([H])[H])C([H])(C([H])([H])[N+]([H])(C([H])([H])[H])C([H])([H])[H])C([H])(C5([H])[H])C2([H])[H])C([H])([H])[H]

$$$$
44:0:1
     RDKit          3D

 53 57  0  0  1  0  0  0  0  0999 V2000
    4.0812   -3.0473   -4.1665 C   0  0  0  0  0  0  0  0  0  0  0  0
    4.2487   -3.0531   -2.6830 C   0  0  0  0  0  0  0  0  0  0  0  0
    4.9749   -2.1940   -1.9454 C   0  0  0  0  0  0  0  0  0  0  0  0
    5.1335   -2.1905   -0.4220 C   0  0  2  0  0  0  0  0  0  0  0  0
    6.4425   -2.7983    0.0579 C   0  0  1  0  0  0  0  0  0  0  0  0
    6.6729   -2.5918    1.5686 C   0  0  0  0  0  0  0  0  0  0  0  0
    5.4565   -2.5235    2.5394 C   0  0  2  0  0  0  0  0  0  0  0  0
    5.2372   -3.7378    3.4601 C   0  0  0  0  0  0  0  0  0  0  0  0
    4.5663   -4.9422    2.7975 C   0  0  2  0  0  0  0  0  0  0  0  0
    5.4887   -5.7086    1.9139 C   0  0  0  0  0  0  0  0  0  0  0  0
    4.7384   -5.6759    0.6849 N   0  0  0  0  0  0  0  0  0  0  0  0
    5.0940   -4.8886   -0.3688 C   0  0  2  0  0  0  0  0  0  0  0  0
    6.4729   -4.2535   -0.3679 C   0  0  0  0  0  0  0  0  0  0  0  0
    3.9126   -4.4127    0.5690 C   0  0  1  0  0  0  0  0  0  0  0  0
    3.4890   -4.6144    1.9181 O   0  0  0  0  0  0  0  0  0  0  0  0
    3.9847   -2.8124    0.4789 C   0  0  2  0  0  0  0  0  0  0  0  0
    2.6389   -2.3544   -0.0973 C   0  0  0  0  0  0  0  0  0  0  0  0
    4.1722   -2.0513    1.8521 C   0  0  1  0  0  0  0  0  0  0  0  0
    2.9338   -1.9021    2.8156 C   0  0  0  0  0  0  0  0  0  0  0  0
    1.8728   -0.9349    2.3855 N   0  0  0  0  0  0  0  0  0  0  0  0
    2.3574    0.4444    2.0971 C   0  0  0  0  0  0  0  0  0  0  0  0
    0.7345   -0.9121    3.3275 C   0  0  0  0  0  0  0  0  0  0  0  0
    3.0157   -2.9790   -4.3829 H   0  0  0  0  0  0  0  0  0  0  0  0
    4.4470   -3.9991   -4.5566 H   0  0  0  0  0  0  0  0  0  0  0  0
    4.6098   -2.2108   -4.6250 H   0  0  0  0  0  0  0  0  0  0  0  0
    3.6970   -3.8595   -2.2219 H   0  0  0  0  0  0  0  0  0  0  0  0
    5.5187   -1.3998   -2.4471 H   0  0  0  0  0  0  0  0  0  0  0  0
    5.2129   -1.1153   -0.2346 H   0  0  0  0  0  0  0  0  0  0  0  0
    7.2858   -2.3160   -0.4392 H   0  0  0  0  0  0  0  0  0  0  0  0
    7.3668   -3.3738    1.8833 H   0  0  0  0  0  0  0  0  0  0  0  0
    7.2065   -1.6445    1.6620 H   0  0  0  0  0  0  0  0  0  0  0  0
    5.7329   -1.7361    3.2447 H   0  0  0  0  0  0  0  0  0  0  0  0
    6.1681   -4.0668    3.9235 H   0  0  0  0  0  0  0  0  0  0  0  0
    4.6165   -3.4246    4.2979 H   0  0  0  0  0  0  0  0  0  0  0  0
    4.1853   -5.6033    3.5804 H   0  0  0  0  0  0  0  0  0  0  0  0
    6.5073   -5.3231    1.8943 H   0  0  0  0  0  0  0  0  0  0  0  0
    5.5512   -6.7465    2.2305 H   0  0  0  0  0  0  0  0  0  0  0  0
    4.8449   -5.3406   -1.3246 H   0  0  0  0  0  0  0  0  0  0  0  0
    6.7008   -4.1727   -1.4218 H   0  0  0  0  0  0  0  0  0  0  0  0
    7.2637   -4.8691    0.0532 H   0  0  0  0  0  0  0  0  0  0  0  0
    1.8163   -2.6732    0.5392 H   0  0  0  0  0  0  0  0  0  0  0  0
    2.3757   -2.7435   -1.0754 H   0  0  0  0  0  0  0  0  0  0  0  0
    2.6429   -1.2659   -0.1887 H   0  0  0  0  0  0  0  0  0  0  0  0
    4.4463   -1.0182    1.6475 H   0  0  0  0  0  0  0  0  0  0  0  0
    2.4355   -2.8592    2.9853 H   0  0  0  0  0  0  0  0  0  0  0  0
    3.2812   -1.5887    3.7992 H   0  0  0  0  0  0  0  0  0  0  0  0
    2.8393    0.8681    2.9735 H   0  0  0  0  0  0  0  0  0  0  0  0
    1.5141    1.0752    1.8088 H   0  0  0  0  0  0  0  0  0  0  0  0
    3.0496    0.4769    1.2549 H   0  0  0  0  0  0  0  0  0  0  0  0
    1.0518   -0.5417    4.3020 H   0  0  0  0  0  0  0  0  0  0  0  0
    0.3019   -1.9101    3.4628 H   0  0  0  0  0  0  0  0  0  0  0  0
   -0.0538   -0.2574    2.9561 H   0  0  0  0  0  0  0  0  0  0  0  0
    1.5127   -1.2831    1.4945 H   0  0  0  0  0  0  0  0  0  0  0  0
  1  2  1  0
  1 23  1  0
  1 24  1  0
  1 25  1  0
  2  3  2  3
  2 26  1  0
  3  4  1  0
  3 27  1  0
  4 16  1  0
  4  5  1  0
  4 28  1  1
  5 13  1  0
  5  6  1  0
  5 29  1  6
  6  7  1  0
  6 30  1  0
  6 31  1  0
  7 18  1  0
  7  8  1  0
  7 32  1  1
  8  9  1  0
  8 33  1  0
  8 34  1  0
  9 15  1  0
  9 10  1  0
  9 35  1  1
 10 11  1  0
 10 36  1  0
 10 37  1  0
 11 14  1  0
 11 12  1  0
 12 13  1  0
 12 14  1  0
 12 38  1  6
 13 39  1  0
 13 40  1  0
 14 15  1  1
 14 16  1  0
 16 17  1  6
 16 18  1  0
 17 41  1  0
 17 42  1  0
 17 43  1  0
 18 19  1  0
 18 44  1  6
 19 20  1  0
 19 45  1  0
 19 46  1  0
 20 21  1  0
 20 22  1  0
 20 53  1  0
 21 47  1  0
 21 48  1  0
 21 49  1  0
 22 50  1  0
 22 51  1  0
 22 52  1  0
M  CHG  1  20   1
M  END
>  <i_m_ct_stereo_status>  (153) 
1

>  <s_m_source_file>  (153) 
/var/tmp/pbs.5076255.sched01/tmp9rjncpta/544vc0qzzn.sdf

>  <i_m_source_file_index>  (153) 
16

>  <i_lp_mmshare_version>  (153) 
48012

>  <i_f3d_flags>  (153) 
2

>  <s_epik_input>  (153) 
W0NAQF0xMjNONFtDQEBIXTFbQ0gyXVtDQEhdNVtDQEBIXSgvW0NIXT1bQ0hdXFtDSDNdKVtDQF0zKFtDSDNdKVtDQEBIXShbQ0gyXU4oW0NIM10pW0NIM10pW0NASF0oW0NIMl01KVtDSDJdW0NAQEhdKE8yKVtDSDJdNA==

>  <s_epik_cmdline>  (153) 
J2VwaWtfcHl0aG9uJywgJy1waHQnLCAnMi4wJywgJy1waCcsICc3LjAnLCAnLXRuJywgJzgnLCAnLW1hJywgJzIwMCcsICctaW1hZScsICc8aW5maWxlLm1hZT4nLCAnLW9tYWUnLCAnPG91dGZpbGUubWFlPic=

>  <r_epik_Ionization_Penalty>  (153) 
0.0169307

>  <r_epik_Ionization_Penalty_Charging>  (153) 
0.00146761

>  <r_epik_Ionization_Penalty_Neutral>  (153) 
0.0154631

>  <r_epik_State_Penalty>  (153) 
0.012153

>  <r_epik_Charging_Adjusted_Penalty>  (153) 
0.0136206

>  <i_epik_Tot_Q>  (153) 
1

>  <i_epik_Tot_abs_Q>  (153) 
1

>  <s_lp_Force_Field>  (153) 
OPLS3e

>  <r_lp_Energy>  (153) 
240.732

>  <b_lp_Chiralities_Consistent>  (153) 
0

>  <s_lp_Variant>  (153) 
44:0-1

>  <s_i_glide_gridfile>  (153) 
pfpi4k_grid

>  <i_i_glide_lignum>  (153) 
16

>  <i_i_glide_rotatable_bonds>  (153) 
3

>  <r_i_docking_score>  (153) 
-2.49477

>  <r_i_glide_ligand_efficiency>  (153) 
-0.113398

>  <r_i_glide_ligand_efficiency_sa>  (153) 
-0.317747

>  <r_i_glide_ligand_efficiency_ln>  (153) 
-0.609812

>  <r_i_glide_gscore>  (153) 
-2.49477

>  <r_i_glide_lipo>  (153) 
-0.256271

>  <r_i_glide_hbond>  (153) 
-0.00557585

>  <r_i_glide_metal>  (153) 
-0

>  <r_i_glide_rewards>  (153) 
-1.36002

>  <r_i_glide_evdw>  (153) 
-11.7307

>  <r_i_glide_ecoul>  (153) 
-4.38458

>  <r_i_glide_erotb>  (153) 
0.400211

>  <r_i_glide_esite>  (153) 
-0.0288875

>  <r_i_glide_emodel>  (153) 
-16.6466

>  <r_i_glide_energy>  (153) 
-16.1152

>  <r_i_glide_einternal>  (153) 
3.08325

>  <r_i_glide_intrahb_reward>  (153) 
-0

>  <i_i_glide_confnum>  (153) 
4

>  <i_i_glide_posenum>  (153) 
4

>  <r_i_glide_eff_state_penalty>  (153) 
0

>  <ligand_id>  (153) 
44

>  <original_smiles>  (153) 
CC=CC1C2CC3CC4CN5C(C2)C5(O4)C1(C)C3CN(C)C

>  <smiles>  (153) 
[H]C(=C([H])C1([H])C2([H])C([H])([H])C3([H])N4C([H])([H])C5([H])OC43C1(C([H])([H])[H])C([H])(C([H])([H])[N+]([H])(C([H])([H])[H])C([H])([H])[H])C([H])(C5([H])[H])C2([H])[H])C([H])([H])[H]

$$$$
45:0:0
     RDKit          3D

 52 57  0  0  1  0  0  0  0  0999 V2000
    1.2500   -6.5571    0.9376 C   0  0  0  0  0  0  0  0  0  0  0  0
    1.2774   -7.6313    2.0127 C   0  0  0  0  0  0  0  0  0  0  0  0
    0.1010   -8.2398    2.2512 C   0  0  0  0  0  0  0  0  0  0  0  0
   -0.1174   -9.4708    3.0898 C   0  0  0  0  0  0  0  0  0  0  0  0
    1.1732  -10.0564    3.6798 C   0  0  1  0  0  0  0  0  0  0  0  0
    1.0313  -11.5799    3.8415 C   0  0  0  0  0  0  0  0  0  0  0  0
    2.4514   -9.6481    2.8728 C   0  0  2  0  0  0  0  0  0  0  0  0
    3.6829  -10.1955    3.4992 N   0  0  1  0  0  0  0  0  0  0  0  0
    4.8771  -10.0424    2.6269 C   0  0  0  0  0  0  0  0  0  0  0  0
    5.1226   -8.5742    2.2531 C   0  0  0  0  0  0  0  0  0  0  0  0
    3.8367   -7.9168    1.7185 C   0  0  0  0  0  0  0  0  0  0  0  0
    2.6123   -8.0983    2.6684 C   0  0  1  0  0  0  0  0  0  0  0  0
    2.9064   -7.4507    4.0609 C   0  0  0  0  0  0  0  0  0  0  0  0
    3.3909   -8.2813    5.1162 C   0  0  0  0  0  0  0  0  0  0  0  0
    3.4056   -7.7932    6.4406 C   0  0  0  0  0  0  0  0  0  0  0  0
    3.0068   -6.5614    6.8005 N   0  0  0  0  0  0  0  0  0  0  0  0
    2.7220   -5.7318    5.7599 C   0  0  0  0  0  0  0  0  0  0  0  0
    2.3524   -4.4073    5.9283 N   0  0  0  0  0  0  0  0  0  0  0  0
    2.3209   -3.8022    4.6796 C   0  0  0  0  0  0  0  0  0  0  0  0
    2.0750   -2.4571    4.3308 C   0  0  0  0  0  0  0  0  0  0  0  0
    2.2059   -2.0381    2.9929 C   0  0  0  0  0  0  0  0  0  0  0  0
    2.6164   -2.9623    2.0174 C   0  0  0  0  0  0  0  0  0  0  0  0
    2.8447   -4.3026    2.3761 C   0  0  0  0  0  0  0  0  0  0  0  0
    2.6395   -4.7792    3.6918 C   0  0  0  0  0  0  0  0  0  0  0  0
    2.7314   -6.0630    4.3712 C   0  0  0  0  0  0  0  0  0  0  0  0
    3.8856   -9.7055    4.8856 C   0  0  0  0  0  0  0  0  0  0  0  0
    2.2256   -3.9472    6.8154 H   0  0  0  0  0  0  0  0  0  0  0  0
    2.1775   -6.4441    0.3840 H   0  0  0  0  0  0  0  0  0  0  0  0
    0.9613   -5.6082    1.3740 H   0  0  0  0  0  0  0  0  0  0  0  0
    0.4900   -6.7974    0.1922 H   0  0  0  0  0  0  0  0  0  0  0  0
   -0.7870   -7.8974    1.7403 H   0  0  0  0  0  0  0  0  0  0  0  0
   -0.8332   -9.2451    3.8827 H   0  0  0  0  0  0  0  0  0  0  0  0
   -0.6056  -10.2010    2.4410 H   0  0  0  0  0  0  0  0  0  0  0  0
    1.2285   -9.6442    4.6869 H   0  0  0  0  0  0  0  0  0  0  0  0
    0.9485  -12.0865    2.8793 H   0  0  0  0  0  0  0  0  0  0  0  0
    0.1415  -11.8273    4.4206 H   0  0  0  0  0  0  0  0  0  0  0  0
    1.8720  -12.0187    4.3772 H   0  0  0  0  0  0  0  0  0  0  0  0
    2.3619  -10.1166    1.8891 H   0  0  0  0  0  0  0  0  0  0  0  0
    5.7605  -10.4608    3.1111 H   0  0  0  0  0  0  0  0  0  0  0  0
    4.7352  -10.6269    1.7184 H   0  0  0  0  0  0  0  0  0  0  0  0
    5.4939   -8.0233    3.1209 H   0  0  0  0  0  0  0  0  0  0  0  0
    5.9138   -8.5121    1.5020 H   0  0  0  0  0  0  0  0  0  0  0  0
    4.0662   -6.8691    1.5545 H   0  0  0  0  0  0  0  0  0  0  0  0
    3.6188   -8.3441    0.7384 H   0  0  0  0  0  0  0  0  0  0  0  0
    3.7257   -8.4296    7.2567 H   0  0  0  0  0  0  0  0  0  0  0  0
    1.8136   -1.7444    5.0968 H   0  0  0  0  0  0  0  0  0  0  0  0
    2.0216   -1.0075    2.7214 H   0  0  0  0  0  0  0  0  0  0  0  0
    2.7574   -2.6510    0.9910 H   0  0  0  0  0  0  0  0  0  0  0  0
    3.1950   -4.9717    1.6173 H   0  0  0  0  0  0  0  0  0  0  0  0
    3.3484  -10.3633    5.5705 H   0  0  0  0  0  0  0  0  0  0  0  0
    4.9394   -9.7676    5.1673 H   0  0  0  0  0  0  0  0  0  0  0  0
    3.5467  -11.1934    3.5758 H   0  0  0  0  0  0  0  0  0  0  0  0
  1  2  1  0
  1 28  1  0
  1 29  1  0
  1 30  1  0
  2 12  1  0
  2  3  2  0
  3  4  1  0
  3 31  1  0
  4  5  1  0
  4 32  1  0
  4 33  1  0
  5  6  1  0
  5  7  1  0
  5 34  1  1
  6 35  1  0
  6 36  1  0
  6 37  1  0
  7 12  1  0
  7  8  1  0
  7 38  1  6
  8 26  1  0
  8  9  1  0
  8 52  1  1
  9 10  1  0
  9 39  1  0
  9 40  1  0
 10 11  1  0
 10 41  1  0
 10 42  1  0
 12 11  1  6
 11 43  1  0
 11 44  1  0
 12 13  1  0
 13 25  1  0
 13 14  2  0
 14 15  1  0
 14 26  1  0
 15 16  2  0
 15 45  1  0
 16 17  1  0
 17 25  2  0
 17 18  1  0
 18 27  1  0
 18 19  1  0
 19 24  2  0
 19 20  1  0
 20 21  2  0
 20 46  1  0
 21 22  1  0
 21 47  1  0
 22 23  2  0
 22 48  1  0
 23 24  1  0
 23 49  1  0
 24 25  1  0
 26 50  1  0
 26 51  1  0
M  CHG  1   8   1
M  END
>  <i_m_ct_stereo_status>  (154) 
1

>  <s_m_source_file>  (154) 
/var/tmp/pbs.5076255.sched01/tmp9rjncpta/544vc0qzzn.sdf

>  <i_m_source_file_index>  (154) 
18

>  <i_lp_mmshare_version>  (154) 
48012

>  <i_f3d_flags>  (154) 
0

>  <s_epik_input>  (154) 
W0NIM11DMT1bQ0hdW0NIMl1bQ0BASF0oW0NIM10pW0NAQEhdKFtDQF0xMjMpTihbQ0gyXVtDSDJdW0NIMl0yKVtDSDJdYzRjM2M1YyhuW2NIXTQpW25IXWM2YzVbY0hdW2NIXVtjSF1bY0hdNg==

>  <s_epik_cmdline>  (154) 
J2VwaWtfcHl0aG9uJywgJy1waHQnLCAnMi4wJywgJy1waCcsICc3LjAnLCAnLXRuJywgJzgnLCAnLW1hJywgJzIwMCcsICctaW1hZScsICc8aW5maWxlLm1hZT4nLCAnLW9tYWUnLCAnPG91dGZpbGUubWFlPic=

>  <r_epik_Ionization_Penalty>  (154) 
0.0128039

>  <r_epik_Ionization_Penalty_Charging>  (154) 
0.0101789

>  <r_epik_Ionization_Penalty_Neutral>  (154) 
0.00262496

>  <r_epik_State_Penalty>  (154) 
0.00777038

>  <r_epik_Charging_Adjusted_Penalty>  (154) 
0.0179493

>  <i_epik_Tot_Q>  (154) 
1

>  <i_epik_Tot_abs_Q>  (154) 
1

>  <s_lp_Force_Field>  (154) 
OPLS3e

>  <r_lp_Energy>  (154) 
70.6303

>  <b_lp_Chiralities_Consistent>  (154) 
1

>  <s_lp_Variant>  (154) 
45:0-1

>  <s_i_glide_gridfile>  (154) 
pfpi4k_grid

>  <i_i_glide_lignum>  (154) 
18

>  <i_i_glide_rotatable_bonds>  (154) 
0

>  <r_i_docking_score>  (154) 
-2.67559

>  <r_i_glide_ligand_efficiency>  (154) 
-0.102907

>  <r_i_glide_ligand_efficiency_sa>  (154) 
-0.304862

>  <r_i_glide_ligand_efficiency_ln>  (154) 
-0.628353

>  <r_i_glide_gscore>  (154) 
-2.67559

>  <r_i_glide_lipo>  (154) 
-0.142968

>  <r_i_glide_hbond>  (154) 
0

>  <r_i_glide_metal>  (154) 
-0

>  <r_i_glide_rewards>  (154) 
-1.06041

>  <r_i_glide_evdw>  (154) 
-22.3735

>  <r_i_glide_ecoul>  (154) 
-2.24351

>  <r_i_glide_erotb>  (154) 
0

>  <r_i_glide_esite>  (154) 
-0.0170037

>  <r_i_glide_emodel>  (154) 
-30.1954

>  <r_i_glide_energy>  (154) 
-24.617

>  <r_i_glide_einternal>  (154) 
0

>  <r_i_glide_intrahb_reward>  (154) 
-0

>  <i_i_glide_confnum>  (154) 
2

>  <i_i_glide_posenum>  (154) 
8

>  <r_i_glide_eff_state_penalty>  (154) 
0

>  <ligand_id>  (154) 
45

>  <original_smiles>  (154) 
CC1=CCC(C)C2N3CCCC12c1c(cnc2[nH]c4ccccc4c12)C3

>  <smiles>  (154) 
[H]C1=C(C([H])([H])[H])C23c4c(c([H])nc5c4c4c([H])c([H])c([H])c([H])c4n5[H])C([H])([H])[N+]([H])(C([H])([H])C([H])([H])C2([H])[H])C3([H])C([H])(C([H])([H])[H])C1([H])[H]

$$$$
45:0:1
     RDKit          3D

 52 57  0  0  1  0  0  0  0  0999 V2000
    2.8876   -5.9931    0.7051 C   0  0  0  0  0  0  0  0  0  0  0  0
    2.7959   -5.4904    2.1363 C   0  0  0  0  0  0  0  0  0  0  0  0
    1.5553   -5.4438    2.6536 C   0  0  0  0  0  0  0  0  0  0  0  0
    1.1822   -5.1670    4.0850 C   0  0  0  0  0  0  0  0  0  0  0  0
    2.3915   -4.9950    5.0129 C   0  0  1  0  0  0  0  0  0  0  0  0
    2.0296   -5.4804    6.4302 C   0  0  0  0  0  0  0  0  0  0  0  0
    3.6876   -5.6680    4.4462 C   0  0  2  0  0  0  0  0  0  0  0  0
    4.8472   -5.4498    5.3497 N   0  0  1  0  0  0  0  0  0  0  0  0
    6.0156   -6.2907    4.9793 C   0  0  0  0  0  0  0  0  0  0  0  0
    6.4596   -6.0335    3.5325 C   0  0  0  0  0  0  0  0  0  0  0  0
    5.2667   -6.1143    2.5614 C   0  0  0  0  0  0  0  0  0  0  0  0
    4.0661   -5.2139    2.9902 C   0  0  1  0  0  0  0  0  0  0  0  0
    4.4984   -3.7115    3.0444 C   0  0  0  0  0  0  0  0  0  0  0  0
    4.8868   -3.1564    4.3003 C   0  0  0  0  0  0  0  0  0  0  0  0
    5.0086   -1.7574    4.4383 C   0  0  0  0  0  0  0  0  0  0  0  0
    4.8236   -0.8745    3.4415 N   0  0  0  0  0  0  0  0  0  0  0  0
    4.6331   -1.4356    2.2172 C   0  0  0  0  0  0  0  0  0  0  0  0
    4.4702   -0.6934    1.0589 N   0  0  0  0  0  0  0  0  0  0  0  0
    4.4899   -1.5597   -0.0230 C   0  0  0  0  0  0  0  0  0  0  0  0
    4.4341   -1.2849   -1.4061 C   0  0  0  0  0  0  0  0  0  0  0  0
    4.5790   -2.3257   -2.3411 C   0  0  0  0  0  0  0  0  0  0  0  0
    4.8127   -3.6342   -1.8854 C   0  0  0  0  0  0  0  0  0  0  0  0
    4.8484   -3.8992   -0.5052 C   0  0  0  0  0  0  0  0  0  0  0  0
    4.6254   -2.8940    0.4629 C   0  0  0  0  0  0  0  0  0  0  0  0
    4.5467   -2.8298    1.9154 C   0  0  0  0  0  0  0  0  0  0  0  0
    5.1682   -4.0117    5.5311 C   0  0  0  0  0  0  0  0  0  0  0  0
    4.4223    0.3119    1.0108 H   0  0  0  0  0  0  0  0  0  0  0  0
    3.7939   -6.5498    0.4755 H   0  0  0  0  0  0  0  0  0  0  0  0
    2.7384   -5.1857   -0.0084 H   0  0  0  0  0  0  0  0  0  0  0  0
    2.0697   -6.6875    0.5138 H   0  0  0  0  0  0  0  0  0  0  0  0
    0.7138   -5.6794    2.0234 H   0  0  0  0  0  0  0  0  0  0  0  0
    0.5432   -4.2810    4.1211 H   0  0  0  0  0  0  0  0  0  0  0  0
    0.5634   -6.0073    4.4065 H   0  0  0  0  0  0  0  0  0  0  0  0
    2.5397   -3.9171    5.0797 H   0  0  0  0  0  0  0  0  0  0  0  0
    1.8447   -6.5557    6.4531 H   0  0  0  0  0  0  0  0  0  0  0  0
    1.1226   -4.9862    6.7863 H   0  0  0  0  0  0  0  0  0  0  0  0
    2.8140   -5.2578    7.1521 H   0  0  0  0  0  0  0  0  0  0  0  0
    3.4951   -6.7440    4.4290 H   0  0  0  0  0  0  0  0  0  0  0  0
    6.8461   -6.1108    5.6643 H   0  0  0  0  0  0  0  0  0  0  0  0
    5.7493   -7.3423    5.0955 H   0  0  0  0  0  0  0  0  0  0  0  0
    6.9321   -5.0613    3.4507 H   0  0  0  0  0  0  0  0  0  0  0  0
    7.2276   -6.7577    3.2482 H   0  0  0  0  0  0  0  0  0  0  0  0
    5.6440   -5.8403    1.5806 H   0  0  0  0  0  0  0  0  0  0  0  0
    4.9508   -7.1582    2.4906 H   0  0  0  0  0  0  0  0  0  0  0  0
    5.2686   -1.3255    5.3978 H   0  0  0  0  0  0  0  0  0  0  0  0
    4.2932   -0.2692   -1.7410 H   0  0  0  0  0  0  0  0  0  0  0  0
    4.5271   -2.1181   -3.4009 H   0  0  0  0  0  0  0  0  0  0  0  0
    4.9525   -4.4479   -2.5836 H   0  0  0  0  0  0  0  0  0  0  0  0
    5.0586   -4.9019   -0.1960 H   0  0  0  0  0  0  0  0  0  0  0  0
    4.5627   -3.6243    6.3519 H   0  0  0  0  0  0  0  0  0  0  0  0
    6.2115   -3.8824    5.8295 H   0  0  0  0  0  0  0  0  0  0  0  0
    4.5707   -5.7839    6.2620 H   0  0  0  0  0  0  0  0  0  0  0  0
  1  2  1  0
  1 28  1  0
  1 29  1  0
  1 30  1  0
  2 12  1  0
  2  3  2  0
  3  4  1  0
  3 31  1  0
  4  5  1  0
  4 32  1  0
  4 33  1  0
  5  6  1  0
  5  7  1  0
  5 34  1  1
  6 35  1  0
  6 36  1  0
  6 37  1  0
  7 12  1  0
  7  8  1  0
  7 38  1  6
  8 26  1  0
  8  9  1  0
  8 52  1  1
  9 10  1  0
  9 39  1  0
  9 40  1  0
 10 11  1  0
 10 41  1  0
 10 42  1  0
 12 11  1  6
 11 43  1  0
 11 44  1  0
 12 13  1  0
 13 25  1  0
 13 14  2  0
 14 15  1  0
 14 26  1  0
 15 16  2  0
 15 45  1  0
 16 17  1  0
 17 25  2  0
 17 18  1  0
 18 27  1  0
 18 19  1  0
 19 24  2  0
 19 20  1  0
 20 21  2  0
 20 46  1  0
 21 22  1  0
 21 47  1  0
 22 23  2  0
 22 48  1  0
 23 24  1  0
 23 49  1  0
 24 25  1  0
 26 50  1  0
 26 51  1  0
M  CHG  1   8   1
M  END
>  <i_m_ct_stereo_status>  (155) 
1

>  <s_m_source_file>  (155) 
/var/tmp/pbs.5076255.sched01/tmp9rjncpta/544vc0qzzn.sdf

>  <i_m_source_file_index>  (155) 
18

>  <i_lp_mmshare_version>  (155) 
48012

>  <i_f3d_flags>  (155) 
0

>  <s_epik_input>  (155) 
W0NIM11DMT1bQ0hdW0NIMl1bQ0BASF0oW0NIM10pW0NAQEhdKFtDQF0xMjMpTihbQ0gyXVtDSDJdW0NIMl0yKVtDSDJdYzRjM2M1YyhuW2NIXTQpW25IXWM2YzVbY0hdW2NIXVtjSF1bY0hdNg==

>  <s_epik_cmdline>  (155) 
J2VwaWtfcHl0aG9uJywgJy1waHQnLCAnMi4wJywgJy1waCcsICc3LjAnLCAnLXRuJywgJzgnLCAnLW1hJywgJzIwMCcsICctaW1hZScsICc8aW5maWxlLm1hZT4nLCAnLW9tYWUnLCAnPG91dGZpbGUubWFlPic=

>  <r_epik_Ionization_Penalty>  (155) 
0.0128039

>  <r_epik_Ionization_Penalty_Charging>  (155) 
0.0101789

>  <r_epik_Ionization_Penalty_Neutral>  (155) 
0.00262496

>  <r_epik_State_Penalty>  (155) 
0.00777038

>  <r_epik_Charging_Adjusted_Penalty>  (155) 
0.0179493

>  <i_epik_Tot_Q>  (155) 
1

>  <i_epik_Tot_abs_Q>  (155) 
1

>  <s_lp_Force_Field>  (155) 
OPLS3e

>  <r_lp_Energy>  (155) 
70.6303

>  <b_lp_Chiralities_Consistent>  (155) 
1

>  <s_lp_Variant>  (155) 
45:0-1

>  <s_i_glide_gridfile>  (155) 
pfpi4k_grid

>  <i_i_glide_lignum>  (155) 
18

>  <i_i_glide_rotatable_bonds>  (155) 
0

>  <r_i_docking_score>  (155) 
-2.53335

>  <r_i_glide_ligand_efficiency>  (155) 
-0.0974365

>  <r_i_glide_ligand_efficiency_sa>  (155) 
-0.288655

>  <r_i_glide_ligand_efficiency_ln>  (155) 
-0.594949

>  <r_i_glide_gscore>  (155) 
-2.53335

>  <r_i_glide_lipo>  (155) 
-0.252271

>  <r_i_glide_hbond>  (155) 
0

>  <r_i_glide_metal>  (155) 
-0

>  <r_i_glide_rewards>  (155) 
-1.128

>  <r_i_glide_evdw>  (155) 
-21.9497

>  <r_i_glide_ecoul>  (155) 
-0.370648

>  <r_i_glide_erotb>  (155) 
0

>  <r_i_glide_esite>  (155) 
0

>  <r_i_glide_emodel>  (155) 
-27.5833

>  <r_i_glide_energy>  (155) 
-22.3204

>  <r_i_glide_einternal>  (155) 
0

>  <r_i_glide_intrahb_reward>  (155) 
-0

>  <i_i_glide_confnum>  (155) 
1

>  <i_i_glide_posenum>  (155) 
3

>  <r_i_glide_eff_state_penalty>  (155) 
0

>  <ligand_id>  (155) 
45

>  <original_smiles>  (155) 
CC1=CCC(C)C2N3CCCC12c1c(cnc2[nH]c4ccccc4c12)C3

>  <smiles>  (155) 
[H]C1=C(C([H])([H])[H])C23c4c(c([H])nc5c4c4c([H])c([H])c([H])c([H])c4n5[H])C([H])([H])[N+]([H])(C([H])([H])C([H])([H])C2([H])[H])C3([H])C([H])(C([H])([H])[H])C1([H])[H]

$$$$
45:0:2
     RDKit          3D

 52 57  0  0  1  0  0  0  0  0999 V2000
    2.3416    3.2669    3.3116 C   0  0  0  0  0  0  0  0  0  0  0  0
    3.0105    3.8101    4.5678 C   0  0  0  0  0  0  0  0  0  0  0  0
    3.8651    2.9675    5.1779 C   0  0  0  0  0  0  0  0  0  0  0  0
    4.8249    3.3059    6.2906 C   0  0  0  0  0  0  0  0  0  0  0  0
    4.7979    4.7840    6.7055 C   0  0  1  0  0  0  0  0  0  0  0  0
    6.1887    5.2132    7.2170 C   0  0  0  0  0  0  0  0  0  0  0  0
    4.2437    5.7198    5.5785 C   0  0  2  0  0  0  0  0  0  0  0  0
    4.1848    7.1350    6.0316 N   0  0  1  0  0  0  0  0  0  0  0  0
    3.9219    8.0752    4.9106 C   0  0  0  0  0  0  0  0  0  0  0  0
    2.6112    7.7360    4.1889 C   0  0  0  0  0  0  0  0  0  0  0  0
    2.5585    6.2449    3.8077 C   0  0  0  0  0  0  0  0  0  0  0  0
    2.8399    5.2947    5.0117 C   0  0  1  0  0  0  0  0  0  0  0  0
    1.7781    5.5120    6.1382 C   0  0  0  0  0  0  0  0  0  0  0  0
    2.0913    6.3882    7.2210 C   0  0  0  0  0  0  0  0  0  0  0  0
    1.2800    6.3920    8.3753 C   0  0  0  0  0  0  0  0  0  0  0  0
    0.1860    5.6318    8.5375 N   0  0  0  0  0  0  0  0  0  0  0  0
   -0.1914    4.9376    7.4309 C   0  0  0  0  0  0  0  0  0  0  0  0
   -1.3233    4.1422    7.3856 N   0  0  0  0  0  0  0  0  0  0  0  0
   -1.5178    3.7431    6.0716 C   0  0  0  0  0  0  0  0  0  0  0  0
   -2.5654    2.9982    5.4982 C   0  0  0  0  0  0  0  0  0  0  0  0
   -2.6166    2.8124    4.1038 C   0  0  0  0  0  0  0  0  0  0  0  0
   -1.6403    3.4016    3.2861 C   0  0  0  0  0  0  0  0  0  0  0  0
   -0.5939    4.1304    3.8718 C   0  0  0  0  0  0  0  0  0  0  0  0
   -0.4600    4.2696    5.2715 C   0  0  0  0  0  0  0  0  0  0  0  0
    0.4878    4.8947    6.1755 C   0  0  0  0  0  0  0  0  0  0  0  0
    3.2918    7.3259    7.2021 C   0  0  0  0  0  0  0  0  0  0  0  0
   -1.9457    3.9683    8.1616 H   0  0  0  0  0  0  0  0  0  0  0  0
    2.1094    4.0153    2.5575 H   0  0  0  0  0  0  0  0  0  0  0  0
    1.4560    2.6902    3.5658 H   0  0  0  0  0  0  0  0  0  0  0  0
    3.0076    2.5612    2.8136 H   0  0  0  0  0  0  0  0  0  0  0  0
    3.9644    1.9594    4.8025 H   0  0  0  0  0  0  0  0  0  0  0  0
    4.6215    2.6609    7.1464 H   0  0  0  0  0  0  0  0  0  0  0  0
    5.8207    3.0272    5.9422 H   0  0  0  0  0  0  0  0  0  0  0  0
    4.1273    4.8142    7.5630 H   0  0  0  0  0  0  0  0  0  0  0  0
    6.9366    5.1968    6.4222 H   0  0  0  0  0  0  0  0  0  0  0  0
    6.5347    4.5401    8.0033 H   0  0  0  0  0  0  0  0  0  0  0  0
    6.1758    6.2145    7.6450 H   0  0  0  0  0  0  0  0  0  0  0  0
    4.9673    5.6843    4.7623 H   0  0  0  0  0  0  0  0  0  0  0  0
    3.8987    9.0994    5.2785 H   0  0  0  0  0  0  0  0  0  0  0  0
    4.7513    8.0336    4.2047 H   0  0  0  0  0  0  0  0  0  0  0  0
    1.7571    7.9937    4.8192 H   0  0  0  0  0  0  0  0  0  0  0  0
    2.5073    8.3565    3.2952 H   0  0  0  0  0  0  0  0  0  0  0  0
    1.5789    6.0688    3.3764 H   0  0  0  0  0  0  0  0  0  0  0  0
    3.2802    6.0648    3.0077 H   0  0  0  0  0  0  0  0  0  0  0  0
    1.5358    7.0137    9.2249 H   0  0  0  0  0  0  0  0  0  0  0  0
   -3.3464    2.6001    6.1293 H   0  0  0  0  0  0  0  0  0  0  0  0
   -3.4200    2.2416    3.6618 H   0  0  0  0  0  0  0  0  0  0  0  0
   -1.6765    3.2939    2.2103 H   0  0  0  0  0  0  0  0  0  0  0  0
    0.1146    4.5921    3.2122 H   0  0  0  0  0  0  0  0  0  0  0  0
    3.8703    7.1455    8.1075 H   0  0  0  0  0  0  0  0  0  0  0  0
    2.9468    8.3601    7.2627 H   0  0  0  0  0  0  0  0  0  0  0  0
    5.1104    7.3754    6.3537 H   0  0  0  0  0  0  0  0  0  0  0  0
  1  2  1  0
  1 28  1  0
  1 29  1  0
  1 30  1  0
  2 12  1  0
  2  3  2  0
  3  4  1  0
  3 31  1  0
  4  5  1  0
  4 32  1  0
  4 33  1  0
  5  6  1  0
  5  7  1  0
  5 34  1  1
  6 35  1  0
  6 36  1  0
  6 37  1  0
  7 12  1  0
  7  8  1  0
  7 38  1  6
  8 26  1  0
  8  9  1  0
  8 52  1  1
  9 10  1  0
  9 39  1  0
  9 40  1  0
 10 11  1  0
 10 41  1  0
 10 42  1  0
 12 11  1  6
 11 43  1  0
 11 44  1  0
 12 13  1  0
 13 25  1  0
 13 14  2  0
 14 15  1  0
 14 26  1  0
 15 16  2  0
 15 45  1  0
 16 17  1  0
 17 25  2  0
 17 18  1  0
 18 27  1  0
 18 19  1  0
 19 24  2  0
 19 20  1  0
 20 21  2  0
 20 46  1  0
 21 22  1  0
 21 47  1  0
 22 23  2  0
 22 48  1  0
 23 24  1  0
 23 49  1  0
 24 25  1  0
 26 50  1  0
 26 51  1  0
M  CHG  1   8   1
M  END
>  <i_m_ct_stereo_status>  (156) 
1

>  <s_m_source_file>  (156) 
/var/tmp/pbs.5076255.sched01/tmp9rjncpta/544vc0qzzn.sdf

>  <i_m_source_file_index>  (156) 
18

>  <i_lp_mmshare_version>  (156) 
48012

>  <i_f3d_flags>  (156) 
0

>  <s_epik_input>  (156) 
W0NIM11DMT1bQ0hdW0NIMl1bQ0BASF0oW0NIM10pW0NAQEhdKFtDQF0xMjMpTihbQ0gyXVtDSDJdW0NIMl0yKVtDSDJdYzRjM2M1YyhuW2NIXTQpW25IXWM2YzVbY0hdW2NIXVtjSF1bY0hdNg==

>  <s_epik_cmdline>  (156) 
J2VwaWtfcHl0aG9uJywgJy1waHQnLCAnMi4wJywgJy1waCcsICc3LjAnLCAnLXRuJywgJzgnLCAnLW1hJywgJzIwMCcsICctaW1hZScsICc8aW5maWxlLm1hZT4nLCAnLW9tYWUnLCAnPG91dGZpbGUubWFlPic=

>  <r_epik_Ionization_Penalty>  (156) 
0.0128039

>  <r_epik_Ionization_Penalty_Charging>  (156) 
0.0101789

>  <r_epik_Ionization_Penalty_Neutral>  (156) 
0.00262496

>  <r_epik_State_Penalty>  (156) 
0.00777038

>  <r_epik_Charging_Adjusted_Penalty>  (156) 
0.0179493

>  <i_epik_Tot_Q>  (156) 
1

>  <i_epik_Tot_abs_Q>  (156) 
1

>  <s_lp_Force_Field>  (156) 
OPLS3e

>  <r_lp_Energy>  (156) 
70.6303

>  <b_lp_Chiralities_Consistent>  (156) 
1

>  <s_lp_Variant>  (156) 
45:0-1

>  <s_i_glide_gridfile>  (156) 
pfpi4k_grid

>  <i_i_glide_lignum>  (156) 
18

>  <i_i_glide_rotatable_bonds>  (156) 
0

>  <r_i_docking_score>  (156) 
-2.51209

>  <r_i_glide_ligand_efficiency>  (156) 
-0.096619

>  <r_i_glide_ligand_efficiency_sa>  (156) 
-0.286233

>  <r_i_glide_ligand_efficiency_ln>  (156) 
-0.589957

>  <r_i_glide_gscore>  (156) 
-2.51209

>  <r_i_glide_lipo>  (156) 
-0.0419001

>  <r_i_glide_hbond>  (156) 
0

>  <r_i_glide_metal>  (156) 
-0

>  <r_i_glide_rewards>  (156) 
-1.06041

>  <r_i_glide_evdw>  (156) 
-20.414

>  <r_i_glide_ecoul>  (156) 
-2.58337

>  <r_i_glide_erotb>  (156) 
0

>  <r_i_glide_esite>  (156) 
-0.00157402

>  <r_i_glide_emodel>  (156) 
-28.2179

>  <r_i_glide_energy>  (156) 
-22.9974

>  <r_i_glide_einternal>  (156) 
0

>  <r_i_glide_intrahb_reward>  (156) 
-0

>  <i_i_glide_confnum>  (156) 
2

>  <i_i_glide_posenum>  (156) 
2

>  <r_i_glide_eff_state_penalty>  (156) 
0

>  <ligand_id>  (156) 
45

>  <original_smiles>  (156) 
CC1=CCC(C)C2N3CCCC12c1c(cnc2[nH]c4ccccc4c12)C3

>  <smiles>  (156) 
[H]C1=C(C([H])([H])[H])C23c4c(c([H])nc5c4c4c([H])c([H])c([H])c([H])c4n5[H])C([H])([H])[N+]([H])(C([H])([H])C([H])([H])C2([H])[H])C3([H])C([H])(C([H])([H])[H])C1([H])[H]

$$$$
45:1:0
     RDKit          3D

 51 56  0  0  1  0  0  0  0  0999 V2000
    2.1864   -3.5946    3.7370 C   0  0  0  0  0  0  0  0  0  0  0  0
    3.3111   -4.0637    2.8253 C   0  0  0  0  0  0  0  0  0  0  0  0
    3.4957   -3.3279    1.7101 C   0  0  0  0  0  0  0  0  0  0  0  0
    4.6320   -3.4555    0.7286 C   0  0  0  0  0  0  0  0  0  0  0  0
    5.6232   -4.5739    1.0714 C   0  0  1  0  0  0  0  0  0  0  0  0
    7.0069   -4.2288    0.4827 C   0  0  0  0  0  0  0  0  0  0  0  0
    5.6633   -4.8608    2.6079 C   0  0  2  0  0  0  0  0  0  0  0  0
    6.6445   -5.9058    2.9223 N   0  0  0  0  0  0  0  0  0  0  0  0
    6.9007   -6.0057    4.3620 C   0  0  0  0  0  0  0  0  0  0  0  0
    5.6271   -6.2446    5.1791 C   0  0  0  0  0  0  0  0  0  0  0  0
    4.5143   -5.2610    4.7816 C   0  0  0  0  0  0  0  0  0  0  0  0
    4.2666   -5.2252    3.2448 C   0  0  1  0  0  0  0  0  0  0  0  0
    3.8357   -6.6436    2.7439 C   0  0  0  0  0  0  0  0  0  0  0  0
    4.8340   -7.4935    2.1869 C   0  0  0  0  0  0  0  0  0  0  0  0
    4.4641   -8.6677    1.5042 C   0  0  0  0  0  0  0  0  0  0  0  0
    3.1959   -9.0703    1.3414 N   0  0  0  0  0  0  0  0  0  0  0  0
    2.2791   -8.3644    2.0507 C   0  0  0  0  0  0  0  0  0  0  0  0
    0.9372   -8.6932    2.0791 N   0  0  0  0  0  0  0  0  0  0  0  0
    0.3062   -7.8896    3.0087 C   0  0  0  0  0  0  0  0  0  0  0  0
   -1.0336   -7.8899    3.4335 C   0  0  0  0  0  0  0  0  0  0  0  0
   -1.4340   -7.0501    4.4830 C   0  0  0  0  0  0  0  0  0  0  0  0
   -0.4830   -6.2483    5.1424 C   0  0  0  0  0  0  0  0  0  0  0  0
    0.8486   -6.2394    4.6875 C   0  0  0  0  0  0  0  0  0  0  0  0
    1.2715   -7.0020    3.5723 C   0  0  0  0  0  0  0  0  0  0  0  0
    2.5145   -7.1907    2.8357 C   0  0  0  0  0  0  0  0  0  0  0  0
    6.3154   -7.1681    2.2663 C   0  0  0  0  0  0  0  0  0  0  0  0
    0.5132   -9.4354    1.5267 H   0  0  0  0  0  0  0  0  0  0  0  0
    2.4060   -3.6988    4.7972 H   0  0  0  0  0  0  0  0  0  0  0  0
    1.2515   -4.0816    3.4729 H   0  0  0  0  0  0  0  0  0  0  0  0
    2.0048   -2.5301    3.5871 H   0  0  0  0  0  0  0  0  0  0  0  0
    2.8198   -2.5126    1.4877 H   0  0  0  0  0  0  0  0  0  0  0  0
    4.2218   -3.6058   -0.2705 H   0  0  0  0  0  0  0  0  0  0  0  0
    5.1372   -2.4891    0.7134 H   0  0  0  0  0  0  0  0  0  0  0  0
    5.2576   -5.4554    0.5455 H   0  0  0  0  0  0  0  0  0  0  0  0
    7.4469   -3.3566    0.9670 H   0  0  0  0  0  0  0  0  0  0  0  0
    6.9287   -4.0090   -0.5817 H   0  0  0  0  0  0  0  0  0  0  0  0
    7.7093   -5.0545    0.5876 H   0  0  0  0  0  0  0  0  0  0  0  0
    6.0102   -3.9394    3.0784 H   0  0  0  0  0  0  0  0  0  0  0  0
    7.6393   -6.7842    4.5566 H   0  0  0  0  0  0  0  0  0  0  0  0
    7.3526   -5.0735    4.6960 H   0  0  0  0  0  0  0  0  0  0  0  0
    5.2921   -7.2724    5.0413 H   0  0  0  0  0  0  0  0  0  0  0  0
    5.8554   -6.1374    6.2427 H   0  0  0  0  0  0  0  0  0  0  0  0
    3.6260   -5.5600    5.3272 H   0  0  0  0  0  0  0  0  0  0  0  0
    4.7792   -4.2651    5.1420 H   0  0  0  0  0  0  0  0  0  0  0  0
    5.2116   -9.2926    1.0302 H   0  0  0  0  0  0  0  0  0  0  0  0
   -1.7462   -8.5573    2.9755 H   0  0  0  0  0  0  0  0  0  0  0  0
   -2.4579   -7.0450    4.8214 H   0  0  0  0  0  0  0  0  0  0  0  0
   -0.7622   -5.6289    5.9840 H   0  0  0  0  0  0  0  0  0  0  0  0
    1.5545   -5.6412    5.2233 H   0  0  0  0  0  0  0  0  0  0  0  0
    6.7005   -7.1495    1.2466 H   0  0  0  0  0  0  0  0  0  0  0  0
    6.8285   -7.9865    2.7744 H   0  0  0  0  0  0  0  0  0  0  0  0
  1  2  1  0
  1 28  1  0
  1 29  1  0
  1 30  1  0
  2 12  1  0
  2  3  2  0
  3  4  1  0
  3 31  1  0
  4  5  1  0
  4 32  1  0
  4 33  1  0
  5  6  1  0
  5  7  1  0
  5 34  1  6
  6 35  1  0
  6 36  1  0
  6 37  1  0
  7 12  1  0
  7  8  1  0
  7 38  1  1
  8 26  1  0
  8  9  1  0
  9 10  1  0
  9 39  1  0
  9 40  1  0
 10 11  1  0
 10 41  1  0
 10 42  1  0
 12 11  1  1
 11 43  1  0
 11 44  1  0
 12 13  1  0
 13 25  1  0
 13 14  2  0
 14 15  1  0
 14 26  1  0
 15 16  2  0
 15 45  1  0
 16 17  1  0
 17 25  2  0
 17 18  1  0
 18 27  1  0
 18 19  1  0
 19 24  2  0
 19 20  1  0
 20 21  2  0
 20 46  1  0
 21 22  1  0
 21 47  1  0
 22 23  2  0
 22 48  1  0
 23 24  1  0
 23 49  1  0
 24 25  1  0
 26 50  1  0
 26 51  1  0
M  END
>  <i_m_ct_stereo_status>  (157) 
1

>  <s_m_source_file>  (157) 
/var/tmp/pbs.5076255.sched01/tmp9rjncpta/544vc0qzzn.sdf

>  <i_m_source_file_index>  (157) 
19

>  <i_lp_mmshare_version>  (157) 
48012

>  <i_f3d_flags>  (157) 
0

>  <s_epik_input>  (157) 
W0NIM11DMT1bQ0hdW0NIMl1bQ0BASF0oW0NIM10pW0NAQEhdKFtDQF0xMjMpTihbQ0gyXVtDSDJdW0NIMl0yKVtDSDJdYzRjM2M1YyhuW2NIXTQpW25IXWM2YzVbY0hdW2NIXVtjSF1bY0hdNg==

>  <s_epik_cmdline>  (157) 
J2VwaWtfcHl0aG9uJywgJy1waHQnLCAnMi4wJywgJy1waCcsICc3LjAnLCAnLXRuJywgJzgnLCAnLW1hJywgJzIwMCcsICctaW1hZScsICc8aW5maWxlLm1hZT4nLCAnLW9tYWUnLCAnPG91dGZpbGUubWFlPic=

>  <r_epik_Ionization_Penalty>  (157) 
2.42053

>  <r_epik_Ionization_Penalty_Charging>  (157) 
0

>  <r_epik_Ionization_Penalty_Neutral>  (157) 
2.42053

>  <r_epik_State_Penalty>  (157) 
2.57172

>  <r_epik_Charging_Adjusted_Penalty>  (157) 
2.57172

>  <i_epik_Tot_Q>  (157) 
0

>  <i_epik_Tot_abs_Q>  (157) 
0

>  <s_lp_Force_Field>  (157) 
OPLS3e

>  <r_lp_Energy>  (157) 
64.7188

>  <b_lp_Chiralities_Consistent>  (157) 
1

>  <s_lp_Variant>  (157) 
45:0-2

>  <s_i_glide_gridfile>  (157) 
pfpi4k_grid

>  <i_i_glide_lignum>  (157) 
19

>  <i_i_glide_rotatable_bonds>  (157) 
0

>  <r_i_docking_score>  (157) 
-3.15195

>  <r_i_glide_ligand_efficiency>  (157) 
-0.121229

>  <r_i_glide_ligand_efficiency_sa>  (157) 
-0.35914

>  <r_i_glide_ligand_efficiency_ln>  (157) 
-0.740225

>  <r_i_glide_gscore>  (157) 
-3.15195

>  <r_i_glide_lipo>  (157) 
-0.300552

>  <r_i_glide_hbond>  (157) 
-0.256788

>  <r_i_glide_metal>  (157) 
-0

>  <r_i_glide_rewards>  (157) 
-1.06729

>  <r_i_glide_evdw>  (157) 
-22.4545

>  <r_i_glide_ecoul>  (157) 
-2.43224

>  <r_i_glide_erotb>  (157) 
0

>  <r_i_glide_esite>  (157) 
-0.0397617

>  <r_i_glide_emodel>  (157) 
-29.6484

>  <r_i_glide_energy>  (157) 
-24.8868

>  <r_i_glide_einternal>  (157) 
0

>  <r_i_glide_intrahb_reward>  (157) 
-0

>  <i_i_glide_confnum>  (157) 
2

>  <i_i_glide_posenum>  (157) 
25

>  <r_i_glide_eff_state_penalty>  (157) 
0

>  <ligand_id>  (157) 
45

>  <original_smiles>  (157) 
CC1=CCC(C)C2N3CCCC12c1c(cnc2[nH]c4ccccc4c12)C3

>  <smiles>  (157) 
[H]C1=C(C([H])([H])[H])C23c4c(c([H])nc5c4c4c([H])c([H])c([H])c([H])c4n5[H])C([H])([H])N(C([H])([H])C([H])([H])C2([H])[H])C3([H])C([H])(C([H])([H])[H])C1([H])[H]

$$$$
45:1:1
     RDKit          3D

 51 56  0  0  1  0  0  0  0  0999 V2000
    4.0220   -7.2472    1.4149 C   0  0  0  0  0  0  0  0  0  0  0  0
    2.7432   -6.9276    2.1763 C   0  0  0  0  0  0  0  0  0  0  0  0
    1.6408   -7.5822    1.7558 C   0  0  0  0  0  0  0  0  0  0  0  0
    0.2914   -7.5968    2.4273 C   0  0  0  0  0  0  0  0  0  0  0  0
    0.2287   -6.7355    3.6915 C   0  0  1  0  0  0  0  0  0  0  0  0
   -0.8656   -7.2842    4.6244 C   0  0  0  0  0  0  0  0  0  0  0  0
    1.6245   -6.6027    4.3831 C   0  0  2  0  0  0  0  0  0  0  0  0
    1.5259   -5.8020    5.6093 N   0  0  0  0  0  0  0  0  0  0  0  0
    2.7503   -5.8856    6.4092 C   0  0  0  0  0  0  0  0  0  0  0  0
    4.0046   -5.4662    5.6282 C   0  0  0  0  0  0  0  0  0  0  0  0
    4.0751   -6.1733    4.2634 C   0  0  0  0  0  0  0  0  0  0  0  0
    2.7580   -6.0208    3.4480 C   0  0  1  0  0  0  0  0  0  0  0  0
    2.4770   -4.5047    3.1769 C   0  0  0  0  0  0  0  0  0  0  0  0
    1.5743   -3.8240    4.0431 C   0  0  0  0  0  0  0  0  0  0  0  0
    1.1088   -2.5382    3.7121 C   0  0  0  0  0  0  0  0  0  0  0  0
    1.4771   -1.8561    2.6178 N   0  0  0  0  0  0  0  0  0  0  0  0
    2.4749   -2.4425    1.8995 C   0  0  0  0  0  0  0  0  0  0  0  0
    3.0146   -1.8758    0.7577 N   0  0  0  0  0  0  0  0  0  0  0  0
    4.1212   -2.6133    0.3775 C   0  0  0  0  0  0  0  0  0  0  0  0
    5.0445   -2.3884   -0.6653 C   0  0  0  0  0  0  0  0  0  0  0  0
    6.1697   -3.2183   -0.8016 C   0  0  0  0  0  0  0  0  0  0  0  0
    6.3820   -4.2537    0.1252 C   0  0  0  0  0  0  0  0  0  0  0  0
    5.4391   -4.4825    1.1473 C   0  0  0  0  0  0  0  0  0  0  0  0
    4.2549   -3.7198    1.2699 C   0  0  0  0  0  0  0  0  0  0  0  0
    3.0867   -3.7114    2.1482 C   0  0  0  0  0  0  0  0  0  0  0  0
    1.0620   -4.4449    5.3318 C   0  0  0  0  0  0  0  0  0  0  0  0
    2.6549   -1.0409    0.3084 H   0  0  0  0  0  0  0  0  0  0  0  0
    4.9120   -7.2795    2.0399 H   0  0  0  0  0  0  0  0  0  0  0  0
    4.1509   -6.5619    0.5803 H   0  0  0  0  0  0  0  0  0  0  0  0
    3.9536   -8.2398    0.9641 H   0  0  0  0  0  0  0  0  0  0  0  0
    1.6999   -8.2321    0.8920 H   0  0  0  0  0  0  0  0  0  0  0  0
   -0.4679   -7.2871    1.7057 H   0  0  0  0  0  0  0  0  0  0  0  0
    0.0816   -8.6413    2.6677 H   0  0  0  0  0  0  0  0  0  0  0  0
   -0.0956   -5.7534    3.3581 H   0  0  0  0  0  0  0  0  0  0  0  0
   -0.6030   -8.2682    5.0152 H   0  0  0  0  0  0  0  0  0  0  0  0
   -1.8200   -7.3833    4.1038 H   0  0  0  0  0  0  0  0  0  0  0  0
   -1.0282   -6.6247    5.4748 H   0  0  0  0  0  0  0  0  0  0  0  0
    1.9158   -7.6100    4.6825 H   0  0  0  0  0  0  0  0  0  0  0  0
    2.6486   -5.2863    7.3153 H   0  0  0  0  0  0  0  0  0  0  0  0
    2.8680   -6.9185    6.7387 H   0  0  0  0  0  0  0  0  0  0  0  0
    4.0172   -4.3836    5.4970 H   0  0  0  0  0  0  0  0  0  0  0  0
    4.8937   -5.7070    6.2164 H   0  0  0  0  0  0  0  0  0  0  0  0
    4.9292   -5.7562    3.7382 H   0  0  0  0  0  0  0  0  0  0  0  0
    4.2973   -7.2290    4.4261 H   0  0  0  0  0  0  0  0  0  0  0  0
    0.3785   -2.0468    4.3392 H   0  0  0  0  0  0  0  0  0  0  0  0
    4.8878   -1.5609   -1.3402 H   0  0  0  0  0  0  0  0  0  0  0  0
    6.8818   -3.0507   -1.5991 H   0  0  0  0  0  0  0  0  0  0  0  0
    7.2567   -4.8800    0.0725 H   0  0  0  0  0  0  0  0  0  0  0  0
    5.6517   -5.2562    1.8522 H   0  0  0  0  0  0  0  0  0  0  0  0
   -0.0265   -4.4470    5.2859 H   0  0  0  0  0  0  0  0  0  0  0  0
    1.3308   -3.7918    6.1643 H   0  0  0  0  0  0  0  0  0  0  0  0
  1  2  1  0
  1 28  1  0
  1 29  1  0
  1 30  1  0
  2 12  1  0
  2  3  2  0
  3  4  1  0
  3 31  1  0
  4  5  1  0
  4 32  1  0
  4 33  1  0
  5  6  1  0
  5  7  1  0
  5 34  1  6
  6 35  1  0
  6 36  1  0
  6 37  1  0
  7 12  1  0
  7  8  1  0
  7 38  1  1
  8 26  1  0
  8  9  1  0
  9 10  1  0
  9 39  1  0
  9 40  1  0
 10 11  1  0
 10 41  1  0
 10 42  1  0
 12 11  1  1
 11 43  1  0
 11 44  1  0
 12 13  1  0
 13 25  1  0
 13 14  2  0
 14 15  1  0
 14 26  1  0
 15 16  2  0
 15 45  1  0
 16 17  1  0
 17 25  2  0
 17 18  1  0
 18 27  1  0
 18 19  1  0
 19 24  2  0
 19 20  1  0
 20 21  2  0
 20 46  1  0
 21 22  1  0
 21 47  1  0
 22 23  2  0
 22 48  1  0
 23 24  1  0
 23 49  1  0
 24 25  1  0
 26 50  1  0
 26 51  1  0
M  END
>  <i_m_ct_stereo_status>  (158) 
1

>  <s_m_source_file>  (158) 
/var/tmp/pbs.5076255.sched01/tmp9rjncpta/544vc0qzzn.sdf

>  <i_m_source_file_index>  (158) 
19

>  <i_lp_mmshare_version>  (158) 
48012

>  <i_f3d_flags>  (158) 
0

>  <s_epik_input>  (158) 
W0NIM11DMT1bQ0hdW0NIMl1bQ0BASF0oW0NIM10pW0NAQEhdKFtDQF0xMjMpTihbQ0gyXVtDSDJdW0NIMl0yKVtDSDJdYzRjM2M1YyhuW2NIXTQpW25IXWM2YzVbY0hdW2NIXVtjSF1bY0hdNg==

>  <s_epik_cmdline>  (158) 
J2VwaWtfcHl0aG9uJywgJy1waHQnLCAnMi4wJywgJy1waCcsICc3LjAnLCAnLXRuJywgJzgnLCAnLW1hJywgJzIwMCcsICctaW1hZScsICc8aW5maWxlLm1hZT4nLCAnLW9tYWUnLCAnPG91dGZpbGUubWFlPic=

>  <r_epik_Ionization_Penalty>  (158) 
2.42053

>  <r_epik_Ionization_Penalty_Charging>  (158) 
0

>  <r_epik_Ionization_Penalty_Neutral>  (158) 
2.42053

>  <r_epik_State_Penalty>  (158) 
2.57172

>  <r_epik_Charging_Adjusted_Penalty>  (158) 
2.57172

>  <i_epik_Tot_Q>  (158) 
0

>  <i_epik_Tot_abs_Q>  (158) 
0

>  <s_lp_Force_Field>  (158) 
OPLS3e

>  <r_lp_Energy>  (158) 
64.7188

>  <b_lp_Chiralities_Consistent>  (158) 
1

>  <s_lp_Variant>  (158) 
45:0-2

>  <s_i_glide_gridfile>  (158) 
pfpi4k_grid

>  <i_i_glide_lignum>  (158) 
19

>  <i_i_glide_rotatable_bonds>  (158) 
0

>  <r_i_docking_score>  (158) 
-2.64844

>  <r_i_glide_ligand_efficiency>  (158) 
-0.101863

>  <r_i_glide_ligand_efficiency_sa>  (158) 
-0.301769

>  <r_i_glide_ligand_efficiency_ln>  (158) 
-0.621978

>  <r_i_glide_gscore>  (158) 
-2.64844

>  <r_i_glide_lipo>  (158) 
-0.373794

>  <r_i_glide_hbond>  (158) 
-0.0386053

>  <r_i_glide_metal>  (158) 
-0

>  <r_i_glide_rewards>  (158) 
-1.06729

>  <r_i_glide_evdw>  (158) 
-22.9936

>  <r_i_glide_ecoul>  (158) 
0.384418

>  <r_i_glide_erotb>  (158) 
0

>  <r_i_glide_esite>  (158) 
-0.0767403

>  <r_i_glide_emodel>  (158) 
-26.5964

>  <r_i_glide_energy>  (158) 
-22.6092

>  <r_i_glide_einternal>  (158) 
0

>  <r_i_glide_intrahb_reward>  (158) 
-0

>  <i_i_glide_confnum>  (158) 
1

>  <i_i_glide_posenum>  (158) 
1

>  <r_i_glide_eff_state_penalty>  (158) 
0

>  <ligand_id>  (158) 
45

>  <original_smiles>  (158) 
CC1=CCC(C)C2N3CCCC12c1c(cnc2[nH]c4ccccc4c12)C3

>  <smiles>  (158) 
[H]C1=C(C([H])([H])[H])C23c4c(c([H])nc5c4c4c([H])c([H])c([H])c([H])c4n5[H])C([H])([H])N(C([H])([H])C([H])([H])C2([H])[H])C3([H])C([H])(C([H])([H])[H])C1([H])[H]

$$$$
45:1:2
     RDKit          3D

 51 56  0  0  1  0  0  0  0  0999 V2000
    2.6640   -5.8417    0.4939 C   0  0  0  0  0  0  0  0  0  0  0  0
    2.6468   -5.4719    1.9688 C   0  0  0  0  0  0  0  0  0  0  0  0
    1.4374   -5.5235    2.5615 C   0  0  0  0  0  0  0  0  0  0  0  0
    1.1407   -5.3611    4.0296 C   0  0  0  0  0  0  0  0  0  0  0  0
    2.3893   -5.1045    4.8778 C   0  0  1  0  0  0  0  0  0  0  0  0
    2.1354   -5.6036    6.3143 C   0  0  0  0  0  0  0  0  0  0  0  0
    3.6725   -5.7171    4.2254 C   0  0  2  0  0  0  0  0  0  0  0  0
    4.8470   -5.4969    5.0740 N   0  0  0  0  0  0  0  0  0  0  0  0
    5.9959   -6.2865    4.6261 C   0  0  0  0  0  0  0  0  0  0  0  0
    6.3689   -6.0263    3.1606 C   0  0  0  0  0  0  0  0  0  0  0  0
    5.1379   -6.0949    2.2438 C   0  0  0  0  0  0  0  0  0  0  0  0
    3.9658   -5.2085    2.7574 C   0  0  1  0  0  0  0  0  0  0  0  0
    4.4093   -3.7093    2.8112 C   0  0  0  0  0  0  0  0  0  0  0  0
    4.8420   -3.1831    4.0613 C   0  0  0  0  0  0  0  0  0  0  0  0
    5.0140   -1.7960    4.2216 C   0  0  0  0  0  0  0  0  0  0  0  0
    4.8299   -0.8881    3.2495 N   0  0  0  0  0  0  0  0  0  0  0  0
    4.5968   -1.4234    2.0198 C   0  0  0  0  0  0  0  0  0  0  0  0
    4.4360   -0.6479    0.8817 N   0  0  0  0  0  0  0  0  0  0  0  0
    4.4099   -1.4868   -0.2201 C   0  0  0  0  0  0  0  0  0  0  0  0
    4.3417   -1.1720   -1.5956 C   0  0  0  0  0  0  0  0  0  0  0  0
    4.4349   -2.1897   -2.5578 C   0  0  0  0  0  0  0  0  0  0  0  0
    4.6293   -3.5151   -2.1412 C   0  0  0  0  0  0  0  0  0  0  0  0
    4.6805   -3.8218   -0.7694 C   0  0  0  0  0  0  0  0  0  0  0  0
    4.5077   -2.8388    0.2330 C   0  0  0  0  0  0  0  0  0  0  0  0
    4.4579   -2.8083    1.6916 C   0  0  0  0  0  0  0  0  0  0  0  0
    5.1084   -4.0720    5.2663 C   0  0  0  0  0  0  0  0  0  0  0  0
    4.4256    0.3600    0.8617 H   0  0  0  0  0  0  0  0  0  0  0  0
    3.5409   -6.4106    0.1908 H   0  0  0  0  0  0  0  0  0  0  0  0
    2.5364   -4.9611   -0.1308 H   0  0  0  0  0  0  0  0  0  0  0  0
    1.8108   -6.4825    0.2630 H   0  0  0  0  0  0  0  0  0  0  0  0
    0.5692   -5.7673    1.9695 H   0  0  0  0  0  0  0  0  0  0  0  0
    0.4163   -4.5535    4.1597 H   0  0  0  0  0  0  0  0  0  0  0  0
    0.6451   -6.2813    4.3444 H   0  0  0  0  0  0  0  0  0  0  0  0
    2.4875   -4.0206    4.9243 H   0  0  0  0  0  0  0  0  0  0  0  0
    2.0308   -6.6884    6.3471 H   0  0  0  0  0  0  0  0  0  0  0  0
    1.2206   -5.1711    6.7229 H   0  0  0  0  0  0  0  0  0  0  0  0
    2.9473   -5.3297    6.9864 H   0  0  0  0  0  0  0  0  0  0  0  0
    3.5076   -6.7950    4.1819 H   0  0  0  0  0  0  0  0  0  0  0  0
    6.8512   -6.1034    5.2773 H   0  0  0  0  0  0  0  0  0  0  0  0
    5.7448   -7.3407    4.7407 H   0  0  0  0  0  0  0  0  0  0  0  0
    6.8499   -5.0570    3.0671 H   0  0  0  0  0  0  0  0  0  0  0  0
    7.1181   -6.7519    2.8390 H   0  0  0  0  0  0  0  0  0  0  0  0
    5.4650   -5.7993    1.2513 H   0  0  0  0  0  0  0  0  0  0  0  0
    4.8189   -7.1355    2.1683 H   0  0  0  0  0  0  0  0  0  0  0  0
    5.3012   -1.3959    5.1843 H   0  0  0  0  0  0  0  0  0  0  0  0
    4.2311   -0.1445   -1.9014 H   0  0  0  0  0  0  0  0  0  0  0  0
    4.3721   -1.9501   -3.6085 H   0  0  0  0  0  0  0  0  0  0  0  0
    4.7292   -4.3125   -2.8624 H   0  0  0  0  0  0  0  0  0  0  0  0
    4.8587   -4.8403   -0.4971 H   0  0  0  0  0  0  0  0  0  0  0  0
    4.4876   -3.7078    6.0845 H   0  0  0  0  0  0  0  0  0  0  0  0
    6.1429   -3.9332    5.5846 H   0  0  0  0  0  0  0  0  0  0  0  0
  1  2  1  0
  1 28  1  0
  1 29  1  0
  1 30  1  0
  2 12  1  0
  2  3  2  0
  3  4  1  0
  3 31  1  0
  4  5  1  0
  4 32  1  0
  4 33  1  0
  5  6  1  0
  5  7  1  0
  5 34  1  1
  6 35  1  0
  6 36  1  0
  6 37  1  0
  7 12  1  0
  7  8  1  0
  7 38  1  6
  8 26  1  0
  8  9  1  0
  9 10  1  0
  9 39  1  0
  9 40  1  0
 10 11  1  0
 10 41  1  0
 10 42  1  0
 12 11  1  6
 11 43  1  0
 11 44  1  0
 12 13  1  0
 13 25  1  0
 13 14  2  0
 14 15  1  0
 14 26  1  0
 15 16  2  0
 15 45  1  0
 16 17  1  0
 17 25  2  0
 17 18  1  0
 18 27  1  0
 18 19  1  0
 19 24  2  0
 19 20  1  0
 20 21  2  0
 20 46  1  0
 21 22  1  0
 21 47  1  0
 22 23  2  0
 22 48  1  0
 23 24  1  0
 23 49  1  0
 24 25  1  0
 26 50  1  0
 26 51  1  0
M  END
>  <i_m_ct_stereo_status>  (159) 
1

>  <s_m_source_file>  (159) 
/var/tmp/pbs.5076255.sched01/tmp9rjncpta/544vc0qzzn.sdf

>  <i_m_source_file_index>  (159) 
19

>  <i_lp_mmshare_version>  (159) 
48012

>  <i_f3d_flags>  (159) 
0

>  <s_epik_input>  (159) 
W0NIM11DMT1bQ0hdW0NIMl1bQ0BASF0oW0NIM10pW0NAQEhdKFtDQF0xMjMpTihbQ0gyXVtDSDJdW0NIMl0yKVtDSDJdYzRjM2M1YyhuW2NIXTQpW25IXWM2YzVbY0hdW2NIXVtjSF1bY0hdNg==

>  <s_epik_cmdline>  (159) 
J2VwaWtfcHl0aG9uJywgJy1waHQnLCAnMi4wJywgJy1waCcsICc3LjAnLCAnLXRuJywgJzgnLCAnLW1hJywgJzIwMCcsICctaW1hZScsICc8aW5maWxlLm1hZT4nLCAnLW9tYWUnLCAnPG91dGZpbGUubWFlPic=

>  <r_epik_Ionization_Penalty>  (159) 
2.42053

>  <r_epik_Ionization_Penalty_Charging>  (159) 
0

>  <r_epik_Ionization_Penalty_Neutral>  (159) 
2.42053

>  <r_epik_State_Penalty>  (159) 
2.57172

>  <r_epik_Charging_Adjusted_Penalty>  (159) 
2.57172

>  <i_epik_Tot_Q>  (159) 
0

>  <i_epik_Tot_abs_Q>  (159) 
0

>  <s_lp_Force_Field>  (159) 
OPLS3e

>  <r_lp_Energy>  (159) 
64.7188

>  <b_lp_Chiralities_Consistent>  (159) 
1

>  <s_lp_Variant>  (159) 
45:0-2

>  <s_i_glide_gridfile>  (159) 
pfpi4k_grid

>  <i_i_glide_lignum>  (159) 
19

>  <i_i_glide_rotatable_bonds>  (159) 
0

>  <r_i_docking_score>  (159) 
-2.40694

>  <r_i_glide_ligand_efficiency>  (159) 
-0.0925745

>  <r_i_glide_ligand_efficiency_sa>  (159) 
-0.274251

>  <r_i_glide_ligand_efficiency_ln>  (159) 
-0.565261

>  <r_i_glide_gscore>  (159) 
-2.40694

>  <r_i_glide_lipo>  (159) 
-0.230694

>  <r_i_glide_hbond>  (159) 
0

>  <r_i_glide_metal>  (159) 
-0

>  <r_i_glide_rewards>  (159) 
-1.1251

>  <r_i_glide_evdw>  (159) 
-23.3099

>  <r_i_glide_ecoul>  (159) 
0.76234

>  <r_i_glide_erotb>  (159) 
0

>  <r_i_glide_esite>  (159) 
0

>  <r_i_glide_emodel>  (159) 
-26.1573

>  <r_i_glide_energy>  (159) 
-22.5476

>  <r_i_glide_einternal>  (159) 
0

>  <r_i_glide_intrahb_reward>  (159) 
-0

>  <i_i_glide_confnum>  (159) 
1

>  <i_i_glide_posenum>  (159) 
33

>  <r_i_glide_eff_state_penalty>  (159) 
0

>  <ligand_id>  (159) 
45

>  <original_smiles>  (159) 
CC1=CCC(C)C2N3CCCC12c1c(cnc2[nH]c4ccccc4c12)C3

>  <smiles>  (159) 
[H]C1=C(C([H])([H])[H])C23c4c(c([H])nc5c4c4c([H])c([H])c([H])c([H])c4n5[H])C([H])([H])N(C([H])([H])C([H])([H])C2([H])[H])C3([H])C([H])(C([H])([H])[H])C1([H])[H]

$$$$
47:0:0
     RDKit          3D

 64 68  0  0  1  0  0  0  0  0999 V2000
    2.4185   -0.4303    3.8739 C   0  0  0  0  0  0  0  0  0  0  0  0
    2.8362   -1.3894    2.7460 C   0  0  2  0  0  0  0  0  0  0  0  0
    1.9890   -2.6739    2.7426 C   0  0  0  0  0  0  0  0  0  0  0  0
    2.6003   -4.0376    3.1372 C   0  0  0  0  0  0  0  0  0  0  0  0
    3.7897   -4.6257    2.3168 C   0  0  1  0  0  0  0  0  0  0  0  0
    3.7260   -4.4086    0.7892 C   0  0  1  0  0  0  0  0  0  0  0  0
    2.4817   -5.0757    0.1964 C   0  0  0  0  0  0  0  0  0  0  0  0
    4.1001   -2.9814    0.2754 C   0  0  1  0  0  0  0  0  0  0  0  0
    3.0455   -2.1555   -0.4981 C   0  0  0  0  0  0  0  0  0  0  0  0
    3.4076   -1.8858   -1.9453 C   0  0  0  0  0  0  0  0  0  0  0  0
    2.9852   -2.7919   -2.9460 C   0  0  0  0  0  0  0  0  0  0  0  0
    3.2053   -2.4868   -4.2849 C   0  0  0  0  0  0  0  0  0  0  0  0
    3.7321   -1.2451   -4.6405 C   0  0  0  0  0  0  0  0  0  0  0  0
    4.1554   -0.3267   -3.6593 C   0  0  0  0  0  0  0  0  0  0  0  0
    4.0429   -0.6879   -2.3175 C   0  0  0  0  0  0  0  0  0  0  0  0
    4.9825   -2.1409    1.2507 C   0  0  2  0  0  0  0  0  0  0  0  0
    5.5406   -1.0627    0.5022 O   0  0  0  0  0  0  0  0  0  0  0  0
    6.5217   -1.6469   -0.4618 O   0  0  0  0  0  0  0  0  0  0  0  0
    7.2662   -2.6168    0.2594 C   0  0  0  0  0  0  0  0  0  0  0  0
    7.4367   -3.8395   -0.6412 C   0  0  0  0  0  0  0  0  0  0  0  0
    8.6745   -2.0755    0.5915 C   0  0  0  0  0  0  0  0  0  0  0  0
    6.3341   -2.8267    1.4752 C   0  0  2  0  0  0  0  0  0  0  0  0
    6.2051   -4.1865    1.9111 O   0  0  0  0  0  0  0  0  0  0  0  0
    5.2327   -4.4810    2.9299 C   0  0  2  0  0  0  0  0  0  0  0  0
    5.7210   -5.8670    3.3878 C   0  0  0  0  0  0  0  0  0  0  0  0
    5.2635   -3.5508    4.1865 C   0  0  0  0  0  0  0  0  0  0  0  0
    4.9826   -2.0482    3.9457 C   0  0  0  0  0  0  0  0  0  0  0  0
    4.3647   -1.5703    2.5960 C   0  0  2  0  0  0  0  0  0  0  0  0
    2.4750   -0.8712    4.8726 H   0  0  0  0  0  0  0  0  0  0  0  0
    1.3834   -0.1265    3.7136 H   0  0  0  0  0  0  0  0  0  0  0  0
    3.0227    0.4792    3.8519 H   0  0  0  0  0  0  0  0  0  0  0  0
    2.5036   -0.7986    1.8965 H   0  0  0  0  0  0  0  0  0  0  0  0
    1.1420   -2.5149    3.4123 H   0  0  0  0  0  0  0  0  0  0  0  0
    1.5602   -2.7399    1.7511 H   0  0  0  0  0  0  0  0  0  0  0  0
    2.7681   -4.0522    4.2084 H   0  0  0  0  0  0  0  0  0  0  0  0
    1.7934   -4.7624    3.0536 H   0  0  0  0  0  0  0  0  0  0  0  0
    3.5962   -5.6966    2.3946 H   0  0  0  0  0  0  0  0  0  0  0  0
    4.5322   -5.0346    0.4002 H   0  0  0  0  0  0  0  0  0  0  0  0
    1.5599   -4.6144    0.5186 H   0  0  0  0  0  0  0  0  0  0  0  0
    2.4194   -6.1319    0.4679 H   0  0  0  0  0  0  0  0  0  0  0  0
    2.5205   -5.0082   -0.8782 H   0  0  0  0  0  0  0  0  0  0  0  0
    4.7759   -3.2315   -0.5220 H   0  0  0  0  0  0  0  0  0  0  0  0
    2.0789   -2.6429   -0.4764 H   0  0  0  0  0  0  0  0  0  0  0  0
    2.9210   -1.1781   -0.0475 H   0  0  0  0  0  0  0  0  0  0  0  0
    2.4096   -3.6807   -2.6927 H   0  0  0  0  0  0  0  0  0  0  0  0
    2.8720   -3.2024   -5.0294 H   0  0  0  0  0  0  0  0  0  0  0  0
    3.8484   -0.9912   -5.6853 H   0  0  0  0  0  0  0  0  0  0  0  0
    4.5798    0.6414   -3.9318 H   0  0  0  0  0  0  0  0  0  0  0  0
    4.3910   -0.0090   -1.5449 H   0  0  0  0  0  0  0  0  0  0  0  0
    7.9919   -4.6305   -0.1315 H   0  0  0  0  0  0  0  0  0  0  0  0
    7.9788   -3.5582   -1.5412 H   0  0  0  0  0  0  0  0  0  0  0  0
    6.4836   -4.2566   -0.9383 H   0  0  0  0  0  0  0  0  0  0  0  0
    9.2321   -2.8107    1.1653 H   0  0  0  0  0  0  0  0  0  0  0  0
    8.6725   -1.1603    1.2049 H   0  0  0  0  0  0  0  0  0  0  0  0
    9.2773   -1.9385   -0.3016 H   0  0  0  0  0  0  0  0  0  0  0  0
    6.7941   -2.2497    2.2540 H   0  0  0  0  0  0  0  0  0  0  0  0
    5.0955   -6.2693    4.1886 H   0  0  0  0  0  0  0  0  0  0  0  0
    6.7434   -5.7927    3.7641 H   0  0  0  0  0  0  0  0  0  0  0  0
    5.7307   -6.5876    2.5638 H   0  0  0  0  0  0  0  0  0  0  0  0
    4.5548   -3.9229    4.9288 H   0  0  0  0  0  0  0  0  0  0  0  0
    6.1801   -3.6814    4.7701 H   0  0  0  0  0  0  0  0  0  0  0  0
    4.4216   -1.6969    4.8005 H   0  0  0  0  0  0  0  0  0  0  0  0
    5.8748   -1.4525    4.0317 H   0  0  0  0  0  0  0  0  0  0  0  0
    4.7057   -0.5349    2.5573 H   0  0  0  0  0  0  0  0  0  0  0  0
  1  2  1  0
  1 29  1  0
  1 30  1  0
  1 31  1  0
  2 28  1  0
  2  3  1  0
  2 32  1  6
  3  4  1  0
  3 33  1  0
  3 34  1  0
  4  5  1  0
  4 35  1  0
  4 36  1  0
  5 24  1  0
  5  6  1  0
  5 37  1  6
  6  7  1  0
  6  8  1  0
  6 38  1  6
  7 39  1  0
  7 40  1  0
  7 41  1  0
  8  9  1  0
  8 16  1  0
  8 42  1  6
  9 10  1  0
  9 43  1  0
  9 44  1  0
 10 15  1  0
 10 11  2  0
 11 12  1  0
 11 45  1  0
 12 13  2  0
 12 46  1  0
 13 14  1  0
 13 47  1  0
 14 15  2  0
 14 48  1  0
 15 49  1  0
 16 22  1  0
 16 28  1  0
 16 17  1  6
 17 18  1  0
 18 19  1  0
 19 20  1  0
 19 21  1  0
 19 22  1  0
 20 50  1  0
 20 51  1  0
 20 52  1  0
 21 53  1  0
 21 54  1  0
 21 55  1  0
 22 23  1  0
 22 56  1  1
 23 24  1  0
 24 25  1  1
 24 26  1  0
 25 57  1  0
 25 58  1  0
 25 59  1  0
 26 27  1  0
 26 60  1  0
 26 61  1  0
 27 28  1  0
 27 62  1  0
 27 63  1  0
 28 64  1  6
M  END
>  <i_m_ct_stereo_status>  (160) 
1

>  <s_m_source_file>  (160) 
/var/tmp/pbs.5076255.sched01/tmp9rjncpta/544vc0qzzn.sdf

>  <i_m_source_file_index>  (160) 
21

>  <i_lp_mmshare_version>  (160) 
48012

>  <i_f3d_flags>  (160) 
0

>  <s_epik_input>  (160) 
TzFPQyhbQ0gzXSkoW0NIM10pW0NAQEhdKFtDQEBdMTIzKU9bQ0BdNChbQ0gzXSlbQ0BASF0oW0NIMl1bQ0gyXVtDQEBIXShbQ0gzXSlbQ0BIXTNbQ0gyXVtDSDJdNClbQ0BASF0oW0NIM10pW0NASF0yW0NIMl1jNVtjSF1bY0hdW2NIXVtjSF1bY0hdNQ==

>  <s_epik_cmdline>  (160) 
J2VwaWtfcHl0aG9uJywgJy1waHQnLCAnMi4wJywgJy1waCcsICc3LjAnLCAnLXRuJywgJzgnLCAnLW1hJywgJzIwMCcsICctaW1hZScsICc8aW5maWxlLm1hZT4nLCAnLW9tYWUnLCAnPG91dGZpbGUubWFlPic=

>  <r_lp_tautomer_probability>  (160) 
1

>  <r_epik_Ionization_Penalty>  (160) 
1.37176e-12

>  <r_epik_Ionization_Penalty_Charging>  (160) 
0

>  <r_epik_Ionization_Penalty_Neutral>  (160) 
1.37176e-12

>  <r_epik_State_Penalty>  (160) 
-0

>  <r_epik_Charging_Adjusted_Penalty>  (160) 
0

>  <i_epik_Tot_Q>  (160) 
0

>  <i_epik_Tot_abs_Q>  (160) 
0

>  <s_lp_Force_Field>  (160) 
OPLS3e

>  <r_lp_Energy>  (160) 
81.0414

>  <b_lp_Chiralities_Consistent>  (160) 
1

>  <s_lp_Variant>  (160) 
47:0-1

>  <s_i_glide_gridfile>  (160) 
pfpi4k_grid

>  <i_i_glide_lignum>  (160) 
21

>  <i_i_glide_rotatable_bonds>  (160) 
2

>  <r_i_docking_score>  (160) 
-2.14281

>  <r_i_glide_ligand_efficiency>  (160) 
-0.0765289

>  <r_i_glide_ligand_efficiency_sa>  (160) 
-0.232387

>  <r_i_glide_ligand_efficiency_ln>  (160) 
-0.494623

>  <r_i_glide_gscore>  (160) 
-2.14281

>  <r_i_glide_lipo>  (160) 
-0.73401

>  <r_i_glide_hbond>  (160) 
-0.131964

>  <r_i_glide_metal>  (160) 
-0

>  <r_i_glide_rewards>  (160) 
-0.787149

>  <r_i_glide_evdw>  (160) 
-11.2361

>  <r_i_glide_ecoul>  (160) 
-1.27231

>  <r_i_glide_erotb>  (160) 
0.262967

>  <r_i_glide_esite>  (160) 
0

>  <r_i_glide_emodel>  (160) 
-10.3824

>  <r_i_glide_energy>  (160) 
-12.5084

>  <r_i_glide_einternal>  (160) 
2.48626

>  <r_i_glide_intrahb_reward>  (160) 
-0

>  <i_i_glide_confnum>  (160) 
2

>  <i_i_glide_posenum>  (160) 
36

>  <r_i_glide_eff_state_penalty>  (160) 
0

>  <ligand_id>  (160) 
47

>  <original_smiles>  (160) 
CC1CCC2C(C)C(Cc3ccccc3)C34OOC(C)(C)C3OC2(C)CCC14

>  <smiles>  (160) 
[H]c1c([H])c([H])c(C([H])([H])C2([H])C([H])(C([H])([H])[H])C3([H])C([H])([H])C([H])([H])C([H])(C([H])([H])[H])C4([H])C([H])([H])C([H])([H])C3(C([H])([H])[H])OC3([H])C(C([H])([H])[H])(C([H])([H])[H])OOC324)c([H])c1[H]

$$$$
48:0:0
     RDKit          3D

 48 53  0  0  1  0  0  0  0  0999 V2000
    4.7968   -0.9061    1.6907 O   0  0  0  0  0  0  0  0  0  0  0  0
    5.0782   -2.0230    2.1217 C   0  0  0  0  0  0  0  0  0  0  0  0
    4.7364   -2.4587    3.4817 C   0  0  0  0  0  0  0  0  0  0  0  0
    5.0662   -3.6912    3.9146 C   0  0  0  0  0  0  0  0  0  0  0  0
    5.7727   -4.6774    3.1060 C   0  0  0  0  0  0  0  0  0  0  0  0
    6.1370   -4.3540    1.8380 C   0  0  0  0  0  0  0  0  0  0  0  0
    6.8673   -5.3024    1.0203 C   0  0  0  0  0  0  0  0  0  0  0  0
    7.0766   -6.5723    1.3920 C   0  0  0  0  0  0  0  0  0  0  0  0
    6.6196   -7.1218    2.7221 C   0  0  1  0  0  0  0  0  0  0  0  0
    6.1345   -6.0358    3.7273 C   0  0  2  0  0  0  0  0  0  0  0  0
    4.9631   -6.7086    4.3993 C   0  0  0  0  0  0  0  0  0  0  0  0
    4.6437   -7.8688    3.8262 C   0  0  0  0  0  0  0  0  0  0  0  0
    3.4652   -8.7710    4.1142 C   0  0  0  0  0  0  0  0  0  0  0  0
    2.5812   -8.8897    2.8499 C   0  0  1  0  0  0  0  0  0  0  0  0
    3.4334   -9.2393    1.6065 C   0  0  0  0  0  0  0  0  0  0  0  0
    4.6230   -8.2748    1.3968 C   0  0  0  0  0  0  0  0  0  0  0  0
    5.5145   -8.2132    2.6532 C   0  0  1  0  0  0  0  0  0  0  0  0
    1.3840   -9.8376    3.0474 C   0  0  0  0  0  0  0  0  0  0  0  0
    0.3241   -8.9438    3.6834 C   0  0  2  0  0  0  0  0  0  0  0  0
   -1.1119   -9.2065    3.2127 C   0  0  0  0  0  0  0  0  0  0  0  0
   -1.2800   -8.3606    2.0824 O   0  0  0  0  0  0  0  0  0  0  0  0
   -0.3192   -7.4532    1.9578 C   0  0  0  0  0  0  0  0  0  0  0  0
   -0.1868   -6.6268    1.0543 O   0  0  0  0  0  0  0  0  0  0  0  0
    0.6533   -7.5808    3.1099 C   0  0  2  0  0  0  0  0  0  0  0  0
    1.9838   -7.6177    2.6109 O   0  0  0  0  0  0  0  0  0  0  0  0
    5.8396   -2.9880    1.2104 C   0  0  0  0  0  0  0  0  0  0  0  0
    4.2351   -1.7514    4.1239 H   0  0  0  0  0  0  0  0  0  0  0  0
    4.8177   -3.9408    4.9381 H   0  0  0  0  0  0  0  0  0  0  0  0
    7.2588   -4.9713    0.0665 H   0  0  0  0  0  0  0  0  0  0  0  0
    7.6262   -7.2476    0.7540 H   0  0  0  0  0  0  0  0  0  0  0  0
    7.5051   -7.5841    3.1624 H   0  0  0  0  0  0  0  0  0  0  0  0
    6.9147   -5.8562    4.4706 H   0  0  0  0  0  0  0  0  0  0  0  0
    4.4417   -6.2720    5.2365 H   0  0  0  0  0  0  0  0  0  0  0  0
    3.8584   -9.7527    4.3629 H   0  0  0  0  0  0  0  0  0  0  0  0
    2.9082   -8.4230    4.9863 H   0  0  0  0  0  0  0  0  0  0  0  0
    3.8089  -10.2563    1.7052 H   0  0  0  0  0  0  0  0  0  0  0  0
    2.8002   -9.2334    0.7219 H   0  0  0  0  0  0  0  0  0  0  0  0
    5.2082   -8.5949    0.5356 H   0  0  0  0  0  0  0  0  0  0  0  0
    4.2415   -7.2799    1.1675 H   0  0  0  0  0  0  0  0  0  0  0  0
    5.9565   -9.1950    2.8261 H   0  0  0  0  0  0  0  0  0  0  0  0
    1.0367  -10.2020    2.0794 H   0  0  0  0  0  0  0  0  0  0  0  0
    1.6201  -10.7104    3.6598 H   0  0  0  0  0  0  0  0  0  0  0  0
    0.4162   -8.9505    4.7707 H   0  0  0  0  0  0  0  0  0  0  0  0
   -1.2794  -10.2494    2.9641 H   0  0  0  0  0  0  0  0  0  0  0  0
   -1.8233   -8.9298    3.9929 H   0  0  0  0  0  0  0  0  0  0  0  0
    0.4899   -6.7741    3.8186 H   0  0  0  0  0  0  0  0  0  0  0  0
    5.2630   -3.1301    0.2951 H   0  0  0  0  0  0  0  0  0  0  0  0
    6.7775   -2.5115    0.9123 H   0  0  0  0  0  0  0  0  0  0  0  0
  1  2  2  0
  2 26  1  0
  2  3  1  0
  3  4  2  0
  3 27  1  0
  4  5  1  0
  4 28  1  0
  5 10  1  0
  5  6  2  0
  6  7  1  0
  6 26  1  0
  7  8  2  0
  7 29  1  0
  8  9  1  0
  8 30  1  0
  9 17  1  0
  9 10  1  0
  9 31  1  1
 10 11  1  0
 10 32  1  1
 11 12  2  0
 11 33  1  0
 12 17  1  0
 12 13  1  0
 13 14  1  0
 13 34  1  0
 13 35  1  0
 14 25  1  6
 14 15  1  0
 14 18  1  0
 15 16  1  0
 15 36  1  0
 15 37  1  0
 16 17  1  0
 16 38  1  0
 16 39  1  0
 17 40  1  1
 18 19  1  0
 18 41  1  0
 18 42  1  0
 19 24  1  0
 19 20  1  0
 19 43  1  1
 20 21  1  0
 20 44  1  0
 20 45  1  0
 21 22  1  0
 22 23  2  0
 22 24  1  0
 24 25  1  0
 24 46  1  1
 26 47  1  0
 26 48  1  0
M  END
>  <i_m_ct_stereo_status>  (161) 
1

>  <s_m_source_file>  (161) 
/var/tmp/pbs.5076255.sched01/tmp9rjncpta/544vc0qzzn.sdf

>  <i_m_source_file_index>  (161) 
22

>  <i_lp_mmshare_version>  (161) 
48012

>  <i_f3d_flags>  (161) 
0

>  <s_epik_input>  (161) 
W0NIXTE9W0NIXUMoPU8pW0NIMl1DKFtDSF09W0NIXTIpPUMxW0NAQEhdKFtDSF09MylbQ0BIXTJbQ0BIXShbQ0gyXVtDSDJdNClDM1tDSDJdW0NAXTQ1W0NIMl1bQ0BIXTZbQ0BASF0oTzUpQyg9TylPW0NIMl02

>  <s_epik_cmdline>  (161) 
J2VwaWtfcHl0aG9uJywgJy1waHQnLCAnMi4wJywgJy1waCcsICc3LjAnLCAnLXRuJywgJzgnLCAnLW1hJywgJzIwMCcsICctaW1hZScsICc8aW5maWxlLm1hZT4nLCAnLW9tYWUnLCAnPG91dGZpbGUubWFlPic=

>  <r_lp_tautomer_probability>  (161) 
1

>  <r_epik_Ionization_Penalty>  (161) 
3.65732e-14

>  <r_epik_Ionization_Penalty_Charging>  (161) 
0

>  <r_epik_Ionization_Penalty_Neutral>  (161) 
3.65732e-14

>  <r_epik_State_Penalty>  (161) 
-0

>  <r_epik_Charging_Adjusted_Penalty>  (161) 
0

>  <i_epik_Tot_Q>  (161) 
0

>  <i_epik_Tot_abs_Q>  (161) 
0

>  <s_epik_Chemistry_Notes>  (161) 
This compound has an ester and may undergo hydrolysis at high or low pH.

>  <s_lp_Force_Field>  (161) 
OPLS3e

>  <r_lp_Energy>  (161) 
16.1399

>  <b_lp_Chiralities_Consistent>  (161) 
1

>  <s_lp_Variant>  (161) 
48:0-1

>  <s_i_glide_gridfile>  (161) 
pfpi4k_grid

>  <i_i_glide_lignum>  (161) 
22

>  <i_i_glide_rotatable_bonds>  (161) 
0

>  <r_i_docking_score>  (161) 
-3.64673

>  <r_i_glide_ligand_efficiency>  (161) 
-0.140259

>  <r_i_glide_ligand_efficiency_sa>  (161) 
-0.415516

>  <r_i_glide_ligand_efficiency_ln>  (161) 
-0.856422

>  <r_i_glide_gscore>  (161) 
-3.64673

>  <r_i_glide_lipo>  (161) 
-0.506965

>  <r_i_glide_hbond>  (161) 
-0.195215

>  <r_i_glide_metal>  (161) 
-0

>  <r_i_glide_rewards>  (161) 
-1.11447

>  <r_i_glide_evdw>  (161) 
-26.4135

>  <r_i_glide_ecoul>  (161) 
-2.85089

>  <r_i_glide_erotb>  (161) 
0

>  <r_i_glide_esite>  (161) 
-0.0817649

>  <r_i_glide_emodel>  (161) 
-37.0639

>  <r_i_glide_energy>  (161) 
-29.2644

>  <r_i_glide_einternal>  (161) 
0

>  <r_i_glide_intrahb_reward>  (161) 
-0

>  <i_i_glide_confnum>  (161) 
2

>  <i_i_glide_posenum>  (161) 
31

>  <r_i_glide_eff_state_penalty>  (161) 
0

>  <ligand_id>  (161) 
48

>  <original_smiles>  (161) 
O=C1C=CC2=C(C=CC3C2C=C2CC4(CCC23)CC2COC(=O)C2O4)C1

>  <smiles>  (161) 
[H]C1=C([H])C2=C(C([H])=C([H])C3([H])C2([H])C([H])=C2C([H])([H])C4(OC5([H])C(=O)OC([H])([H])C5([H])C4([H])[H])C([H])([H])C([H])([H])C23[H])C([H])([H])C1=O

$$$$
48:0:1
     RDKit          3D

 48 53  0  0  1  0  0  0  0  0999 V2000
    0.4009    1.0018    3.0975 O   0  0  0  0  0  0  0  0  0  0  0  0
    1.4482    0.3518    3.0489 C   0  0  0  0  0  0  0  0  0  0  0  0
    1.9765   -0.3664    4.2118 C   0  0  0  0  0  0  0  0  0  0  0  0
    3.1012   -1.1001    4.1163 C   0  0  0  0  0  0  0  0  0  0  0  0
    3.8739   -1.2495    2.8908 C   0  0  0  0  0  0  0  0  0  0  0  0
    3.4698   -0.5971    1.7691 C   0  0  0  0  0  0  0  0  0  0  0  0
    4.2307   -0.7209    0.5400 C   0  0  0  0  0  0  0  0  0  0  0  0
    5.2543   -1.5744    0.3943 C   0  0  0  0  0  0  0  0  0  0  0  0
    5.7487   -2.4518    1.5173 C   0  0  1  0  0  0  0  0  0  0  0  0
    5.1433   -2.1096    2.9102 C   0  0  2  0  0  0  0  0  0  0  0  0
    4.9393   -3.4729    3.5292 C   0  0  0  0  0  0  0  0  0  0  0  0
    5.1745   -4.4623    2.6658 C   0  0  0  0  0  0  0  0  0  0  0  0
    4.9598   -5.9470    2.8512 C   0  0  0  0  0  0  0  0  0  0  0  0
    3.9113   -6.4520    1.8279 C   0  0  1  0  0  0  0  0  0  0  0  0
    4.2651   -5.9756    0.3974 C   0  0  0  0  0  0  0  0  0  0  0  0
    4.4866   -4.4491    0.3042 C   0  0  0  0  0  0  0  0  0  0  0  0
    5.5658   -3.9802    1.2998 C   0  0  1  0  0  0  0  0  0  0  0  0
    3.6804   -7.9697    1.9184 C   0  0  0  0  0  0  0  0  0  0  0  0
    2.6358   -8.1063    3.0194 C   0  0  2  0  0  0  0  0  0  0  0  0
    1.5916   -9.2114    2.7908 C   0  0  0  0  0  0  0  0  0  0  0  0
    0.5483   -8.5596    2.0849 O   0  0  0  0  0  0  0  0  0  0  0  0
    0.6266   -7.2362    2.0993 C   0  0  0  0  0  0  0  0  0  0  0  0
   -0.1363   -6.4449    1.5457 O   0  0  0  0  0  0  0  0  0  0  0  0
    1.8496   -6.8161    2.9006 C   0  0  2  0  0  0  0  0  0  0  0  0
    2.6400   -5.8921    2.1574 O   0  0  0  0  0  0  0  0  0  0  0  0
    2.2224    0.2933    1.7305 C   0  0  0  0  0  0  0  0  0  0  0  0
    1.4385   -0.2789    5.1423 H   0  0  0  0  0  0  0  0  0  0  0  0
    3.4485   -1.5950    5.0126 H   0  0  0  0  0  0  0  0  0  0  0  0
    3.9579   -0.1145   -0.3117 H   0  0  0  0  0  0  0  0  0  0  0  0
    5.7814   -1.6356   -0.5455 H   0  0  0  0  0  0  0  0  0  0  0  0
    6.8198   -2.2626    1.5855 H   0  0  0  0  0  0  0  0  0  0  0  0
    5.8662   -1.5506    3.5008 H   0  0  0  0  0  0  0  0  0  0  0  0
    4.6273   -3.6090    4.5522 H   0  0  0  0  0  0  0  0  0  0  0  0
    5.9111   -6.4411    2.6602 H   0  0  0  0  0  0  0  0  0  0  0  0
    4.6863   -6.1767    3.8808 H   0  0  0  0  0  0  0  0  0  0  0  0
    5.1614   -6.4911    0.0590 H   0  0  0  0  0  0  0  0  0  0  0  0
    3.4654   -6.2546   -0.2880 H   0  0  0  0  0  0  0  0  0  0  0  0
    4.7635   -4.1793   -0.7143 H   0  0  0  0  0  0  0  0  0  0  0  0
    3.5436   -3.9406    0.5170 H   0  0  0  0  0  0  0  0  0  0  0  0
    6.5209   -4.4306    1.0278 H   0  0  0  0  0  0  0  0  0  0  0  0
    3.2806   -8.3431    0.9748 H   0  0  0  0  0  0  0  0  0  0  0  0
    4.5884   -8.5338    2.1308 H   0  0  0  0  0  0  0  0  0  0  0  0
    3.1153   -8.1860    3.9961 H   0  0  0  0  0  0  0  0  0  0  0  0
    1.9888  -10.0599    2.2342 H   0  0  0  0  0  0  0  0  0  0  0  0
    1.2086   -9.5789    3.7440 H   0  0  0  0  0  0  0  0  0  0  0  0
    1.5429   -6.4161    3.8628 H   0  0  0  0  0  0  0  0  0  0  0  0
    1.5505   -0.0734    0.9561 H   0  0  0  0  0  0  0  0  0  0  0  0
    2.5008    1.3056    1.4342 H   0  0  0  0  0  0  0  0  0  0  0  0
  1  2  2  0
  2 26  1  0
  2  3  1  0
  3  4  2  0
  3 27  1  0
  4  5  1  0
  4 28  1  0
  5 10  1  0
  5  6  2  0
  6  7  1  0
  6 26  1  0
  7  8  2  0
  7 29  1  0
  8  9  1  0
  8 30  1  0
  9 17  1  0
  9 10  1  0
  9 31  1  1
 10 11  1  0
 10 32  1  1
 11 12  2  0
 11 33  1  0
 12 17  1  0
 12 13  1  0
 13 14  1  0
 13 34  1  0
 13 35  1  0
 14 25  1  1
 14 15  1  0
 14 18  1  0
 15 16  1  0
 15 36  1  0
 15 37  1  0
 16 17  1  0
 16 38  1  0
 16 39  1  0
 17 40  1  6
 18 19  1  0
 18 41  1  0
 18 42  1  0
 19 24  1  0
 19 20  1  0
 19 43  1  1
 20 21  1  0
 20 44  1  0
 20 45  1  0
 21 22  1  0
 22 23  2  0
 22 24  1  0
 24 25  1  0
 24 46  1  1
 26 47  1  0
 26 48  1  0
M  END
>  <i_m_ct_stereo_status>  (162) 
1

>  <s_m_source_file>  (162) 
/var/tmp/pbs.5076255.sched01/tmp9rjncpta/544vc0qzzn.sdf

>  <i_m_source_file_index>  (162) 
22

>  <i_lp_mmshare_version>  (162) 
48012

>  <i_f3d_flags>  (162) 
0

>  <s_epik_input>  (162) 
W0NIXTE9W0NIXUMoPU8pW0NIMl1DKFtDSF09W0NIXTIpPUMxW0NAQEhdKFtDSF09MylbQ0BIXTJbQ0BIXShbQ0gyXVtDSDJdNClDM1tDSDJdW0NAXTQ1W0NIMl1bQ0BIXTZbQ0BASF0oTzUpQyg9TylPW0NIMl02

>  <s_epik_cmdline>  (162) 
J2VwaWtfcHl0aG9uJywgJy1waHQnLCAnMi4wJywgJy1waCcsICc3LjAnLCAnLXRuJywgJzgnLCAnLW1hJywgJzIwMCcsICctaW1hZScsICc8aW5maWxlLm1hZT4nLCAnLW9tYWUnLCAnPG91dGZpbGUubWFlPic=

>  <r_lp_tautomer_probability>  (162) 
1

>  <r_epik_Ionization_Penalty>  (162) 
3.65732e-14

>  <r_epik_Ionization_Penalty_Charging>  (162) 
0

>  <r_epik_Ionization_Penalty_Neutral>  (162) 
3.65732e-14

>  <r_epik_State_Penalty>  (162) 
-0

>  <r_epik_Charging_Adjusted_Penalty>  (162) 
0

>  <i_epik_Tot_Q>  (162) 
0

>  <i_epik_Tot_abs_Q>  (162) 
0

>  <s_epik_Chemistry_Notes>  (162) 
This compound has an ester and may undergo hydrolysis at high or low pH.

>  <s_lp_Force_Field>  (162) 
OPLS3e

>  <r_lp_Energy>  (162) 
16.1399

>  <b_lp_Chiralities_Consistent>  (162) 
1

>  <s_lp_Variant>  (162) 
48:0-1

>  <s_i_glide_gridfile>  (162) 
pfpi4k_grid

>  <i_i_glide_lignum>  (162) 
22

>  <i_i_glide_rotatable_bonds>  (162) 
0

>  <r_i_docking_score>  (162) 
-3.62564

>  <r_i_glide_ligand_efficiency>  (162) 
-0.139448

>  <r_i_glide_ligand_efficiency_sa>  (162) 
-0.413113

>  <r_i_glide_ligand_efficiency_ln>  (162) 
-0.851469

>  <r_i_glide_gscore>  (162) 
-3.62564

>  <r_i_glide_lipo>  (162) 
-0.604474

>  <r_i_glide_hbond>  (162) 
-0.310205

>  <r_i_glide_metal>  (162) 
-0

>  <r_i_glide_rewards>  (162) 
-1.01995

>  <r_i_glide_evdw>  (162) 
-24.7656

>  <r_i_glide_ecoul>  (162) 
-2.52021

>  <r_i_glide_erotb>  (162) 
0

>  <r_i_glide_esite>  (162) 
-0.074701

>  <r_i_glide_emodel>  (162) 
-35.0871

>  <r_i_glide_energy>  (162) 
-27.2858

>  <r_i_glide_einternal>  (162) 
0

>  <r_i_glide_intrahb_reward>  (162) 
-0

>  <i_i_glide_confnum>  (162) 
1

>  <i_i_glide_posenum>  (162) 
14

>  <r_i_glide_eff_state_penalty>  (162) 
0

>  <ligand_id>  (162) 
48

>  <original_smiles>  (162) 
O=C1C=CC2=C(C=CC3C2C=C2CC4(CCC23)CC2COC(=O)C2O4)C1

>  <smiles>  (162) 
[H]C1=C([H])C2=C(C([H])=C([H])C3([H])C2([H])C([H])=C2C([H])([H])C4(OC5([H])C(=O)OC([H])([H])C5([H])C4([H])[H])C([H])([H])C([H])([H])C23[H])C([H])([H])C1=O

$$$$
48:0:2
     RDKit          3D

 48 53  0  0  1  0  0  0  0  0999 V2000
   -2.1045   -0.2663    5.8316 O   0  0  0  0  0  0  0  0  0  0  0  0
   -0.9452   -0.3802    5.4265 C   0  0  0  0  0  0  0  0  0  0  0  0
    0.0889   -1.0649    6.2104 C   0  0  0  0  0  0  0  0  0  0  0  0
    1.3450   -1.1829    5.7421 C   0  0  0  0  0  0  0  0  0  0  0  0
    1.7886   -0.6654    4.4542 C   0  0  0  0  0  0  0  0  0  0  0  0
    0.8978   -0.0054    3.6659 C   0  0  0  0  0  0  0  0  0  0  0  0
    1.3128    0.5300    2.3834 C   0  0  0  0  0  0  0  0  0  0  0  0
    2.5142    0.2749    1.8465 C   0  0  0  0  0  0  0  0  0  0  0  0
    3.5719   -0.5481    2.5454 C   0  0  1  0  0  0  0  0  0  0  0  0
    3.2564   -0.8578    4.0383 C   0  0  2  0  0  0  0  0  0  0  0  0
    3.7428   -2.2809    4.1884 C   0  0  0  0  0  0  0  0  0  0  0  0
    4.1058   -2.8229    3.0256 C   0  0  0  0  0  0  0  0  0  0  0  0
    4.5185   -4.2483    2.7327 C   0  0  0  0  0  0  0  0  0  0  0  0
    3.5202   -4.8880    1.7322 C   0  0  1  0  0  0  0  0  0  0  0  0
    3.3030   -3.9660    0.5052 C   0  0  0  0  0  0  0  0  0  0  0  0
    2.9034   -2.5261    0.9012 C   0  0  0  0  0  0  0  0  0  0  0  0
    3.9330   -1.8968    1.8590 C   0  0  1  0  0  0  0  0  0  0  0  0
    3.9108   -6.3230    1.3442 C   0  0  0  0  0  0  0  0  0  0  0  0
    3.3038   -7.1712    2.4572 C   0  0  2  0  0  0  0  0  0  0  0  0
    2.7362   -8.5242    2.0024 C   0  0  0  0  0  0  0  0  0  0  0  0
    1.3873   -8.2372    1.6768 O   0  0  0  0  0  0  0  0  0  0  0  0
    0.9549   -7.0640    2.1228 C   0  0  0  0  0  0  0  0  0  0  0  0
   -0.1606   -6.5748    1.9415 O   0  0  0  0  0  0  0  0  0  0  0  0
    2.0836   -6.3672    2.8663 C   0  0  2  0  0  0  0  0  0  0  0  0
    2.2540   -5.0406    2.3743 O   0  0  0  0  0  0  0  0  0  0  0  0
   -0.5642    0.2213    4.0716 C   0  0  0  0  0  0  0  0  0  0  0  0
   -0.1802   -1.4590    7.1762 H   0  0  0  0  0  0  0  0  0  0  0  0
    2.0645   -1.6841    6.3764 H   0  0  0  0  0  0  0  0  0  0  0  0
    0.6227    1.1541    1.8237 H   0  0  0  0  0  0  0  0  0  0  0  0
    2.7759    0.6864    0.8843 H   0  0  0  0  0  0  0  0  0  0  0  0
    4.4723    0.0675    2.5403 H   0  0  0  0  0  0  0  0  0  0  0  0
    3.8581   -0.2109    4.6788 H   0  0  0  0  0  0  0  0  0  0  0  0
    3.7684   -2.7931    5.1378 H   0  0  0  0  0  0  0  0  0  0  0  0
    5.5063   -4.2128    2.2755 H   0  0  0  0  0  0  0  0  0  0  0  0
    4.6207   -4.8249    3.6526 H   0  0  0  0  0  0  0  0  0  0  0  0
    4.2127   -3.9364   -0.0907 H   0  0  0  0  0  0  0  0  0  0  0  0
    2.5302   -4.3905   -0.1347 H   0  0  0  0  0  0  0  0  0  0  0  0
    2.7969   -1.9116    0.0082 H   0  0  0  0  0  0  0  0  0  0  0  0
    1.9243   -2.5460    1.3822 H   0  0  0  0  0  0  0  0  0  0  0  0
    4.8872   -1.8000    1.3402 H   0  0  0  0  0  0  0  0  0  0  0  0
    3.4586   -6.5811    0.3855 H   0  0  0  0  0  0  0  0  0  0  0  0
    4.9877   -6.4683    1.2452 H   0  0  0  0  0  0  0  0  0  0  0  0
    4.0051   -7.2737    3.2866 H   0  0  0  0  0  0  0  0  0  0  0  0
    3.2784   -8.9491    1.1562 H   0  0  0  0  0  0  0  0  0  0  0  0
    2.7601   -9.2450    2.8199 H   0  0  0  0  0  0  0  0  0  0  0  0
    1.9000   -6.3953    3.9365 H   0  0  0  0  0  0  0  0  0  0  0  0
   -1.2171   -0.1984    3.3056 H   0  0  0  0  0  0  0  0  0  0  0  0
   -0.7710    1.2936    4.0921 H   0  0  0  0  0  0  0  0  0  0  0  0
  1  2  2  0
  2 26  1  0
  2  3  1  0
  3  4  2  0
  3 27  1  0
  4  5  1  0
  4 28  1  0
  5 10  1  0
  5  6  2  0
  6  7  1  0
  6 26  1  0
  7  8  2  0
  7 29  1  0
  8  9  1  0
  8 30  1  0
  9 17  1  0
  9 10  1  0
  9 31  1  1
 10 11  1  0
 10 32  1  1
 11 12  2  0
 11 33  1  0
 12 17  1  0
 12 13  1  0
 13 14  1  0
 13 34  1  0
 13 35  1  0
 14 25  1  1
 14 15  1  0
 14 18  1  0
 15 16  1  0
 15 36  1  0
 15 37  1  0
 16 17  1  0
 16 38  1  0
 16 39  1  0
 17 40  1  6
 18 19  1  0
 18 41  1  0
 18 42  1  0
 19 24  1  0
 19 20  1  0
 19 43  1  1
 20 21  1  0
 20 44  1  0
 20 45  1  0
 21 22  1  0
 22 23  2  0
 22 24  1  0
 24 25  1  0
 24 46  1  1
 26 47  1  0
 26 48  1  0
M  END
>  <i_m_ct_stereo_status>  (163) 
1

>  <s_m_source_file>  (163) 
/var/tmp/pbs.5076255.sched01/tmp9rjncpta/544vc0qzzn.sdf

>  <i_m_source_file_index>  (163) 
22

>  <i_lp_mmshare_version>  (163) 
48012

>  <i_f3d_flags>  (163) 
0

>  <s_epik_input>  (163) 
W0NIXTE9W0NIXUMoPU8pW0NIMl1DKFtDSF09W0NIXTIpPUMxW0NAQEhdKFtDSF09MylbQ0BIXTJbQ0BIXShbQ0gyXVtDSDJdNClDM1tDSDJdW0NAXTQ1W0NIMl1bQ0BIXTZbQ0BASF0oTzUpQyg9TylPW0NIMl02

>  <s_epik_cmdline>  (163) 
J2VwaWtfcHl0aG9uJywgJy1waHQnLCAnMi4wJywgJy1waCcsICc3LjAnLCAnLXRuJywgJzgnLCAnLW1hJywgJzIwMCcsICctaW1hZScsICc8aW5maWxlLm1hZT4nLCAnLW9tYWUnLCAnPG91dGZpbGUubWFlPic=

>  <r_lp_tautomer_probability>  (163) 
1

>  <r_epik_Ionization_Penalty>  (163) 
3.65732e-14

>  <r_epik_Ionization_Penalty_Charging>  (163) 
0

>  <r_epik_Ionization_Penalty_Neutral>  (163) 
3.65732e-14

>  <r_epik_State_Penalty>  (163) 
-0

>  <r_epik_Charging_Adjusted_Penalty>  (163) 
0

>  <i_epik_Tot_Q>  (163) 
0

>  <i_epik_Tot_abs_Q>  (163) 
0

>  <s_epik_Chemistry_Notes>  (163) 
This compound has an ester and may undergo hydrolysis at high or low pH.

>  <s_lp_Force_Field>  (163) 
OPLS3e

>  <r_lp_Energy>  (163) 
16.1399

>  <b_lp_Chiralities_Consistent>  (163) 
1

>  <s_lp_Variant>  (163) 
48:0-1

>  <s_i_glide_gridfile>  (163) 
pfpi4k_grid

>  <i_i_glide_lignum>  (163) 
22

>  <i_i_glide_rotatable_bonds>  (163) 
0

>  <r_i_docking_score>  (163) 
-3.44745

>  <r_i_glide_ligand_efficiency>  (163) 
-0.132594

>  <r_i_glide_ligand_efficiency_sa>  (163) 
-0.39281

>  <r_i_glide_ligand_efficiency_ln>  (163) 
-0.809623

>  <r_i_glide_gscore>  (163) 
-3.44745

>  <r_i_glide_lipo>  (163) 
-0.0925886

>  <r_i_glide_hbond>  (163) 
-0.345742

>  <r_i_glide_metal>  (163) 
-0

>  <r_i_glide_rewards>  (163) 
-1.01995

>  <r_i_glide_evdw>  (163) 
-25.4247

>  <r_i_glide_ecoul>  (163) 
-4.21438

>  <r_i_glide_erotb>  (163) 
0

>  <r_i_glide_esite>  (163) 
-0.0857836

>  <r_i_glide_emodel>  (163) 
-37.0588

>  <r_i_glide_energy>  (163) 
-29.639

>  <r_i_glide_einternal>  (163) 
0

>  <r_i_glide_intrahb_reward>  (163) 
-0

>  <i_i_glide_confnum>  (163) 
2

>  <i_i_glide_posenum>  (163) 
22

>  <r_i_glide_eff_state_penalty>  (163) 
0

>  <ligand_id>  (163) 
48

>  <original_smiles>  (163) 
O=C1C=CC2=C(C=CC3C2C=C2CC4(CCC23)CC2COC(=O)C2O4)C1

>  <smiles>  (163) 
[H]C1=C([H])C2=C(C([H])=C([H])C3([H])C2([H])C([H])=C2C([H])([H])C4(OC5([H])C(=O)OC([H])([H])C5([H])C4([H])[H])C([H])([H])C([H])([H])C23[H])C([H])([H])C1=O

$$$$
49:0:0
     RDKit          3D

 93 98  0  0  1  0  0  0  0  0999 V2000
    5.8475   -4.7824    2.4949 C   0  0  0  0  0  0  0  0  0  0  0  0
    4.6902   -4.0980    2.3609 C   0  0  0  0  0  0  0  0  0  0  0  0
    3.3768   -4.9537    2.3517 C   0  0  2  0  0  0  0  0  0  0  0  0
    3.6625   -6.1716    1.3991 C   0  0  0  0  0  0  0  0  0  0  0  0
    2.2442   -4.2078    1.6061 C   0  0  0  0  0  0  0  0  0  0  0  0
    2.6766   -3.0966    0.6623 C   0  0  0  0  0  0  0  0  0  0  0  0
    3.4527   -1.9371    1.3106 C   0  0  2  0  0  0  0  0  0  0  0  0
    3.8290   -1.0560    0.0794 C   0  0  0  0  0  0  0  0  0  0  0  0
    4.7008   -2.5366    2.0760 C   0  0  2  0  0  0  0  0  0  0  0  0
    6.0518   -2.1111    1.4129 C   0  0  0  0  0  0  0  0  0  0  0  0
    4.5444   -1.8028    3.4213 C   0  0  0  0  0  0  0  0  0  0  0  0
    5.4176   -1.2948    4.0870 O   0  0  0  0  0  0  0  0  0  0  0  0
    3.1054   -1.5937    3.7595 C   0  0  2  0  0  0  0  0  0  0  0  0
    2.5769   -2.8767    4.0206 O   0  0  0  0  0  0  0  0  0  0  0  0
    2.5287   -3.4337    5.2823 C   0  0  1  0  0  0  0  0  0  0  0  0
    1.1683   -3.4056    5.6404 O   0  0  0  0  0  0  0  0  0  0  0  0
    3.2068   -4.8986    5.2251 C   0  0  2  0  0  0  0  0  0  0  0  0
    4.7182   -4.5787    5.4085 C   0  0  0  0  0  0  0  0  0  0  0  0
    2.8704   -5.5575    3.7843 C   0  0  1  0  0  0  0  0  0  0  0  0
    1.3467   -5.9743    3.8020 C   0  0  1  0  0  0  0  0  0  0  0  0
    0.8792   -6.6900    2.6698 O   0  0  0  0  0  0  0  0  0  0  0  0
    0.8828   -6.7508    5.0526 C   0  0  0  0  0  0  0  0  0  0  0  0
    2.0157   -7.1716    6.0006 C   0  0  1  0  0  0  0  0  0  0  0  0
    2.8420   -8.3990    5.5151 C   0  0  0  0  0  0  0  0  0  0  0  0
    2.5882   -9.0563    4.3650 C   0  0  0  0  0  0  0  0  0  0  0  0
    3.3041  -10.2923    3.8388 C   0  0  0  0  0  0  0  0  0  0  0  0
    2.2536  -11.3061    3.3477 C   0  0  0  0  0  0  0  0  0  0  0  0
    4.1977   -9.8642    2.6571 C   0  0  0  0  0  0  0  0  0  0  0  0
    4.1426  -10.9514    4.9506 C   0  0  0  0  0  0  0  0  0  0  0  0
    4.9012   -9.9145    5.7791 C   0  0  0  0  0  0  0  0  0  0  0  0
    3.9657   -8.8699    6.4510 C   0  0  2  0  0  0  0  0  0  0  0  0
    3.3555   -9.5188    7.7172 C   0  0  0  0  0  0  0  0  0  0  0  0
    4.8293   -7.6502    6.8041 C   0  0  0  0  0  0  0  0  0  0  0  0
    4.0135   -6.4757    7.3579 C   0  0  0  0  0  0  0  0  0  0  0  0
    2.8201   -5.9083    6.4838 C   0  0  1  0  0  0  0  0  0  0  0  0
    1.9716   -5.2144    7.6013 C   0  0  0  0  0  0  0  0  0  0  0  0
    2.6443   -1.0577    2.3936 C   0  0  0  0  0  0  0  0  0  0  0  0
    3.0088    0.4591    2.3394 C   0  0  0  0  0  0  0  0  0  0  0  0
    1.1076   -1.0617    2.3075 C   0  0  0  0  0  0  0  0  0  0  0  0
    6.8160   -4.3276    2.4571 H   0  0  0  0  0  0  0  0  0  0  0  0
    5.8634   -5.8378    2.7097 H   0  0  0  0  0  0  0  0  0  0  0  0
    2.7750   -6.7212    1.0941 H   0  0  0  0  0  0  0  0  0  0  0  0
    4.3228   -6.9260    1.8279 H   0  0  0  0  0  0  0  0  0  0  0  0
    4.1248   -5.8348    0.4687 H   0  0  0  0  0  0  0  0  0  0  0  0
    1.6786   -4.9120    1.0025 H   0  0  0  0  0  0  0  0  0  0  0  0
    1.5035   -3.8255    2.2843 H   0  0  0  0  0  0  0  0  0  0  0  0
    3.2854   -3.5519   -0.1204 H   0  0  0  0  0  0  0  0  0  0  0  0
    1.8143   -2.6922    0.1472 H   0  0  0  0  0  0  0  0  0  0  0  0
    4.4434   -0.1817    0.3009 H   0  0  0  0  0  0  0  0  0  0  0  0
    2.9364   -0.6675   -0.3934 H   0  0  0  0  0  0  0  0  0  0  0  0
    4.3564   -1.6239   -0.6891 H   0  0  0  0  0  0  0  0  0  0  0  0
    6.9102   -2.3395    2.0271 H   0  0  0  0  0  0  0  0  0  0  0  0
    6.1387   -1.0407    1.2580 H   0  0  0  0  0  0  0  0  0  0  0  0
    6.2079   -2.6113    0.4541 H   0  0  0  0  0  0  0  0  0  0  0  0
    2.9820   -0.8825    4.5856 H   0  0  0  0  0  0  0  0  0  0  0  0
    3.0454   -2.7905    5.9975 H   0  0  0  0  0  0  0  0  0  0  0  0
    0.9135   -2.4990    5.7037 H   0  0  0  0  0  0  0  0  0  0  0  0
    5.3566   -5.4307    5.2059 H   0  0  0  0  0  0  0  0  0  0  0  0
    4.9392   -4.1791    6.3961 H   0  0  0  0  0  0  0  0  0  0  0  0
    5.0962   -3.7969    4.7880 H   0  0  0  0  0  0  0  0  0  0  0  0
    3.4423   -6.4797    3.8301 H   0  0  0  0  0  0  0  0  0  0  0  0
    0.7399   -5.0695    3.7884 H   0  0  0  0  0  0  0  0  0  0  0  0
    1.3358   -7.5155    2.6209 H   0  0  0  0  0  0  0  0  0  0  0  0
    0.1912   -6.1142    5.5977 H   0  0  0  0  0  0  0  0  0  0  0  0
    0.2634   -7.6076    4.7939 H   0  0  0  0  0  0  0  0  0  0  0  0
    1.5101   -7.5686    6.8736 H   0  0  0  0  0  0  0  0  0  0  0  0
    1.7800   -8.7578    3.7247 H   0  0  0  0  0  0  0  0  0  0  0  0
    2.7189  -12.2182    2.9706 H   0  0  0  0  0  0  0  0  0  0  0  0
    1.6371  -10.8942    2.5479 H   0  0  0  0  0  0  0  0  0  0  0  0
    1.5820  -11.5951    4.1579 H   0  0  0  0  0  0  0  0  0  0  0  0
    4.7632  -10.7038    2.2521 H   0  0  0  0  0  0  0  0  0  0  0  0
    4.9158   -9.1017    2.9575 H   0  0  0  0  0  0  0  0  0  0  0  0
    3.6082   -9.4467    1.8404 H   0  0  0  0  0  0  0  0  0  0  0  0
    3.4980  -11.5374    5.6094 H   0  0  0  0  0  0  0  0  0  0  0  0
    4.8402  -11.6668    4.5158 H   0  0  0  0  0  0  0  0  0  0  0  0
    5.5024  -10.4199    6.5328 H   0  0  0  0  0  0  0  0  0  0  0  0
    5.6171   -9.4197    5.1262 H   0  0  0  0  0  0  0  0  0  0  0  0
    4.1248   -9.8669    8.4063 H   0  0  0  0  0  0  0  0  0  0  0  0
    2.7438  -10.3807    7.4563 H   0  0  0  0  0  0  0  0  0  0  0  0
    2.7043   -8.8492    8.2759 H   0  0  0  0  0  0  0  0  0  0  0  0
    5.5757   -7.9426    7.5456 H   0  0  0  0  0  0  0  0  0  0  0  0
    5.4048   -7.3529    5.9289 H   0  0  0  0  0  0  0  0  0  0  0  0
    3.6307   -6.8579    8.3008 H   0  0  0  0  0  0  0  0  0  0  0  0
    4.6863   -5.7058    7.7137 H   0  0  0  0  0  0  0  0  0  0  0  0
    1.8573   -5.8286    8.4929 H   0  0  0  0  0  0  0  0  0  0  0  0
    0.9369   -5.0301    7.3209 H   0  0  0  0  0  0  0  0  0  0  0  0
    2.4175   -4.2737    7.9310 H   0  0  0  0  0  0  0  0  0  0  0  0
    2.5868    0.9997    3.1888 H   0  0  0  0  0  0  0  0  0  0  0  0
    2.6084    0.9379    1.4446 H   0  0  0  0  0  0  0  0  0  0  0  0
    4.0813    0.6492    2.3634 H   0  0  0  0  0  0  0  0  0  0  0  0
    0.6695   -0.2946    2.9512 H   0  0  0  0  0  0  0  0  0  0  0  0
    0.6487   -1.9951    2.6182 H   0  0  0  0  0  0  0  0  0  0  0  0
    0.7872   -0.8424    1.2910 H   0  0  0  0  0  0  0  0  0  0  0  0
  1  2  2  0
  1 40  1  0
  1 41  1  0
  2  9  1  0
  2  3  1  0
  3 19  1  0
  3  4  1  6
  3  5  1  0
  4 42  1  0
  4 43  1  0
  4 44  1  0
  5  6  1  0
  5 45  1  0
  5 46  1  0
  6  7  1  0
  6 47  1  0
  6 48  1  0
  7 37  1  0
  7  8  1  6
  7  9  1  0
  8 49  1  0
  8 50  1  0
  8 51  1  0
  9 10  1  6
  9 11  1  0
 10 52  1  0
 10 53  1  0
 10 54  1  0
 11 12  2  0
 11 13  1  0
 13 14  1  0
 13 37  1  0
 13 55  1  1
 14 15  1  0
 15 16  1  0
 15 17  1  0
 15 56  1  1
 16 57  1  0
 17 35  1  0
 17 18  1  6
 17 19  1  0
 18 58  1  0
 18 59  1  0
 18 60  1  0
 19 20  1  0
 19 61  1  1
 20 21  1  0
 20 22  1  0
 20 62  1  1
 21 63  1  0
 22 23  1  0
 22 64  1  0
 22 65  1  0
 23 35  1  0
 23 24  1  0
 23 66  1  1
 24 31  1  0
 24 25  2  0
 25 26  1  0
 25 67  1  0
 26 27  1  0
 26 28  1  0
 26 29  1  0
 27 68  1  0
 27 69  1  0
 27 70  1  0
 28 71  1  0
 28 72  1  0
 28 73  1  0
 29 30  1  0
 29 74  1  0
 29 75  1  0
 30 31  1  0
 30 76  1  0
 30 77  1  0
 31 32  1  1
 31 33  1  0
 32 78  1  0
 32 79  1  0
 32 80  1  0
 33 34  1  0
 33 81  1  0
 33 82  1  0
 34 35  1  0
 34 83  1  0
 34 84  1  0
 35 36  1  1
 36 85  1  0
 36 86  1  0
 36 87  1  0
 37 38  1  0
 37 39  1  0
 38 88  1  0
 38 89  1  0
 38 90  1  0
 39 91  1  0
 39 92  1  0
 39 93  1  0
M  END
>  <i_m_ct_stereo_status>  (164) 
1

>  <s_m_source_file>  (164) 
/var/tmp/pbs.5076255.sched01/tmp9rjncpta/544vc0qzzn.sdf

>  <i_m_source_file_index>  (164) 
23

>  <i_lp_mmshare_version>  (164) 
48012

>  <i_f3d_flags>  (164) 
0

>  <s_epik_input>  (164) 
W0NIMl0xW0NIMl1bQ0BAXShbQ0gzXSkoQzIoW0NIM10pW0NIM10pW0NAXShbQ0gzXSkoQzM9W0NIMl0pQyg9TylbQ0BIXTJPW0NAQEhdKFtPSF0pW0NAXShbQ0gzXSkoW0NIXTRbQ0BAXTEzW0NIM10pW0NAQF01KFtDSDNdKVtDQEBIXShbQ0gyXVtDQEBIXTRbT0hdKUM9NltDQF0oW0NIM10pKFtDSDJdW0NIMl01KVtDSDJdW0NIMl1DKFtDSF02KShbQ0gzXSlbQ0gzXQ==

>  <s_epik_cmdline>  (164) 
J2VwaWtfcHl0aG9uJywgJy1waHQnLCAnMi4wJywgJy1waCcsICc3LjAnLCAnLXRuJywgJzgnLCAnLW1hJywgJzIwMCcsICctaW1hZScsICc8aW5maWxlLm1hZT4nLCAnLW9tYWUnLCAnPG91dGZpbGUubWFlPic=

>  <r_lp_tautomer_probability>  (164) 
1

>  <r_epik_Ionization_Penalty>  (164) 
9.57555e-07

>  <r_epik_Ionization_Penalty_Charging>  (164) 
0

>  <r_epik_Ionization_Penalty_Neutral>  (164) 
9.57555e-07

>  <r_epik_State_Penalty>  (164) 
-0

>  <r_epik_Charging_Adjusted_Penalty>  (164) 
0

>  <i_epik_Tot_Q>  (164) 
0

>  <i_epik_Tot_abs_Q>  (164) 
0

>  <s_epik_Chemistry_Notes>  (164) 
This compound contains an acetal/aminal-like group ( X-CH(R)-Y where X, Y are N, S, or O) that may be acid/base labile, releasing an aldehyde.

>  <s_lp_Force_Field>  (164) 
OPLS3e

>  <r_lp_Energy>  (164) 
160.698

>  <b_lp_Chiralities_Consistent>  (164) 
1

>  <s_lp_Variant>  (164) 
49:0-1

>  <s_i_glide_gridfile>  (164) 
pfpi4k_grid

>  <i_i_glide_lignum>  (164) 
23

>  <i_i_glide_rotatable_bonds>  (164) 
2

>  <r_i_docking_score>  (164) 
-1.89725

>  <r_i_glide_ligand_efficiency>  (164) 
-0.0486473

>  <r_i_glide_ligand_efficiency_sa>  (164) 
-0.164973

>  <r_i_glide_ligand_efficiency_ln>  (164) 
-0.406823

>  <r_i_glide_gscore>  (164) 
-1.89725

>  <r_i_glide_lipo>  (164) 
-0.41307

>  <r_i_glide_hbond>  (164) 
0

>  <r_i_glide_metal>  (164) 
-0

>  <r_i_glide_rewards>  (164) 
-0.0464738

>  <r_i_glide_evdw>  (164) 
-23.4855

>  <r_i_glide_ecoul>  (164) 
-1.75617

>  <r_i_glide_erotb>  (164) 
0

>  <r_i_glide_esite>  (164) 
0

>  <r_i_glide_emodel>  (164) 
-27.8485

>  <r_i_glide_energy>  (164) 
-25.2417

>  <r_i_glide_einternal>  (164) 
0.3386

>  <r_i_glide_intrahb_reward>  (164) 
-0

>  <i_i_glide_confnum>  (164) 
1

>  <i_i_glide_posenum>  (164) 
15

>  <r_i_glide_eff_state_penalty>  (164) 
0

>  <ligand_id>  (164) 
49

>  <original_smiles>  (164) 
C=C1C2(C)CCC3(C)C1(C)C(=O)C(OC(O)C1(C)C2C(O)CC2C4=CC(C)(C)CCC4(C)CCC21C)C3(C)C

>  <smiles>  (164) 
[H]OC1([H])OC2([H])C(=O)C3(C([H])([H])[H])C(=C([H])[H])C(C([H])([H])[H])(C([H])([H])C([H])([H])C3(C([H])([H])[H])C2(C([H])([H])[H])C([H])([H])[H])C2([H])C([H])(O[H])C([H])([H])C3([H])C4=C([H])C(C([H])([H])[H])(C([H])([H])[H])C([H])([H])C([H])([H])C4(C([H])([H])[H])C([H])([H])C([H])([H])C3(C([H])([H])[H])C12C([H])([H])[H]

$$$$
49:0:1
     RDKit          3D

 93 98  0  0  1  0  0  0  0  0999 V2000
    0.7904   -2.9608    4.0027 C   0  0  0  0  0  0  0  0  0  0  0  0
    1.9036   -2.6547    3.2933 C   0  0  0  0  0  0  0  0  0  0  0  0
    2.1521   -1.1349    2.9549 C   0  0  2  0  0  0  0  0  0  0  0  0
    0.7918   -0.5896    2.4189 C   0  0  0  0  0  0  0  0  0  0  0  0
    3.0859   -0.9737    1.7146 C   0  0  0  0  0  0  0  0  0  0  0  0
    3.2217   -2.1957    0.8221 C   0  0  0  0  0  0  0  0  0  0  0  0
    3.7573   -3.4744    1.5047 C   0  0  2  0  0  0  0  0  0  0  0  0
    3.6724   -4.5215    0.3499 C   0  0  0  0  0  0  0  0  0  0  0  0
    2.8488   -3.8154    2.7676 C   0  0  2  0  0  0  0  0  0  0  0  0
    2.0582   -5.1523    2.5966 C   0  0  0  0  0  0  0  0  0  0  0  0
    3.9182   -4.0598    3.8293 C   0  0  0  0  0  0  0  0  0  0  0  0
    3.8772   -4.9082    4.7207 O   0  0  0  0  0  0  0  0  0  0  0  0
    5.1013   -3.1647    3.5814 C   0  0  2  0  0  0  0  0  0  0  0  0
    4.6809   -1.8349    3.8281 O   0  0  0  0  0  0  0  0  0  0  0  0
    4.8110   -1.2123    5.0588 C   0  0  1  0  0  0  0  0  0  0  0  0
    5.8029   -0.2344    4.8881 O   0  0  0  0  0  0  0  0  0  0  0  0
    3.3699   -0.6567    5.5177 C   0  0  2  0  0  0  0  0  0  0  0  0
    2.7126   -1.8956    6.1820 C   0  0  0  0  0  0  0  0  0  0  0  0
    2.5806   -0.1628    4.1941 C   0  0  1  0  0  0  0  0  0  0  0  0
    3.2379    1.1940    3.7289 C   0  0  1  0  0  0  0  0  0  0  0  0
    2.5842    1.8665    2.6755 O   0  0  0  0  0  0  0  0  0  0  0  0
    3.4767    2.2407    4.8322 C   0  0  0  0  0  0  0  0  0  0  0  0
    2.8390    1.8889    6.1832 C   0  0  1  0  0  0  0  0  0  0  0  0
    1.3004    2.1146    6.2532 C   0  0  0  0  0  0  0  0  0  0  0  0
    0.5714    2.5880    5.2147 C   0  0  0  0  0  0  0  0  0  0  0  0
   -0.9168    2.8918    5.2129 C   0  0  0  0  0  0  0  0  0  0  0  0
   -1.1391    4.2620    4.5526 C   0  0  0  0  0  0  0  0  0  0  0  0
   -1.6229    1.8054    4.3832 C   0  0  0  0  0  0  0  0  0  0  0  0
   -1.4721    2.9366    6.6516 C   0  0  0  0  0  0  0  0  0  0  0  0
   -0.9181    1.7989    7.5081 C   0  0  0  0  0  0  0  0  0  0  0  0
    0.6338    1.8053    7.5995 C   0  0  2  0  0  0  0  0  0  0  0  0
    1.0483    2.8705    8.6467 C   0  0  0  0  0  0  0  0  0  0  0  0
    1.0665    0.3954    8.0279 C   0  0  0  0  0  0  0  0  0  0  0  0
    2.5900    0.2061    8.0327 C   0  0  0  0  0  0  0  0  0  0  0  0
    3.3911    0.5066    6.6991 C   0  0  1  0  0  0  0  0  0  0  0  0
    4.8169    0.7659    7.2901 C   0  0  0  0  0  0  0  0  0  0  0  0
    5.2614   -3.3880    2.0521 C   0  0  0  0  0  0  0  0  0  0  0  0
    6.0607   -4.7180    1.8684 C   0  0  0  0  0  0  0  0  0  0  0  0
    6.1640   -2.3232    1.3759 C   0  0  0  0  0  0  0  0  0  0  0  0
    0.5192   -3.9607    4.2906 H   0  0  0  0  0  0  0  0  0  0  0  0
    0.1291   -2.1942    4.3696 H   0  0  0  0  0  0  0  0  0  0  0  0
    0.8480    0.3715    1.9107 H   0  0  0  0  0  0  0  0  0  0  0  0
    0.0170   -0.4741    3.1763 H   0  0  0  0  0  0  0  0  0  0  0  0
    0.4259   -1.2752    1.6609 H   0  0  0  0  0  0  0  0  0  0  0  0
    2.7421   -0.1697    1.0642 H   0  0  0  0  0  0  0  0  0  0  0  0
    4.0678   -0.6329    1.9892 H   0  0  0  0  0  0  0  0  0  0  0  0
    2.2323   -2.4045    0.4107 H   0  0  0  0  0  0  0  0  0  0  0  0
    3.8408   -1.9382   -0.0379 H   0  0  0  0  0  0  0  0  0  0  0  0
    3.9690   -5.5324    0.6262 H   0  0  0  0  0  0  0  0  0  0  0  0
    4.3169   -4.2311   -0.4802 H   0  0  0  0  0  0  0  0  0  0  0  0
    2.6635   -4.6000   -0.0563 H   0  0  0  0  0  0  0  0  0  0  0  0
    1.6091   -5.5116    3.5196 H   0  0  0  0  0  0  0  0  0  0  0  0
    2.6925   -5.9810    2.2916 H   0  0  0  0  0  0  0  0  0  0  0  0
    1.2630   -5.0633    1.8616 H   0  0  0  0  0  0  0  0  0  0  0  0
    5.9722   -3.4456    4.1727 H   0  0  0  0  0  0  0  0  0  0  0  0
    5.2045   -1.9199    5.7906 H   0  0  0  0  0  0  0  0  0  0  0  0
    5.4588    0.4156    4.3007 H   0  0  0  0  0  0  0  0  0  0  0  0
    1.6531   -1.7692    6.3769 H   0  0  0  0  0  0  0  0  0  0  0  0
    3.2269   -2.1945    7.0947 H   0  0  0  0  0  0  0  0  0  0  0  0
    2.7820   -2.7992    5.6178 H   0  0  0  0  0  0  0  0  0  0  0  0
    1.6083    0.1017    4.6018 H   0  0  0  0  0  0  0  0  0  0  0  0
    4.2131    0.9734    3.3062 H   0  0  0  0  0  0  0  0  0  0  0  0
    3.1866    2.5016    2.3126 H   0  0  0  0  0  0  0  0  0  0  0  0
    4.5514    2.3469    4.9644 H   0  0  0  0  0  0  0  0  0  0  0  0
    3.1710    3.2397    4.5181 H   0  0  0  0  0  0  0  0  0  0  0  0
    3.2160    2.6475    6.8657 H   0  0  0  0  0  0  0  0  0  0  0  0
    1.0381    2.8240    4.2781 H   0  0  0  0  0  0  0  0  0  0  0  0
   -2.1988    4.5138    4.5392 H   0  0  0  0  0  0  0  0  0  0  0  0
   -0.7770    4.2795    3.5221 H   0  0  0  0  0  0  0  0  0  0  0  0
   -0.6135    5.0475    5.0989 H   0  0  0  0  0  0  0  0  0  0  0  0
   -2.6983    1.9684    4.3550 H   0  0  0  0  0  0  0  0  0  0  0  0
   -1.4416    0.8099    4.7907 H   0  0  0  0  0  0  0  0  0  0  0  0
   -1.2694    1.8014    3.3505 H   0  0  0  0  0  0  0  0  0  0  0  0
   -1.2232    3.8883    7.1226 H   0  0  0  0  0  0  0  0  0  0  0  0
   -2.5606    2.8959    6.6344 H   0  0  0  0  0  0  0  0  0  0  0  0
   -1.3536    1.8452    8.5076 H   0  0  0  0  0  0  0  0  0  0  0  0
   -1.2686    0.8601    7.0840 H   0  0  0  0  0  0  0  0  0  0  0  0
    0.5942    2.6757    9.6193 H   0  0  0  0  0  0  0  0  0  0  0  0
    0.7375    3.8667    8.3368 H   0  0  0  0  0  0  0  0  0  0  0  0
    2.1239    2.9220    8.8034 H   0  0  0  0  0  0  0  0  0  0  0  0
    0.6856    0.1896    9.0295 H   0  0  0  0  0  0  0  0  0  0  0  0
    0.5865   -0.3369    7.3858 H   0  0  0  0  0  0  0  0  0  0  0  0
    2.9210    0.8779    8.8196 H   0  0  0  0  0  0  0  0  0  0  0  0
    2.8362   -0.7547    8.4720 H   0  0  0  0  0  0  0  0  0  0  0  0
    4.8056    1.4057    8.1717 H   0  0  0  0  0  0  0  0  0  0  0  0
    5.4798    1.3153    6.6288 H   0  0  0  0  0  0  0  0  0  0  0  0
    5.3092   -0.1606    7.5871 H   0  0  0  0  0  0  0  0  0  0  0  0
    7.0141   -4.6835    2.3977 H   0  0  0  0  0  0  0  0  0  0  0  0
    6.3021   -4.9049    0.8212 H   0  0  0  0  0  0  0  0  0  0  0  0
    5.5383   -5.5979    2.2485 H   0  0  0  0  0  0  0  0  0  0  0  0
    7.2016   -2.4912    1.6495 H   0  0  0  0  0  0  0  0  0  0  0  0
    5.9606   -1.2992    1.6735 H   0  0  0  0  0  0  0  0  0  0  0  0
    6.1155   -2.3847    0.2887 H   0  0  0  0  0  0  0  0  0  0  0  0
  1  2  2  0
  1 40  1  0
  1 41  1  0
  2  9  1  0
  2  3  1  0
  3 19  1  0
  3  4  1  6
  3  5  1  0
  4 42  1  0
  4 43  1  0
  4 44  1  0
  5  6  1  0
  5 45  1  0
  5 46  1  0
  6  7  1  0
  6 47  1  0
  6 48  1  0
  7 37  1  0
  7  8  1  6
  7  9  1  0
  8 49  1  0
  8 50  1  0
  8 51  1  0
  9 10  1  6
  9 11  1  0
 10 52  1  0
 10 53  1  0
 10 54  1  0
 11 12  2  0
 11 13  1  0
 13 14  1  0
 13 37  1  0
 13 55  1  1
 14 15  1  0
 15 16  1  0
 15 17  1  0
 15 56  1  1
 16 57  1  0
 17 35  1  0
 17 18  1  1
 17 19  1  0
 18 58  1  0
 18 59  1  0
 18 60  1  0
 19 20  1  0
 19 61  1  1
 20 21  1  0
 20 22  1  0
 20 62  1  6
 21 63  1  0
 22 23  1  0
 22 64  1  0
 22 65  1  0
 23 35  1  0
 23 24  1  0
 23 66  1  1
 24 31  1  0
 24 25  2  0
 25 26  1  0
 25 67  1  0
 26 27  1  0
 26 28  1  0
 26 29  1  0
 27 68  1  0
 27 69  1  0
 27 70  1  0
 28 71  1  0
 28 72  1  0
 28 73  1  0
 29 30  1  0
 29 74  1  0
 29 75  1  0
 30 31  1  0
 30 76  1  0
 30 77  1  0
 31 32  1  1
 31 33  1  0
 32 78  1  0
 32 79  1  0
 32 80  1  0
 33 34  1  0
 33 81  1  0
 33 82  1  0
 34 35  1  0
 34 83  1  0
 34 84  1  0
 35 36  1  1
 36 85  1  0
 36 86  1  0
 36 87  1  0
 37 38  1  0
 37 39  1  0
 38 88  1  0
 38 89  1  0
 38 90  1  0
 39 91  1  0
 39 92  1  0
 39 93  1  0
M  END
>  <i_m_ct_stereo_status>  (165) 
1

>  <s_m_source_file>  (165) 
/var/tmp/pbs.5076255.sched01/tmp9rjncpta/544vc0qzzn.sdf

>  <i_m_source_file_index>  (165) 
23

>  <i_lp_mmshare_version>  (165) 
48012

>  <i_f3d_flags>  (165) 
0

>  <s_epik_input>  (165) 
W0NIMl0xW0NIMl1bQ0BAXShbQ0gzXSkoQzIoW0NIM10pW0NIM10pW0NAXShbQ0gzXSkoQzM9W0NIMl0pQyg9TylbQ0BIXTJPW0NAQEhdKFtPSF0pW0NAXShbQ0gzXSkoW0NIXTRbQ0BAXTEzW0NIM10pW0NAQF01KFtDSDNdKVtDQEBIXShbQ0gyXVtDQEBIXTRbT0hdKUM9NltDQF0oW0NIM10pKFtDSDJdW0NIMl01KVtDSDJdW0NIMl1DKFtDSF02KShbQ0gzXSlbQ0gzXQ==

>  <s_epik_cmdline>  (165) 
J2VwaWtfcHl0aG9uJywgJy1waHQnLCAnMi4wJywgJy1waCcsICc3LjAnLCAnLXRuJywgJzgnLCAnLW1hJywgJzIwMCcsICctaW1hZScsICc8aW5maWxlLm1hZT4nLCAnLW9tYWUnLCAnPG91dGZpbGUubWFlPic=

>  <r_lp_tautomer_probability>  (165) 
1

>  <r_epik_Ionization_Penalty>  (165) 
9.57555e-07

>  <r_epik_Ionization_Penalty_Charging>  (165) 
0

>  <r_epik_Ionization_Penalty_Neutral>  (165) 
9.57555e-07

>  <r_epik_State_Penalty>  (165) 
-0

>  <r_epik_Charging_Adjusted_Penalty>  (165) 
0

>  <i_epik_Tot_Q>  (165) 
0

>  <i_epik_Tot_abs_Q>  (165) 
0

>  <s_epik_Chemistry_Notes>  (165) 
This compound contains an acetal/aminal-like group ( X-CH(R)-Y where X, Y are N, S, or O) that may be acid/base labile, releasing an aldehyde.

>  <s_lp_Force_Field>  (165) 
OPLS3e

>  <r_lp_Energy>  (165) 
160.698

>  <b_lp_Chiralities_Consistent>  (165) 
1

>  <s_lp_Variant>  (165) 
49:0-1

>  <s_i_glide_gridfile>  (165) 
pfpi4k_grid

>  <i_i_glide_lignum>  (165) 
23

>  <i_i_glide_rotatable_bonds>  (165) 
2

>  <r_i_docking_score>  (165) 
-1.87172

>  <r_i_glide_ligand_efficiency>  (165) 
-0.0479928

>  <r_i_glide_ligand_efficiency_sa>  (165) 
-0.162754

>  <r_i_glide_ligand_efficiency_ln>  (165) 
-0.40135

>  <r_i_glide_gscore>  (165) 
-1.87172

>  <r_i_glide_lipo>  (165) 
-0.349752

>  <r_i_glide_hbond>  (165) 
-0.0844369

>  <r_i_glide_metal>  (165) 
-0

>  <r_i_glide_rewards>  (165) 
-0.0385489

>  <r_i_glide_evdw>  (165) 
-25.5711

>  <r_i_glide_ecoul>  (165) 
-0.802841

>  <r_i_glide_erotb>  (165) 
0

>  <r_i_glide_esite>  (165) 
0

>  <r_i_glide_emodel>  (165) 
-29.2098

>  <r_i_glide_energy>  (165) 
-26.374

>  <r_i_glide_einternal>  (165) 
0.374057

>  <r_i_glide_intrahb_reward>  (165) 
-0

>  <i_i_glide_confnum>  (165) 
1

>  <i_i_glide_posenum>  (165) 
16

>  <r_i_glide_eff_state_penalty>  (165) 
0

>  <ligand_id>  (165) 
49

>  <original_smiles>  (165) 
C=C1C2(C)CCC3(C)C1(C)C(=O)C(OC(O)C1(C)C2C(O)CC2C4=CC(C)(C)CCC4(C)CCC21C)C3(C)C

>  <smiles>  (165) 
[H]OC1([H])OC2([H])C(=O)C3(C([H])([H])[H])C(=C([H])[H])C(C([H])([H])[H])(C([H])([H])C([H])([H])C3(C([H])([H])[H])C2(C([H])([H])[H])C([H])([H])[H])C2([H])C([H])(O[H])C([H])([H])C3([H])C4=C([H])C(C([H])([H])[H])(C([H])([H])[H])C([H])([H])C([H])([H])C4(C([H])([H])[H])C([H])([H])C([H])([H])C3(C([H])([H])[H])C12C([H])([H])[H]

$$$$
49:0:2
     RDKit          3D

 93 98  0  0  1  0  0  0  0  0999 V2000
    3.2583    1.2412    4.1012 C   0  0  0  0  0  0  0  0  0  0  0  0
    2.0290    1.5816    4.5590 C   0  0  0  0  0  0  0  0  0  0  0  0
    0.9354    0.4523    4.5874 C   0  0  2  0  0  0  0  0  0  0  0  0
    1.0242   -0.2490    3.1851 C   0  0  0  0  0  0  0  0  0  0  0  0
   -0.5042    1.0531    4.5800 C   0  0  0  0  0  0  0  0  0  0  0  0
   -0.6220    2.4881    4.0977 C   0  0  0  0  0  0  0  0  0  0  0  0
    0.1904    3.5322    4.9001 C   0  0  2  0  0  0  0  0  0  0  0  0
   -0.0709    4.8370    4.0852 C   0  0  0  0  0  0  0  0  0  0  0  0
    1.7196    3.0878    4.9438 C   0  0  2  0  0  0  0  0  0  0  0  0
    2.6520    4.0609    4.1516 C   0  0  0  0  0  0  0  0  0  0  0  0
    2.0230    3.2689    6.4331 C   0  0  0  0  0  0  0  0  0  0  0  0
    3.0799    3.6821    6.9115 O   0  0  0  0  0  0  0  0  0  0  0  0
    0.7980    2.9568    7.2552 C   0  0  2  0  0  0  0  0  0  0  0  0
    0.5553    1.5673    7.1167 O   0  0  0  0  0  0  0  0  0  0  0  0
    1.0508    0.6156    7.9937 C   0  0  1  0  0  0  0  0  0  0  0  0
   -0.0642    0.1446    8.7139 O   0  0  0  0  0  0  0  0  0  0  0  0
    1.8619   -0.4978    7.1538 C   0  0  2  0  0  0  0  0  0  0  0  0
    3.2683    0.1380    7.0011 C   0  0  0  0  0  0  0  0  0  0  0  0
    1.1098   -0.7057    5.7343 C   0  0  1  0  0  0  0  0  0  0  0  0
   -0.2142   -1.5139    6.0240 C   0  0  1  0  0  0  0  0  0  0  0  0
   -0.9513   -1.9080    4.8857 O   0  0  0  0  0  0  0  0  0  0  0  0
   -0.0627   -2.7615    6.9190 C   0  0  0  0  0  0  0  0  0  0  0  0
    1.3905   -3.1405    7.2378 C   0  0  1  0  0  0  0  0  0  0  0  0
    2.1397   -3.8579    6.0773 C   0  0  0  0  0  0  0  0  0  0  0  0
    1.5658   -4.1405    4.8837 C   0  0  0  0  0  0  0  0  0  0  0  0
    2.2014   -4.8827    3.7193 C   0  0  0  0  0  0  0  0  0  0  0  0
    1.1998   -5.9272    3.1909 C   0  0  0  0  0  0  0  0  0  0  0  0
    2.5206   -3.8551    2.6143 C   0  0  0  0  0  0  0  0  0  0  0  0
    3.4809   -5.6114    4.1703 C   0  0  0  0  0  0  0  0  0  0  0  0
    4.3392   -4.7423    5.0915 C   0  0  0  0  0  0  0  0  0  0  0  0
    3.5836   -4.2821    6.3704 C   0  0  2  0  0  0  0  0  0  0  0  0
    3.5905   -5.4589    7.3804 C   0  0  0  0  0  0  0  0  0  0  0  0
    4.3360   -3.0616    6.9234 C   0  0  0  0  0  0  0  0  0  0  0  0
    3.6276   -2.4080    8.1182 C   0  0  0  0  0  0  0  0  0  0  0  0
    2.1237   -1.9352    7.9404 C   0  0  1  0  0  0  0  0  0  0  0  0
    1.6683   -1.9176    9.4376 C   0  0  0  0  0  0  0  0  0  0  0  0
   -0.2548    3.7430    6.4326 C   0  0  0  0  0  0  0  0  0  0  0  0
   -0.1604    5.2314    6.8972 C   0  0  0  0  0  0  0  0  0  0  0  0
   -1.7096    3.3366    6.7868 C   0  0  0  0  0  0  0  0  0  0  0  0
    4.0849    1.9262    4.0262 H   0  0  0  0  0  0  0  0  0  0  0  0
    3.4989    0.2270    3.8287 H   0  0  0  0  0  0  0  0  0  0  0  0
    0.1800   -0.8932    2.9602 H   0  0  0  0  0  0  0  0  0  0  0  0
    1.9004   -0.8838    3.0654 H   0  0  0  0  0  0  0  0  0  0  0  0
    1.0498    0.4893    2.3810 H   0  0  0  0  0  0  0  0  0  0  0  0
   -1.1713    0.4693    3.9478 H   0  0  0  0  0  0  0  0  0  0  0  0
   -0.9796    0.9687    5.5410 H   0  0  0  0  0  0  0  0  0  0  0  0
   -0.2932    2.5064    3.0565 H   0  0  0  0  0  0  0  0  0  0  0  0
   -1.6747    2.7661    4.0712 H   0  0  0  0  0  0  0  0  0  0  0  0
    0.4528    5.7196    4.4494 H   0  0  0  0  0  0  0  0  0  0  0  0
   -1.1320    5.0741    4.0890 H   0  0  0  0  0  0  0  0  0  0  0  0
    0.2176    4.7280    3.0384 H   0  0  0  0  0  0  0  0  0  0  0  0
    3.7109    3.9053    4.3496 H   0  0  0  0  0  0  0  0  0  0  0  0
    2.5048    5.1027    4.4248 H   0  0  0  0  0  0  0  0  0  0  0  0
    2.5077    3.9702    3.0746 H   0  0  0  0  0  0  0  0  0  0  0  0
    0.8678    3.2774    8.2974 H   0  0  0  0  0  0  0  0  0  0  0  0
    1.7045    1.0925    8.7304 H   0  0  0  0  0  0  0  0  0  0  0  0
   -0.2646    0.7858    9.3783 H   0  0  0  0  0  0  0  0  0  0  0  0
    3.8995   -0.3854    6.2914 H   0  0  0  0  0  0  0  0  0  0  0  0
    3.7858    0.2362    7.9540 H   0  0  0  0  0  0  0  0  0  0  0  0
    3.2721    1.1532    6.6727 H   0  0  0  0  0  0  0  0  0  0  0  0
    1.7830   -1.3935    5.2313 H   0  0  0  0  0  0  0  0  0  0  0  0
   -0.9070   -0.8648    6.5533 H   0  0  0  0  0  0  0  0  0  0  0  0
   -0.3718   -2.3599    4.2910 H   0  0  0  0  0  0  0  0  0  0  0  0
   -0.5767   -2.5621    7.8556 H   0  0  0  0  0  0  0  0  0  0  0  0
   -0.6064   -3.6206    6.5243 H   0  0  0  0  0  0  0  0  0  0  0  0
    1.3101   -3.9295    7.9847 H   0  0  0  0  0  0  0  0  0  0  0  0
    0.5452   -3.8723    4.6942 H   0  0  0  0  0  0  0  0  0  0  0  0
    1.6194   -6.4989    2.3634 H   0  0  0  0  0  0  0  0  0  0  0  0
    0.2790   -5.4604    2.8451 H   0  0  0  0  0  0  0  0  0  0  0  0
    0.9284   -6.6362    3.9752 H   0  0  0  0  0  0  0  0  0  0  0  0
    3.0079   -4.3202    1.7567 H   0  0  0  0  0  0  0  0  0  0  0  0
    3.1832   -3.0700    2.9824 H   0  0  0  0  0  0  0  0  0  0  0  0
    1.6173   -3.3604    2.2574 H   0  0  0  0  0  0  0  0  0  0  0  0
    3.2260   -6.5361    4.6898 H   0  0  0  0  0  0  0  0  0  0  0  0
    4.0616   -5.9177    3.3006 H   0  0  0  0  0  0  0  0  0  0  0  0
    5.2470   -5.2823    5.3624 H   0  0  0  0  0  0  0  0  0  0  0  0
    4.6820   -3.8806    4.5203 H   0  0  0  0  0  0  0  0  0  0  0  0
    4.6047   -5.7858    7.6112 H   0  0  0  0  0  0  0  0  0  0  0  0
    3.0559   -6.3204    6.9828 H   0  0  0  0  0  0  0  0  0  0  0  0
    3.1126   -5.2164    8.3277 H   0  0  0  0  0  0  0  0  0  0  0  0
    5.3385   -3.3640    7.2313 H   0  0  0  0  0  0  0  0  0  0  0  0
    4.4923   -2.3436    6.1233 H   0  0  0  0  0  0  0  0  0  0  0  0
    3.6859   -3.1741    8.8894 H   0  0  0  0  0  0  0  0  0  0  0  0
    4.2684   -1.6454    8.5485 H   0  0  0  0  0  0  0  0  0  0  0  0
    1.9853   -2.8011    9.9926 H   0  0  0  0  0  0  0  0  0  0  0  0
    0.5910   -1.9442    9.5750 H   0  0  0  0  0  0  0  0  0  0  0  0
    2.0683   -1.0582    9.9764 H   0  0  0  0  0  0  0  0  0  0  0  0
   -0.3078    5.3165    7.9757 H   0  0  0  0  0  0  0  0  0  0  0  0
   -0.9283    5.8503    6.4344 H   0  0  0  0  0  0  0  0  0  0  0  0
    0.8044    5.6955    6.6841 H   0  0  0  0  0  0  0  0  0  0  0  0
   -1.9801    3.6925    7.7819 H   0  0  0  0  0  0  0  0  0  0  0  0
   -1.8822    2.2660    6.8183 H   0  0  0  0  0  0  0  0  0  0  0  0
   -2.4240    3.7692    6.0862 H   0  0  0  0  0  0  0  0  0  0  0  0
  1  2  2  0
  1 40  1  0
  1 41  1  0
  2  9  1  0
  2  3  1  0
  3 19  1  0
  3  4  1  6
  3  5  1  0
  4 42  1  0
  4 43  1  0
  4 44  1  0
  5  6  1  0
  5 45  1  0
  5 46  1  0
  6  7  1  0
  6 47  1  0
  6 48  1  0
  7 37  1  0
  7  8  1  6
  7  9  1  0
  8 49  1  0
  8 50  1  0
  8 51  1  0
  9 10  1  6
  9 11  1  0
 10 52  1  0
 10 53  1  0
 10 54  1  0
 11 12  2  0
 11 13  1  0
 13 14  1  0
 13 37  1  0
 13 55  1  1
 14 15  1  0
 15 16  1  0
 15 17  1  0
 15 56  1  1
 16 57  1  0
 17 35  1  0
 17 18  1  6
 17 19  1  0
 18 58  1  0
 18 59  1  0
 18 60  1  0
 19 20  1  0
 19 61  1  6
 20 21  1  0
 20 22  1  0
 20 62  1  1
 21 63  1  0
 22 23  1  0
 22 64  1  0
 22 65  1  0
 23 35  1  0
 23 24  1  0
 23 66  1  1
 24 31  1  0
 24 25  2  0
 25 26  1  0
 25 67  1  0
 26 27  1  0
 26 28  1  0
 26 29  1  0
 27 68  1  0
 27 69  1  0
 27 70  1  0
 28 71  1  0
 28 72  1  0
 28 73  1  0
 29 30  1  0
 29 74  1  0
 29 75  1  0
 30 31  1  0
 30 76  1  0
 30 77  1  0
 31 32  1  1
 31 33  1  0
 32 78  1  0
 32 79  1  0
 32 80  1  0
 33 34  1  0
 33 81  1  0
 33 82  1  0
 34 35  1  0
 34 83  1  0
 34 84  1  0
 35 36  1  1
 36 85  1  0
 36 86  1  0
 36 87  1  0
 37 38  1  0
 37 39  1  0
 38 88  1  0
 38 89  1  0
 38 90  1  0
 39 91  1  0
 39 92  1  0
 39 93  1  0
M  END
>  <i_m_ct_stereo_status>  (166) 
1

>  <s_m_source_file>  (166) 
/var/tmp/pbs.5076255.sched01/tmp9rjncpta/544vc0qzzn.sdf

>  <i_m_source_file_index>  (166) 
23

>  <i_lp_mmshare_version>  (166) 
48012

>  <i_f3d_flags>  (166) 
0

>  <s_epik_input>  (166) 
W0NIMl0xW0NIMl1bQ0BAXShbQ0gzXSkoQzIoW0NIM10pW0NIM10pW0NAXShbQ0gzXSkoQzM9W0NIMl0pQyg9TylbQ0BIXTJPW0NAQEhdKFtPSF0pW0NAXShbQ0gzXSkoW0NIXTRbQ0BAXTEzW0NIM10pW0NAQF01KFtDSDNdKVtDQEBIXShbQ0gyXVtDQEBIXTRbT0hdKUM9NltDQF0oW0NIM10pKFtDSDJdW0NIMl01KVtDSDJdW0NIMl1DKFtDSF02KShbQ0gzXSlbQ0gzXQ==

>  <s_epik_cmdline>  (166) 
J2VwaWtfcHl0aG9uJywgJy1waHQnLCAnMi4wJywgJy1waCcsICc3LjAnLCAnLXRuJywgJzgnLCAnLW1hJywgJzIwMCcsICctaW1hZScsICc8aW5maWxlLm1hZT4nLCAnLW9tYWUnLCAnPG91dGZpbGUubWFlPic=

>  <r_lp_tautomer_probability>  (166) 
1

>  <r_epik_Ionization_Penalty>  (166) 
9.57555e-07

>  <r_epik_Ionization_Penalty_Charging>  (166) 
0

>  <r_epik_Ionization_Penalty_Neutral>  (166) 
9.57555e-07

>  <r_epik_State_Penalty>  (166) 
-0

>  <r_epik_Charging_Adjusted_Penalty>  (166) 
0

>  <i_epik_Tot_Q>  (166) 
0

>  <i_epik_Tot_abs_Q>  (166) 
0

>  <s_epik_Chemistry_Notes>  (166) 
This compound contains an acetal/aminal-like group ( X-CH(R)-Y where X, Y are N, S, or O) that may be acid/base labile, releasing an aldehyde.

>  <s_lp_Force_Field>  (166) 
OPLS3e

>  <r_lp_Energy>  (166) 
160.698

>  <b_lp_Chiralities_Consistent>  (166) 
1

>  <s_lp_Variant>  (166) 
49:0-1

>  <s_i_glide_gridfile>  (166) 
pfpi4k_grid

>  <i_i_glide_lignum>  (166) 
23

>  <i_i_glide_rotatable_bonds>  (166) 
2

>  <r_i_docking_score>  (166) 
-1.6338

>  <r_i_glide_ligand_efficiency>  (166) 
-0.0418924

>  <r_i_glide_ligand_efficiency_sa>  (166) 
-0.142066

>  <r_i_glide_ligand_efficiency_ln>  (166) 
-0.350334

>  <r_i_glide_gscore>  (166) 
-1.6338

>  <r_i_glide_lipo>  (166) 
-0.0535233

>  <r_i_glide_hbond>  (166) 
0

>  <r_i_glide_metal>  (166) 
-0

>  <r_i_glide_rewards>  (166) 
0

>  <r_i_glide_evdw>  (166) 
-24.082

>  <r_i_glide_ecoul>  (166) 
-2.497

>  <r_i_glide_erotb>  (166) 
0

>  <r_i_glide_esite>  (166) 
-0.0016312

>  <r_i_glide_emodel>  (166) 
-28.8418

>  <r_i_glide_energy>  (166) 
-26.579

>  <r_i_glide_einternal>  (166) 
0.598293

>  <r_i_glide_intrahb_reward>  (166) 
-0

>  <i_i_glide_confnum>  (166) 
2

>  <i_i_glide_posenum>  (166) 
23

>  <r_i_glide_eff_state_penalty>  (166) 
0

>  <ligand_id>  (166) 
49

>  <original_smiles>  (166) 
C=C1C2(C)CCC3(C)C1(C)C(=O)C(OC(O)C1(C)C2C(O)CC2C4=CC(C)(C)CCC4(C)CCC21C)C3(C)C

>  <smiles>  (166) 
[H]OC1([H])OC2([H])C(=O)C3(C([H])([H])[H])C(=C([H])[H])C(C([H])([H])[H])(C([H])([H])C([H])([H])C3(C([H])([H])[H])C2(C([H])([H])[H])C([H])([H])[H])C2([H])C([H])(O[H])C([H])([H])C3([H])C4=C([H])C(C([H])([H])[H])(C([H])([H])[H])C([H])([H])C([H])([H])C4(C([H])([H])[H])C([H])([H])C([H])([H])C3(C([H])([H])[H])C12C([H])([H])[H]

$$$$
49:1:0
     RDKit          3D

 93 98  0  0  1  0  0  0  0  0999 V2000
    3.2299   -1.1835    8.1361 C   0  0  0  0  0  0  0  0  0  0  0  0
    3.2379   -0.9735    6.7966 C   0  0  0  0  0  0  0  0  0  0  0  0
    3.9562   -2.0333    5.8832 C   0  0  2  0  0  0  0  0  0  0  0  0
    5.3295   -2.3102    6.5946 C   0  0  0  0  0  0  0  0  0  0  0  0
    4.3827   -1.4123    4.5136 C   0  0  0  0  0  0  0  0  0  0  0  0
    4.2858    0.1040    4.3688 C   0  0  0  0  0  0  0  0  0  0  0  0
    2.8955    0.7036    4.6726 C   0  0  2  0  0  0  0  0  0  0  0  0
    3.0797    2.2268    4.4260 C   0  0  0  0  0  0  0  0  0  0  0  0
    2.5646    0.3268    6.1987 C   0  0  2  0  0  0  0  0  0  0  0  0
    2.6307    1.5288    7.1850 C   0  0  0  0  0  0  0  0  0  0  0  0
    1.1528   -0.1295    6.0155 C   0  0  0  0  0  0  0  0  0  0  0  0
    0.1695    0.1263    6.7161 O   0  0  0  0  0  0  0  0  0  0  0  0
    1.1791   -0.9108    4.7382 C   0  0  1  0  0  0  0  0  0  0  0  0
    0.1528   -1.8636    4.6640 O   0  0  0  0  0  0  0  0  0  0  0  0
    0.5971   -3.2109    4.6126 C   0  0  1  0  0  0  0  0  0  0  0  0
    1.0365   -3.5591    3.3242 O   0  0  0  0  0  0  0  0  0  0  0  0
    1.5614   -3.7966    5.8070 C   0  0  2  0  0  0  0  0  0  0  0  0
    0.9928   -3.2771    7.1644 C   0  0  0  0  0  0  0  0  0  0  0  0
    3.1768   -3.4691    5.6527 C   0  0  1  0  0  0  0  0  0  0  0  0
    3.7802   -4.3577    4.4965 C   0  0  1  0  0  0  0  0  0  0  0  0
    5.1712   -4.2586    4.2952 O   0  0  0  0  0  0  0  0  0  0  0  0
    3.5791   -5.8447    4.7476 C   0  0  0  0  0  0  0  0  0  0  0  0
    2.0982   -6.2289    4.8134 C   0  0  1  0  0  0  0  0  0  0  0  0
    1.9684   -7.7598    4.9199 C   0  0  0  0  0  0  0  0  0  0  0  0
    2.0580   -8.5090    3.8023 C   0  0  0  0  0  0  0  0  0  0  0  0
    2.2642  -10.0200    3.7478 C   0  0  0  0  0  0  0  0  0  0  0  0
    1.0333  -10.6665    3.0857 C   0  0  0  0  0  0  0  0  0  0  0  0
    3.5174  -10.2766    2.8867 C   0  0  0  0  0  0  0  0  0  0  0  0
    2.4911  -10.6384    5.1561 C   0  0  0  0  0  0  0  0  0  0  0  0
    2.9474   -9.6251    6.2247 C   0  0  0  0  0  0  0  0  0  0  0  0
    1.9768   -8.4196    6.3070 C   0  0  2  0  0  0  0  0  0  0  0  0
    0.5869   -8.9736    6.7263 C   0  0  0  0  0  0  0  0  0  0  0  0
    2.4410   -7.4066    7.3717 C   0  0  0  0  0  0  0  0  0  0  0  0
    1.7703   -6.0042    7.3045 C   0  0  0  0  0  0  0  0  0  0  0  0
    1.3275   -5.4227    5.8987 C   0  0  1  0  0  0  0  0  0  0  0  0
   -0.1816   -5.7947    5.6865 C   0  0  0  0  0  0  0  0  0  0  0  0
    1.6735    0.1554    3.7577 C   0  0  0  0  0  0  0  0  0  0  0  0
    0.5524    1.2029    3.4720 C   0  0  0  0  0  0  0  0  0  0  0  0
    2.0604   -0.4140    2.3683 C   0  0  0  0  0  0  0  0  0  0  0  0
    2.7511   -0.5217    8.8377 H   0  0  0  0  0  0  0  0  0  0  0  0
    3.6654   -2.0659    8.5748 H   0  0  0  0  0  0  0  0  0  0  0  0
    6.0650   -2.8117    5.9718 H   0  0  0  0  0  0  0  0  0  0  0  0
    5.2493   -2.9305    7.4865 H   0  0  0  0  0  0  0  0  0  0  0  0
    5.8048   -1.3732    6.8909 H   0  0  0  0  0  0  0  0  0  0  0  0
    5.4119   -1.6696    4.2668 H   0  0  0  0  0  0  0  0  0  0  0  0
    3.8289   -1.8771    3.7140 H   0  0  0  0  0  0  0  0  0  0  0  0
    5.0146    0.5474    5.0516 H   0  0  0  0  0  0  0  0  0  0  0  0
    4.6144    0.3936    3.3707 H   0  0  0  0  0  0  0  0  0  0  0  0
    2.2069    2.8263    4.6823 H   0  0  0  0  0  0  0  0  0  0  0  0
    3.2930    2.4185    3.3743 H   0  0  0  0  0  0  0  0  0  0  0  0
    3.9177    2.6345    4.9934 H   0  0  0  0  0  0  0  0  0  0  0  0
    2.1770    1.3270    8.1525 H   0  0  0  0  0  0  0  0  0  0  0  0
    2.0840    2.3966    6.8261 H   0  0  0  0  0  0  0  0  0  0  0  0
    3.6604    1.8361    7.3667 H   0  0  0  0  0  0  0  0  0  0  0  0
    2.0214   -1.5596    4.7477 H   0  0  0  0  0  0  0  0  0  0  0  0
   -0.3978   -3.6275    4.6851 H   0  0  0  0  0  0  0  0  0  0  0  0
    1.8560   -3.1214    3.1660 H   0  0  0  0  0  0  0  0  0  0  0  0
    1.6760   -3.4457    7.9952 H   0  0  0  0  0  0  0  0  0  0  0  0
    0.0432   -3.7320    7.4386 H   0  0  0  0  0  0  0  0  0  0  0  0
    0.7844   -2.2287    7.2046 H   0  0  0  0  0  0  0  0  0  0  0  0
    3.5526   -3.9814    6.5323 H   0  0  0  0  0  0  0  0  0  0  0  0
    3.3544   -4.0979    3.5334 H   0  0  0  0  0  0  0  0  0  0  0  0
    5.3994   -4.7748    3.5336 H   0  0  0  0  0  0  0  0  0  0  0  0
    4.0518   -6.4217    3.9509 H   0  0  0  0  0  0  0  0  0  0  0  0
    4.1170   -6.1153    5.6525 H   0  0  0  0  0  0  0  0  0  0  0  0
    1.6782   -5.9739    3.8429 H   0  0  0  0  0  0  0  0  0  0  0  0
    2.1104   -8.0126    2.8470 H   0  0  0  0  0  0  0  0  0  0  0  0
    1.1491  -11.7493    3.0055 H   0  0  0  0  0  0  0  0  0  0  0  0
    0.8666  -10.2729    2.0813 H   0  0  0  0  0  0  0  0  0  0  0  0
    0.1292  -10.4765    3.6682 H   0  0  0  0  0  0  0  0  0  0  0  0
    3.7204  -11.3437    2.7766 H   0  0  0  0  0  0  0  0  0  0  0  0
    4.3997   -9.8192    3.3393 H   0  0  0  0  0  0  0  0  0  0  0  0
    3.4107   -9.8641    1.8820 H   0  0  0  0  0  0  0  0  0  0  0  0
    1.5748  -11.1183    5.5004 H   0  0  0  0  0  0  0  0  0  0  0  0
    3.2098  -11.4570    5.1021 H   0  0  0  0  0  0  0  0  0  0  0  0
    3.0249  -10.1271    7.1903 H   0  0  0  0  0  0  0  0  0  0  0  0
    3.9519   -9.2787    5.9825 H   0  0  0  0  0  0  0  0  0  0  0  0
    0.6853   -9.8688    7.3420 H   0  0  0  0  0  0  0  0  0  0  0  0
   -0.0219   -9.2485    5.8626 H   0  0  0  0  0  0  0  0  0  0  0  0
    0.0203   -8.2764    7.3410 H   0  0  0  0  0  0  0  0  0  0  0  0
    2.2981   -7.8293    8.3672 H   0  0  0  0  0  0  0  0  0  0  0  0
    3.5191   -7.2858    7.2881 H   0  0  0  0  0  0  0  0  0  0  0  0
    0.9013   -6.0153    7.9638 H   0  0  0  0  0  0  0  0  0  0  0  0
    2.4910   -5.3567    7.7982 H   0  0  0  0  0  0  0  0  0  0  0  0
   -0.4154   -6.8177    5.9245 H   0  0  0  0  0  0  0  0  0  0  0  0
   -0.4783   -5.7154    4.6421 H   0  0  0  0  0  0  0  0  0  0  0  0
   -0.8785   -5.1999    6.2714 H   0  0  0  0  0  0  0  0  0  0  0  0
   -0.3385    0.7095    3.0773 H   0  0  0  0  0  0  0  0  0  0  0  0
    0.8717    1.9283    2.7207 H   0  0  0  0  0  0  0  0  0  0  0  0
    0.2337    1.7651    4.3517 H   0  0  0  0  0  0  0  0  0  0  0  0
    1.2093   -0.3924    1.6864 H   0  0  0  0  0  0  0  0  0  0  0  0
    2.3633   -1.4542    2.3847 H   0  0  0  0  0  0  0  0  0  0  0  0
    2.8494    0.1701    1.8973 H   0  0  0  0  0  0  0  0  0  0  0  0
  1  2  2  0
  1 40  1  0
  1 41  1  0
  2  9  1  0
  2  3  1  0
  3 19  1  0
  3  4  1  1
  3  5  1  0
  4 42  1  0
  4 43  1  0
  4 44  1  0
  5  6  1  0
  5 45  1  0
  5 46  1  0
  6  7  1  0
  6 47  1  0
  6 48  1  0
  7 37  1  0
  7  8  1  1
  7  9  1  0
  8 49  1  0
  8 50  1  0
  8 51  1  0
  9 10  1  1
  9 11  1  0
 10 52  1  0
 10 53  1  0
 10 54  1  0
 11 12  2  0
 11 13  1  0
 13 14  1  0
 13 37  1  0
 13 55  1  1
 14 15  1  0
 15 16  1  0
 15 17  1  0
 15 56  1  1
 16 57  1  0
 17 35  1  0
 17 18  1  1
 17 19  1  0
 18 58  1  0
 18 59  1  0
 18 60  1  0
 19 20  1  0
 19 61  1  1
 20 21  1  0
 20 22  1  0
 20 62  1  6
 21 63  1  0
 22 23  1  0
 22 64  1  0
 22 65  1  0
 23 35  1  0
 23 24  1  0
 23 66  1  6
 24 31  1  0
 24 25  2  0
 25 26  1  0
 25 67  1  0
 26 27  1  0
 26 28  1  0
 26 29  1  0
 27 68  1  0
 27 69  1  0
 27 70  1  0
 28 71  1  0
 28 72  1  0
 28 73  1  0
 29 30  1  0
 29 74  1  0
 29 75  1  0
 30 31  1  0
 30 76  1  0
 30 77  1  0
 31 32  1  1
 31 33  1  0
 32 78  1  0
 32 79  1  0
 32 80  1  0
 33 34  1  0
 33 81  1  0
 33 82  1  0
 34 35  1  0
 34 83  1  0
 34 84  1  0
 35 36  1  6
 36 85  1  0
 36 86  1  0
 36 87  1  0
 37 38  1  0
 37 39  1  0
 38 88  1  0
 38 89  1  0
 38 90  1  0
 39 91  1  0
 39 92  1  0
 39 93  1  0
M  END
>  <i_m_ct_stereo_status>  (167) 
1

>  <s_m_source_file>  (167) 
/var/tmp/pbs.5076255.sched01/tmp9rjncpta/544vc0qzzn.sdf

>  <i_m_source_file_index>  (167) 
24

>  <i_lp_mmshare_version>  (167) 
48012

>  <i_f3d_flags>  (167) 
0

>  <s_epik_input>  (167) 
W0NIMl0xW0NIMl1bQ0BAXShbQ0gzXSkoQzIoW0NIM10pW0NIM10pW0NAXShbQ0gzXSkoQzM9W0NIMl0pQyg9TylbQ0BIXTJPW0NAQEhdKFtPSF0pW0NAXShbQ0gzXSkoW0NIXTRbQ0BAXTEzW0NIM10pW0NAQF01KFtDSDNdKVtDQEBIXShbQ0gyXVtDQEBIXTRbT0hdKUM9NltDQF0oW0NIM10pKFtDSDJdW0NIMl01KVtDSDJdW0NIMl1DKFtDSF02KShbQ0gzXSlbQ0gzXQ==

>  <s_epik_cmdline>  (167) 
J2VwaWtfcHl0aG9uJywgJy1waHQnLCAnMi4wJywgJy1waCcsICc3LjAnLCAnLXRuJywgJzgnLCAnLW1hJywgJzIwMCcsICctaW1hZScsICc8aW5maWxlLm1hZT4nLCAnLW9tYWUnLCAnPG91dGZpbGUubWFlPic=

>  <r_lp_tautomer_probability>  (167) 
1

>  <r_epik_Ionization_Penalty>  (167) 
9.57555e-07

>  <r_epik_Ionization_Penalty_Charging>  (167) 
0

>  <r_epik_Ionization_Penalty_Neutral>  (167) 
9.57555e-07

>  <r_epik_State_Penalty>  (167) 
-0

>  <r_epik_Charging_Adjusted_Penalty>  (167) 
0

>  <i_epik_Tot_Q>  (167) 
0

>  <i_epik_Tot_abs_Q>  (167) 
0

>  <s_epik_Chemistry_Notes>  (167) 
This compound contains an acetal/aminal-like group ( X-CH(R)-Y where X, Y are N, S, or O) that may be acid/base labile, releasing an aldehyde.

>  <s_lp_Force_Field>  (167) 
OPLS3e

>  <r_lp_Energy>  (167) 
182.217

>  <b_lp_Chiralities_Consistent>  (167) 
1

>  <s_lp_Variant>  (167) 
49:0-2

>  <s_i_glide_gridfile>  (167) 
pfpi4k_grid

>  <i_i_glide_lignum>  (167) 
24

>  <i_i_glide_rotatable_bonds>  (167) 
2

>  <r_i_docking_score>  (167) 
-1.62769

>  <r_i_glide_ligand_efficiency>  (167) 
-0.0417356

>  <r_i_glide_ligand_efficiency_sa>  (167) 
-0.141534

>  <r_i_glide_ligand_efficiency_ln>  (167) 
-0.349023

>  <r_i_glide_gscore>  (167) 
-1.62769

>  <r_i_glide_lipo>  (167) 
-0.196518

>  <r_i_glide_hbond>  (167) 
0

>  <r_i_glide_metal>  (167) 
-0

>  <r_i_glide_rewards>  (167) 
-0.0237311

>  <r_i_glide_evdw>  (167) 
-27.6722

>  <r_i_glide_ecoul>  (167) 
-0.158882

>  <r_i_glide_erotb>  (167) 
0

>  <r_i_glide_esite>  (167) 
0

>  <r_i_glide_emodel>  (167) 
-30.6067

>  <r_i_glide_energy>  (167) 
-27.8311

>  <r_i_glide_einternal>  (167) 
0.335417

>  <r_i_glide_intrahb_reward>  (167) 
-0

>  <i_i_glide_confnum>  (167) 
1

>  <i_i_glide_posenum>  (167) 
29

>  <r_i_glide_eff_state_penalty>  (167) 
0

>  <ligand_id>  (167) 
49

>  <original_smiles>  (167) 
C=C1C2(C)CCC3(C)C1(C)C(=O)C(OC(O)C1(C)C2C(O)CC2C4=CC(C)(C)CCC4(C)CCC21C)C3(C)C

>  <smiles>  (167) 
[H]OC1([H])OC2([H])C(=O)C3(C([H])([H])[H])C(=C([H])[H])C(C([H])([H])[H])(C([H])([H])C([H])([H])C3(C([H])([H])[H])C2(C([H])([H])[H])C([H])([H])[H])C2([H])C([H])(O[H])C([H])([H])C3([H])C4=C([H])C(C([H])([H])[H])(C([H])([H])[H])C([H])([H])C([H])([H])C4(C([H])([H])[H])C([H])([H])C([H])([H])C3(C([H])([H])[H])C12C([H])([H])[H]

$$$$
49:1:1
     RDKit          3D

 93 98  0  0  1  0  0  0  0  0999 V2000
    3.3360   -1.1436    8.6103 C   0  0  0  0  0  0  0  0  0  0  0  0
    3.0573   -0.7760    7.3349 C   0  0  0  0  0  0  0  0  0  0  0  0
    3.5929   -1.6839    6.1679 C   0  0  2  0  0  0  0  0  0  0  0  0
    5.0921   -1.9756    6.5424 C   0  0  0  0  0  0  0  0  0  0  0  0
    3.7081   -0.8839    4.8296 C   0  0  0  0  0  0  0  0  0  0  0  0
    3.5458    0.6300    4.8977 C   0  0  0  0  0  0  0  0  0  0  0  0
    2.2374    1.1195    5.5533 C   0  0  2  0  0  0  0  0  0  0  0  0
    2.3315    2.6675    5.4646 C   0  0  0  0  0  0  0  0  0  0  0  0
    2.2431    0.5505    7.0558 C   0  0  2  0  0  0  0  0  0  0  0  0
    2.4857    1.6291    8.1502 C   0  0  0  0  0  0  0  0  0  0  0  0
    0.8365    0.0480    7.1075 C   0  0  0  0  0  0  0  0  0  0  0  0
    0.0084    0.1757    8.0130 O   0  0  0  0  0  0  0  0  0  0  0  0
    0.6117   -0.5774    5.7681 C   0  0  1  0  0  0  0  0  0  0  0  0
   -0.3899   -1.5593    5.7992 O   0  0  0  0  0  0  0  0  0  0  0  0
    0.0611   -2.8655    5.4854 C   0  0  1  0  0  0  0  0  0  0  0  0
    0.2318   -3.0195    4.1000 O   0  0  0  0  0  0  0  0  0  0  0  0
    1.2758   -3.5425    6.3657 C   0  0  2  0  0  0  0  0  0  0  0  0
    0.9945   -3.2157    7.8667 C   0  0  0  0  0  0  0  0  0  0  0  0
    2.8134   -3.1174    5.9248 C   0  0  1  0  0  0  0  0  0  0  0  0
    3.1806   -3.8323    4.5689 C   0  0  1  0  0  0  0  0  0  0  0  0
    4.4901   -3.6256    4.0976 O   0  0  0  0  0  0  0  0  0  0  0  0
    3.0796   -5.3477    4.6657 C   0  0  0  0  0  0  0  0  0  0  0  0
    1.6539   -5.8118    4.9841 C   0  0  1  0  0  0  0  0  0  0  0  0
    1.5853   -7.3496    4.9219 C   0  0  0  0  0  0  0  0  0  0  0  0
    1.4577   -7.9579    3.7250 C   0  0  0  0  0  0  0  0  0  0  0  0
    1.6829   -9.4403    3.4402 C   0  0  0  0  0  0  0  0  0  0  0  0
    0.3596  -10.0667    2.9638 C   0  0  0  0  0  0  0  0  0  0  0  0
    2.7338   -9.5327    2.3147 C   0  0  0  0  0  0  0  0  0  0  0  0
    2.2115  -10.2104    4.6839 C   0  0  0  0  0  0  0  0  0  0  0  0
    2.8577   -9.3075    5.7548 C   0  0  0  0  0  0  0  0  0  0  0  0
    1.8989   -8.1678    6.1840 C   0  0  2  0  0  0  0  0  0  0  0  0
    0.6410   -8.8361    6.8067 C   0  0  0  0  0  0  0  0  0  0  0  0
    2.5514   -7.2650    7.2491 C   0  0  0  0  0  0  0  0  0  0  0  0
    1.8500   -5.8983    7.4970 C   0  0  0  0  0  0  0  0  0  0  0  0
    1.1083   -5.1764    6.2968 C   0  0  1  0  0  0  0  0  0  0  0  0
   -0.3997   -5.5951    6.3558 C   0  0  0  0  0  0  0  0  0  0  0  0
    0.8637    0.6203    4.8478 C   0  0  0  0  0  0  0  0  0  0  0  0
   -0.3164    1.6382    4.9333 C   0  0  0  0  0  0  0  0  0  0  0  0
    0.9638    0.2396    3.3474 C   0  0  0  0  0  0  0  0  0  0  0  0
    2.9987   -0.5940    9.4731 H   0  0  0  0  0  0  0  0  0  0  0  0
    3.8731   -2.0493    8.8365 H   0  0  0  0  0  0  0  0  0  0  0  0
    5.6981   -2.3621    5.7277 H   0  0  0  0  0  0  0  0  0  0  0  0
    5.2140   -2.6996    7.3474 H   0  0  0  0  0  0  0  0  0  0  0  0
    5.5954   -1.0574    6.8520 H   0  0  0  0  0  0  0  0  0  0  0  0
    4.6728   -1.0449    4.3512 H   0  0  0  0  0  0  0  0  0  0  0  0
    3.0096   -1.2767    4.1073 H   0  0  0  0  0  0  0  0  0  0  0  0
    4.3912    1.0239    5.4677 H   0  0  0  0  0  0  0  0  0  0  0  0
    3.6534    1.0509    3.8978 H   0  0  0  0  0  0  0  0  0  0  0  0
    1.5184    3.1885    5.9686 H   0  0  0  0  0  0  0  0  0  0  0  0
    2.3152    2.9915    4.4240 H   0  0  0  0  0  0  0  0  0  0  0  0
    3.2596    3.0458    5.8965 H   0  0  0  0  0  0  0  0  0  0  0  0
    2.2491    1.2917    9.1567 H   0  0  0  0  0  0  0  0  0  0  0  0
    1.8555    2.5047    8.0229 H   0  0  0  0  0  0  0  0  0  0  0  0
    3.5231    1.9629    8.1548 H   0  0  0  0  0  0  0  0  0  0  0  0
    1.4517   -1.1808    5.5216 H   0  0  0  0  0  0  0  0  0  0  0  0
   -0.8858   -3.3418    5.7027 H   0  0  0  0  0  0  0  0  0  0  0  0
    1.0144   -2.5628    3.8445 H   0  0  0  0  0  0  0  0  0  0  0  0
    1.8416   -3.4482    8.5107 H   0  0  0  0  0  0  0  0  0  0  0  0
    0.1355   -3.7472    8.2718 H   0  0  0  0  0  0  0  0  0  0  0  0
    0.7756   -2.1912    8.0818 H   0  0  0  0  0  0  0  0  0  0  0  0
    3.3779   -3.7116    6.6367 H   0  0  0  0  0  0  0  0  0  0  0  0
    2.5540   -3.4902    3.7531 H   0  0  0  0  0  0  0  0  0  0  0  0
    4.5801   -2.7117    3.8622 H   0  0  0  0  0  0  0  0  0  0  0  0
    3.3924   -5.7944    3.7200 H   0  0  0  0  0  0  0  0  0  0  0  0
    3.8037   -5.6969    5.3974 H   0  0  0  0  0  0  0  0  0  0  0  0
    1.0340   -5.4637    4.1608 H   0  0  0  0  0  0  0  0  0  0  0  0
    1.2986   -7.3504    2.8491 H   0  0  0  0  0  0  0  0  0  0  0  0
    0.4802  -11.1247    2.7271 H   0  0  0  0  0  0  0  0  0  0  0  0
   -0.0242   -9.5659    2.0777 H   0  0  0  0  0  0  0  0  0  0  0  0
   -0.4075   -9.9877    3.7361 H   0  0  0  0  0  0  0  0  0  0  0  0
    2.9392  -10.5679    2.0362 H   0  0  0  0  0  0  0  0  0  0  0  0
    3.6798   -9.0863    2.6303 H   0  0  0  0  0  0  0  0  0  0  0  0
    2.4079   -9.0100    1.4140 H   0  0  0  0  0  0  0  0  0  0  0  0
    1.4008  -10.7759    5.1453 H   0  0  0  0  0  0  0  0  0  0  0  0
    2.9253  -10.9770    4.3795 H   0  0  0  0  0  0  0  0  0  0  0  0
    3.1505   -9.9127    6.6138 H   0  0  0  0  0  0  0  0  0  0  0  0
    3.7798   -8.8854    5.3554 H   0  0  0  0  0  0  0  0  0  0  0  0
    0.8863   -9.7934    7.2707 H   0  0  0  0  0  0  0  0  0  0  0  0
   -0.1283   -9.0353    6.0581 H   0  0  0  0  0  0  0  0  0  0  0  0
    0.2000   -8.2446    7.6069 H   0  0  0  0  0  0  0  0  0  0  0  0
    2.6313   -7.8085    8.1913 H   0  0  0  0  0  0  0  0  0  0  0  0
    3.5852   -7.0823    6.9611 H   0  0  0  0  0  0  0  0  0  0  0  0
    1.1389   -6.0309    8.3143 H   0  0  0  0  0  0  0  0  0  0  0  0
    2.6426   -5.2795    7.9110 H   0  0  0  0  0  0  0  0  0  0  0  0
   -0.5478   -6.6487    6.5100 H   0  0  0  0  0  0  0  0  0  0  0  0
   -0.9097   -5.4225    5.4113 H   0  0  0  0  0  0  0  0  0  0  0  0
   -0.9774   -5.1084    7.1381 H   0  0  0  0  0  0  0  0  0  0  0  0
   -1.2584    1.1518    4.6704 H   0  0  0  0  0  0  0  0  0  0  0  0
   -0.1762    2.4610    4.2294 H   0  0  0  0  0  0  0  0  0  0  0  0
   -0.4558    2.0770    5.9230 H   0  0  0  0  0  0  0  0  0  0  0  0
   -0.0110    0.3003    2.8625 H   0  0  0  0  0  0  0  0  0  0  0  0
    1.2874   -0.7793    3.1689 H   0  0  0  0  0  0  0  0  0  0  0  0
    1.6240    0.9123    2.8013 H   0  0  0  0  0  0  0  0  0  0  0  0
  1  2  2  0
  1 40  1  0
  1 41  1  0
  2  9  1  0
  2  3  1  0
  3 19  1  0
  3  4  1  1
  3  5  1  0
  4 42  1  0
  4 43  1  0
  4 44  1  0
  5  6  1  0
  5 45  1  0
  5 46  1  0
  6  7  1  0
  6 47  1  0
  6 48  1  0
  7 37  1  0
  7  8  1  1
  7  9  1  0
  8 49  1  0
  8 50  1  0
  8 51  1  0
  9 10  1  1
  9 11  1  0
 10 52  1  0
 10 53  1  0
 10 54  1  0
 11 12  2  0
 11 13  1  0
 13 14  1  0
 13 37  1  0
 13 55  1  6
 14 15  1  0
 15 16  1  0
 15 17  1  0
 15 56  1  1
 16 57  1  0
 17 35  1  0
 17 18  1  1
 17 19  1  0
 18 58  1  0
 18 59  1  0
 18 60  1  0
 19 20  1  0
 19 61  1  1
 20 21  1  0
 20 22  1  0
 20 62  1  6
 21 63  1  0
 22 23  1  0
 22 64  1  0
 22 65  1  0
 23 35  1  0
 23 24  1  0
 23 66  1  6
 24 31  1  0
 24 25  2  0
 25 26  1  0
 25 67  1  0
 26 27  1  0
 26 28  1  0
 26 29  1  0
 27 68  1  0
 27 69  1  0
 27 70  1  0
 28 71  1  0
 28 72  1  0
 28 73  1  0
 29 30  1  0
 29 74  1  0
 29 75  1  0
 30 31  1  0
 30 76  1  0
 30 77  1  0
 31 32  1  1
 31 33  1  0
 32 78  1  0
 32 79  1  0
 32 80  1  0
 33 34  1  0
 33 81  1  0
 33 82  1  0
 34 35  1  0
 34 83  1  0
 34 84  1  0
 35 36  1  1
 36 85  1  0
 36 86  1  0
 36 87  1  0
 37 38  1  0
 37 39  1  0
 38 88  1  0
 38 89  1  0
 38 90  1  0
 39 91  1  0
 39 92  1  0
 39 93  1  0
M  END
>  <i_m_ct_stereo_status>  (168) 
1

>  <s_m_source_file>  (168) 
/var/tmp/pbs.5076255.sched01/tmp9rjncpta/544vc0qzzn.sdf

>  <i_m_source_file_index>  (168) 
24

>  <i_lp_mmshare_version>  (168) 
48012

>  <i_f3d_flags>  (168) 
0

>  <s_epik_input>  (168) 
W0NIMl0xW0NIMl1bQ0BAXShbQ0gzXSkoQzIoW0NIM10pW0NIM10pW0NAXShbQ0gzXSkoQzM9W0NIMl0pQyg9TylbQ0BIXTJPW0NAQEhdKFtPSF0pW0NAXShbQ0gzXSkoW0NIXTRbQ0BAXTEzW0NIM10pW0NAQF01KFtDSDNdKVtDQEBIXShbQ0gyXVtDQEBIXTRbT0hdKUM9NltDQF0oW0NIM10pKFtDSDJdW0NIMl01KVtDSDJdW0NIMl1DKFtDSF02KShbQ0gzXSlbQ0gzXQ==

>  <s_epik_cmdline>  (168) 
J2VwaWtfcHl0aG9uJywgJy1waHQnLCAnMi4wJywgJy1waCcsICc3LjAnLCAnLXRuJywgJzgnLCAnLW1hJywgJzIwMCcsICctaW1hZScsICc8aW5maWxlLm1hZT4nLCAnLW9tYWUnLCAnPG91dGZpbGUubWFlPic=

>  <r_lp_tautomer_probability>  (168) 
1

>  <r_epik_Ionization_Penalty>  (168) 
9.57555e-07

>  <r_epik_Ionization_Penalty_Charging>  (168) 
0

>  <r_epik_Ionization_Penalty_Neutral>  (168) 
9.57555e-07

>  <r_epik_State_Penalty>  (168) 
-0

>  <r_epik_Charging_Adjusted_Penalty>  (168) 
0

>  <i_epik_Tot_Q>  (168) 
0

>  <i_epik_Tot_abs_Q>  (168) 
0

>  <s_epik_Chemistry_Notes>  (168) 
This compound contains an acetal/aminal-like group ( X-CH(R)-Y where X, Y are N, S, or O) that may be acid/base labile, releasing an aldehyde.

>  <s_lp_Force_Field>  (168) 
OPLS3e

>  <r_lp_Energy>  (168) 
182.217

>  <b_lp_Chiralities_Consistent>  (168) 
1

>  <s_lp_Variant>  (168) 
49:0-2

>  <s_i_glide_gridfile>  (168) 
pfpi4k_grid

>  <i_i_glide_lignum>  (168) 
24

>  <i_i_glide_rotatable_bonds>  (168) 
2

>  <r_i_docking_score>  (168) 
-1.4634

>  <r_i_glide_ligand_efficiency>  (168) 
-0.0375232

>  <r_i_glide_ligand_efficiency_sa>  (168) 
-0.127249

>  <r_i_glide_ligand_efficiency_ln>  (168) 
-0.313796

>  <r_i_glide_gscore>  (168) 
-1.4634

>  <r_i_glide_lipo>  (168) 
-0.0628452

>  <r_i_glide_hbond>  (168) 
0

>  <r_i_glide_metal>  (168) 
-0

>  <r_i_glide_rewards>  (168) 
0

>  <r_i_glide_evdw>  (168) 
-25.7812

>  <r_i_glide_ecoul>  (168) 
-0.615598

>  <r_i_glide_erotb>  (168) 
0

>  <r_i_glide_esite>  (168) 
-0.019162

>  <r_i_glide_emodel>  (168) 
-28.8402

>  <r_i_glide_energy>  (168) 
-26.3968

>  <r_i_glide_einternal>  (168) 
0.321954

>  <r_i_glide_intrahb_reward>  (168) 
-0

>  <i_i_glide_confnum>  (168) 
1

>  <i_i_glide_posenum>  (168) 
1

>  <r_i_glide_eff_state_penalty>  (168) 
0

>  <ligand_id>  (168) 
49

>  <original_smiles>  (168) 
C=C1C2(C)CCC3(C)C1(C)C(=O)C(OC(O)C1(C)C2C(O)CC2C4=CC(C)(C)CCC4(C)CCC21C)C3(C)C

>  <smiles>  (168) 
[H]OC1([H])OC2([H])C(=O)C3(C([H])([H])[H])C(=C([H])[H])C(C([H])([H])[H])(C([H])([H])C([H])([H])C3(C([H])([H])[H])C2(C([H])([H])[H])C([H])([H])[H])C2([H])C([H])(O[H])C([H])([H])C3([H])C4=C([H])C(C([H])([H])[H])(C([H])([H])[H])C([H])([H])C([H])([H])C4(C([H])([H])[H])C([H])([H])C([H])([H])C3(C([H])([H])[H])C12C([H])([H])[H]

$$$$
50:0:0
     RDKit          3D

 83 88  0  0  1  0  0  0  0  0999 V2000
    0.9439   -8.2085    6.6788 C   0  0  0  0  0  0  0  0  0  0  0  0
    1.3635   -8.2305    5.4080 C   0  0  0  0  0  0  0  0  0  0  0  0
    1.1595   -7.1413    4.3892 C   0  0  2  0  0  0  0  0  0  0  0  0
   -0.3804   -7.1200    4.2416 C   0  0  0  0  0  0  0  0  0  0  0  0
   -0.8974   -8.5813    3.7544 C   0  0  1  0  0  0  0  0  0  0  0  0
   -1.9929   -8.4685    2.6826 C   0  0  0  0  0  0  0  0  0  0  0  0
    0.1194   -9.8234    3.4959 C   0  0  0  0  0  0  0  0  0  0  0  0
    1.5392   -9.8669    2.7023 C   0  0  0  0  0  0  0  0  0  0  0  0
    2.9109   -8.9295    2.8168 C   0  0  1  0  0  0  0  0  0  0  0  0
    2.6583   -7.4046    2.7793 C   0  0  1  0  0  0  0  0  0  0  0  0
    3.1162   -6.8244    1.5732 O   0  0  0  0  0  0  0  0  0  0  0  0
    1.2438   -7.1671    2.7663 C   0  0  0  0  0  0  0  0  0  0  0  0
    0.4811   -6.9267    1.8089 O   0  0  0  0  0  0  0  0  0  0  0  0
    2.5664   -6.4983    4.0396 C   0  0  2  0  0  0  0  0  0  0  0  0
    3.8726   -6.5391    4.9571 C   0  0  1  0  0  0  0  0  0  0  0  0
    3.4932   -5.5756    5.9359 O   0  0  0  0  0  0  0  0  0  0  0  0
    4.3513   -7.8398    5.7413 C   0  0  1  0  0  0  0  0  0  0  0  0
    4.2088   -7.8425    7.2890 C   0  0  0  0  0  0  0  0  0  0  0  0
    4.3488   -9.2530    5.0910 C   0  0  1  0  0  0  0  0  0  0  0  0
    3.5916  -10.2173    5.8033 O   0  0  0  0  0  0  0  0  0  0  0  0
    4.3203   -9.3591    3.5256 C   0  0  1  0  0  0  0  0  0  0  0  0
    4.3756  -10.9102    3.2145 C   0  0  0  0  0  0  0  0  0  0  0  0
    5.4893  -11.6310    3.6839 O   0  0  0  0  0  0  0  0  0  0  0  0
    5.6416   -8.5465    2.9572 C   0  0  2  0  0  0  0  0  0  0  0  0
    5.7944   -8.9293    1.4189 C   0  0  0  0  0  0  0  0  0  0  0  0
    6.2363  -10.2385    1.0600 O   0  0  0  0  0  0  0  0  0  0  0  0
    7.0407   -8.8147    3.6095 C   0  0  0  0  0  0  0  0  0  0  0  0
    7.4070   -9.8214    4.1883 O   0  0  0  0  0  0  0  0  0  0  0  0
    7.8584   -7.7426    3.5013 O   0  0  0  0  0  0  0  0  0  0  0  0
    7.2897   -6.6115    2.8961 C   0  0  1  0  0  0  0  0  0  0  0  0
    7.9677   -6.3407    1.5170 C   0  0  0  0  0  0  0  0  0  0  0  0
    7.4983   -5.0496    0.8304 C   0  0  0  0  0  0  0  0  0  0  0  0
    6.1765   -4.9376    0.3455 C   0  0  0  0  0  0  0  0  0  0  0  0
    5.7392   -3.7268   -0.2159 C   0  0  0  0  0  0  0  0  0  0  0  0
    6.6341   -2.6616   -0.3725 C   0  0  0  0  0  0  0  0  0  0  0  0
    7.9724   -2.7985    0.0513 C   0  0  0  0  0  0  0  0  0  0  0  0
    8.3817   -3.9874    0.6691 C   0  0  0  0  0  0  0  0  0  0  0  0
    5.7717   -6.9346    3.0385 C   0  0  2  0  0  0  0  0  0  0  0  0
    5.1155   -5.9750    4.1620 C   0  0  1  0  0  0  0  0  0  0  0  0
    4.8302   -4.5885    3.5147 C   0  0  0  0  0  0  0  0  0  0  0  0
    6.0702   -5.5838    5.1477 O   0  0  0  0  0  0  0  0  0  0  0  0
    0.4248   -7.3562    7.0952 H   0  0  0  0  0  0  0  0  0  0  0  0
    1.1332   -9.0652    7.3095 H   0  0  0  0  0  0  0  0  0  0  0  0
    1.8448   -9.0980    5.0599 H   0  0  0  0  0  0  0  0  0  0  0  0
   -0.8283   -6.9317    5.2047 H   0  0  0  0  0  0  0  0  0  0  0  0
   -0.7987   -6.2864    3.6717 H   0  0  0  0  0  0  0  0  0  0  0  0
   -1.4611   -8.9185    4.6205 H   0  0  0  0  0  0  0  0  0  0  0  0
   -1.5902   -8.2686    1.6921 H   0  0  0  0  0  0  0  0  0  0  0  0
   -2.6873   -7.6678    2.9321 H   0  0  0  0  0  0  0  0  0  0  0  0
   -2.5676   -9.3914    2.6171 H   0  0  0  0  0  0  0  0  0  0  0  0
    0.2474  -10.3424    4.4436 H   0  0  0  0  0  0  0  0  0  0  0  0
   -0.4902  -10.5419    2.9557 H   0  0  0  0  0  0  0  0  0  0  0  0
    1.8206  -10.9093    2.7155 H   0  0  0  0  0  0  0  0  0  0  0  0
    1.2196   -9.7329    1.6675 H   0  0  0  0  0  0  0  0  0  0  0  0
    3.1757   -9.1523    1.7866 H   0  0  0  0  0  0  0  0  0  0  0  0
    4.0658   -6.9293    1.5582 H   0  0  0  0  0  0  0  0  0  0  0  0
    2.3982   -5.4543    3.7855 H   0  0  0  0  0  0  0  0  0  0  0  0
    2.7550   -5.9373    6.4286 H   0  0  0  0  0  0  0  0  0  0  0  0
    5.4265   -7.7249    5.7592 H   0  0  0  0  0  0  0  0  0  0  0  0
    3.1868   -7.8174    7.6483 H   0  0  0  0  0  0  0  0  0  0  0  0
    4.7204   -6.9819    7.7242 H   0  0  0  0  0  0  0  0  0  0  0  0
    4.6791   -8.7277    7.7134 H   0  0  0  0  0  0  0  0  0  0  0  0
    5.3110   -9.6627    5.4000 H   0  0  0  0  0  0  0  0  0  0  0  0
    3.8148  -11.0799    5.4502 H   0  0  0  0  0  0  0  0  0  0  0  0
    3.5444  -11.4586    3.6631 H   0  0  0  0  0  0  0  0  0  0  0  0
    4.2467  -11.0783    2.1497 H   0  0  0  0  0  0  0  0  0  0  0  0
    5.4472  -12.5296    3.3548 H   0  0  0  0  0  0  0  0  0  0  0  0
    4.8964   -8.7010    0.8388 H   0  0  0  0  0  0  0  0  0  0  0  0
    6.5454   -8.3375    0.9625 H   0  0  0  0  0  0  0  0  0  0  0  0
    5.5286  -10.8637    1.0131 H   0  0  0  0  0  0  0  0  0  0  0  0
    7.5905   -5.7468    3.4809 H   0  0  0  0  0  0  0  0  0  0  0  0
    9.0296   -6.2298    1.7347 H   0  0  0  0  0  0  0  0  0  0  0  0
    7.9718   -7.1217    0.7698 H   0  0  0  0  0  0  0  0  0  0  0  0
    5.4788   -5.7679    0.3851 H   0  0  0  0  0  0  0  0  0  0  0  0
    4.6992   -3.6403   -0.5365 H   0  0  0  0  0  0  0  0  0  0  0  0
    6.2824   -1.7366   -0.8325 H   0  0  0  0  0  0  0  0  0  0  0  0
    8.6935   -1.9938   -0.1011 H   0  0  0  0  0  0  0  0  0  0  0  0
    9.4088   -4.0835    1.0137 H   0  0  0  0  0  0  0  0  0  0  0  0
    5.3449   -6.5643    2.1010 H   0  0  0  0  0  0  0  0  0  0  0  0
    4.1424   -4.6431    2.6705 H   0  0  0  0  0  0  0  0  0  0  0  0
    5.7435   -4.1364    3.1361 H   0  0  0  0  0  0  0  0  0  0  0  0
    4.4059   -3.8728    4.2221 H   0  0  0  0  0  0  0  0  0  0  0  0
    6.3433   -6.3548    5.6488 H   0  0  0  0  0  0  0  0  0  0  0  0
  1  2  2  0
  1 42  1  0
  1 43  1  0
  3  2  1  1
  2 44  1  0
  3 12  1  0
  3 14  1  0
  3  4  1  0
  4  5  1  0
  4 45  1  0
  4 46  1  0
  5  6  1  0
  5  7  1  0
  5 47  1  1
  6 48  1  0
  6 49  1  0
  6 50  1  0
  7  8  1  0
  7 51  1  0
  7 52  1  0
  8  9  1  0
  8 53  1  0
  8 54  1  0
  9 21  1  0
  9 10  1  0
  9 55  1  6
 10 11  1  6
 10 12  1  0
 10 14  1  0
 11 56  1  0
 12 13  2  0
 14 15  1  0
 14 57  1  6
 15 39  1  0
 15 16  1  1
 15 17  1  0
 16 58  1  0
 17 18  1  0
 17 19  1  0
 17 59  1  1
 18 60  1  0
 18 61  1  0
 18 62  1  0
 19 20  1  0
 19 21  1  0
 19 63  1  1
 20 64  1  0
 21 22  1  1
 21 24  1  0
 22 23  1  0
 22 65  1  0
 22 66  1  0
 23 67  1  0
 24 38  1  0
 24 25  1  6
 24 27  1  0
 25 26  1  0
 25 68  1  0
 25 69  1  0
 26 70  1  0
 27 28  2  0
 27 29  1  0
 29 30  1  0
 30 31  1  0
 30 38  1  0
 30 71  1  1
 31 32  1  0
 31 72  1  0
 31 73  1  0
 32 37  1  0
 32 33  2  0
 33 34  1  0
 33 74  1  0
 34 35  2  0
 34 75  1  0
 35 36  1  0
 35 76  1  0
 36 37  2  0
 36 77  1  0
 37 78  1  0
 38 39  1  0
 38 79  1  6
 39 40  1  0
 39 41  1  1
 40 80  1  0
 40 81  1  0
 40 82  1  0
 41 83  1  0
M  END
>  <i_m_ct_stereo_status>  (169) 
1

>  <s_m_source_file>  (169) 
/var/tmp/pbs.5076255.sched01/tmp9rjncpta/544vc0qzzn.sdf

>  <i_m_source_file_index>  (169) 
25

>  <i_lp_mmshare_version>  (169) 
48012

>  <i_f3d_flags>  (169) 
0

>  <s_epik_input>  (169) 
W0NIMl09W0NIXVtDQF0xMltDQEBIXTNbQ0BdKFtPSF0pKEMyPU8pW0NASF0oW0NIMl1bQ0gyXVtDQEBIXShbQ0gyXTEpW0NIM10pW0NAQF00KFtDSDJdW09IXSlbQ0BAXTUoW0NIMl1bT0hdKVtDQEBIXShbQ0BdKFtDSDNdKShbT0hdKVtDQF0zKFtPSF0pW0NAQEhdKFtDSDNdKVtDQEhdNFtPSF0pW0NAQEhdKE9DNT1PKVtDSDJdYzZbY0hdW2NIXVtjSF1bY0hdW2NIXTY=

>  <s_epik_cmdline>  (169) 
J2VwaWtfcHl0aG9uJywgJy1waHQnLCAnMi4wJywgJy1waCcsICc3LjAnLCAnLXRuJywgJzgnLCAnLW1hJywgJzIwMCcsICctaW1hZScsICc8aW5maWxlLm1hZT4nLCAnLW9tYWUnLCAnPG91dGZpbGUubWFlPic=

>  <r_lp_tautomer_probability>  (169) 
1

>  <r_epik_Ionization_Penalty>  (169) 
3.28241e-07

>  <r_epik_Ionization_Penalty_Charging>  (169) 
0

>  <r_epik_Ionization_Penalty_Neutral>  (169) 
3.28241e-07

>  <r_epik_State_Penalty>  (169) 
-0

>  <r_epik_Charging_Adjusted_Penalty>  (169) 
0

>  <i_epik_Tot_Q>  (169) 
0

>  <i_epik_Tot_abs_Q>  (169) 
0

>  <s_epik_Chemistry_Notes>  (169) 
This compound has an ester and may undergo hydrolysis at high or low pH.

>  <s_lp_Force_Field>  (169) 
OPLS3e

>  <r_lp_Energy>  (169) 
277.617

>  <b_lp_Chiralities_Consistent>  (169) 
1

>  <s_lp_Variant>  (169) 
50:0-1

>  <s_i_glide_gridfile>  (169) 
pfpi4k_grid

>  <i_i_glide_lignum>  (169) 
25

>  <i_i_glide_rotatable_bonds>  (169) 
11

>  <r_i_docking_score>  (169) 
-3.26068

>  <r_i_glide_ligand_efficiency>  (169) 
-0.0795288

>  <r_i_glide_ligand_efficiency_sa>  (169) 
-0.274233

>  <r_i_glide_ligand_efficiency_ln>  (169) 
-0.691764

>  <r_i_glide_gscore>  (169) 
-3.26068

>  <r_i_glide_lipo>  (169) 
-0.796245

>  <r_i_glide_hbond>  (169) 
0

>  <r_i_glide_metal>  (169) 
-0

>  <r_i_glide_rewards>  (169) 
-0.0366045

>  <r_i_glide_evdw>  (169) 
-33.7654

>  <r_i_glide_ecoul>  (169) 
-6.29046

>  <r_i_glide_erotb>  (169) 
0.22959

>  <r_i_glide_esite>  (169) 
-0.0255851

>  <r_i_glide_emodel>  (169) 
-46.2543

>  <r_i_glide_energy>  (169) 
-40.0558

>  <r_i_glide_einternal>  (169) 
3.18699

>  <r_i_glide_intrahb_reward>  (169) 
-0

>  <i_i_glide_confnum>  (169) 
2

>  <i_i_glide_posenum>  (169) 
5

>  <r_i_glide_eff_state_penalty>  (169) 
0

>  <ligand_id>  (169) 
50

>  <original_smiles>  (169) 
C=CC12CC(C)CCC3C(O)(C1=O)C2C1(O)C(C)C(O)C3(CO)C2(CO)C(=O)OC(Cc3ccccc3)C2C1(C)O

>  <smiles>  (169) 
[H]OC([H])([H])C12C(=O)OC([H])(C([H])([H])c3c([H])c([H])c([H])c([H])c3[H])C1([H])C(O[H])(C([H])([H])[H])C1(O[H])C([H])(C([H])([H])[H])C([H])(O[H])C2(C([H])([H])O[H])C2([H])C([H])([H])C([H])([H])C([H])(C([H])([H])[H])C([H])([H])C3(C([H])=C([H])[H])C(=O)C2(O[H])C31[H]

$$$$
50:0:1
     RDKit          3D

 83 88  0  0  1  0  0  0  0  0999 V2000
    1.0610   -8.2928    6.7250 C   0  0  0  0  0  0  0  0  0  0  0  0
    1.4677   -8.3112    5.4464 C   0  0  0  0  0  0  0  0  0  0  0  0
    1.2393   -7.2062    4.4353 C   0  0  2  0  0  0  0  0  0  0  0  0
   -0.2983   -7.1924    4.3058 C   0  0  0  0  0  0  0  0  0  0  0  0
   -0.8098   -8.6473    3.8046 C   0  0  1  0  0  0  0  0  0  0  0  0
   -1.9140   -8.5314    2.7384 C   0  0  0  0  0  0  0  0  0  0  0  0
    0.2136   -9.8845    3.5167 C   0  0  0  0  0  0  0  0  0  0  0  0
    1.6307   -9.9093    2.7079 C   0  0  0  0  0  0  0  0  0  0  0  0
    2.9945   -8.9692    2.8347 C   0  0  1  0  0  0  0  0  0  0  0  0
    2.7358   -7.4401    2.8165 C   0  0  1  0  0  0  0  0  0  0  0  0
    3.1913   -6.8460    1.6191 O   0  0  0  0  0  0  0  0  0  0  0  0
    1.3169   -7.2096    2.8148 C   0  0  0  0  0  0  0  0  0  0  0  0
    0.5530   -6.9688    1.8669 O   0  0  0  0  0  0  0  0  0  0  0  0
    2.6437   -6.5492    4.0931 C   0  0  2  0  0  0  0  0  0  0  0  0
    3.9463   -6.5881    4.9974 C   0  0  1  0  0  0  0  0  0  0  0  0
    3.5694   -5.6431    5.9984 O   0  0  0  0  0  0  0  0  0  0  0  0
    4.4422   -7.8983    5.7741 C   0  0  1  0  0  0  0  0  0  0  0  0
    4.3135   -7.9178    7.3241 C   0  0  0  0  0  0  0  0  0  0  0  0
    4.4361   -9.3031    5.1055 C   0  0  1  0  0  0  0  0  0  0  0  0
    3.7380  -10.3079    5.8343 O   0  0  0  0  0  0  0  0  0  0  0  0
    4.4114   -9.3993    3.5369 C   0  0  1  0  0  0  0  0  0  0  0  0
    4.4745  -10.9490    3.2137 C   0  0  0  0  0  0  0  0  0  0  0  0
    5.5943  -11.6849    3.6584 O   0  0  0  0  0  0  0  0  0  0  0  0
    5.7234   -8.5637    2.9550 C   0  0  2  0  0  0  0  0  0  0  0  0
    5.8836   -8.9204    1.4151 C   0  0  0  0  0  0  0  0  0  0  0  0
    6.2485  -10.2546    1.0495 O   0  0  0  0  0  0  0  0  0  0  0  0
    7.1280   -8.8366    3.6101 C   0  0  0  0  0  0  0  0  0  0  0  0
    7.4960   -9.8465    4.1879 O   0  0  0  0  0  0  0  0  0  0  0  0
    7.9403   -7.7638    3.5165 O   0  0  0  0  0  0  0  0  0  0  0  0
    7.3692   -6.6308    2.9220 C   0  0  1  0  0  0  0  0  0  0  0  0
    8.0286   -6.3412    1.5394 C   0  0  0  0  0  0  0  0  0  0  0  0
    7.5220   -5.0730    0.8595 C   0  0  0  0  0  0  0  0  0  0  0  0
    6.1926   -4.9918    0.3884 C   0  0  0  0  0  0  0  0  0  0  0  0
    5.7219   -3.7990   -0.1786 C   0  0  0  0  0  0  0  0  0  0  0  0
    6.5872   -2.7036   -0.3481 C   0  0  0  0  0  0  0  0  0  0  0  0
    7.9338   -2.8017    0.0671 C   0  0  0  0  0  0  0  0  0  0  0  0
    8.3818   -3.9764    0.6812 C   0  0  0  0  0  0  0  0  0  0  0  0
    5.8387   -6.9477    3.0505 C   0  0  2  0  0  0  0  0  0  0  0  0
    5.1929   -6.0121    4.2040 C   0  0  1  0  0  0  0  0  0  0  0  0
    4.8963   -4.6196    3.5759 C   0  0  0  0  0  0  0  0  0  0  0  0
    6.1520   -5.6332    5.1962 O   0  0  0  0  0  0  0  0  0  0  0  0
    0.5535   -7.4393    7.1523 H   0  0  0  0  0  0  0  0  0  0  0  0
    1.2509   -9.1494    7.3530 H   0  0  0  0  0  0  0  0  0  0  0  0
    1.9501   -9.1705    5.0780 H   0  0  0  0  0  0  0  0  0  0  0  0
   -0.7412   -7.0122    5.2807 H   0  0  0  0  0  0  0  0  0  0  0  0
   -0.7277   -6.3510    3.7471 H   0  0  0  0  0  0  0  0  0  0  0  0
   -1.3677   -9.0035    4.6711 H   0  0  0  0  0  0  0  0  0  0  0  0
   -1.5160   -8.3189    1.7487 H   0  0  0  0  0  0  0  0  0  0  0  0
   -2.6120   -7.7385    2.9988 H   0  0  0  0  0  0  0  0  0  0  0  0
   -2.4816   -9.4578    2.6672 H   0  0  0  0  0  0  0  0  0  0  0  0
    0.3498  -10.4144    4.4589 H   0  0  0  0  0  0  0  0  0  0  0  0
   -0.3976  -10.6046    2.9780 H   0  0  0  0  0  0  0  0  0  0  0  0
    1.9179  -10.9544    2.7167 H   0  0  0  0  0  0  0  0  0  0  0  0
    1.3091   -9.7740    1.6712 H   0  0  0  0  0  0  0  0  0  0  0  0
    3.2742   -9.1742    1.8061 H   0  0  0  0  0  0  0  0  0  0  0  0
    4.1316   -6.9502    1.5950 H   0  0  0  0  0  0  0  0  0  0  0  0
    2.4709   -5.4897    3.8520 H   0  0  0  0  0  0  0  0  0  0  0  0
    2.8392   -6.0063    6.4858 H   0  0  0  0  0  0  0  0  0  0  0  0
    5.5176   -7.7753    5.7865 H   0  0  0  0  0  0  0  0  0  0  0  0
    3.2954   -7.9015    7.6944 H   0  0  0  0  0  0  0  0  0  0  0  0
    4.8248   -7.0602    7.7652 H   0  0  0  0  0  0  0  0  0  0  0  0
    4.7928   -8.8065    7.7345 H   0  0  0  0  0  0  0  0  0  0  0  0
    5.4027   -9.6937    5.3997 H   0  0  0  0  0  0  0  0  0  0  0  0
    2.8061  -10.2355    5.6749 H   0  0  0  0  0  0  0  0  0  0  0  0
    3.6512  -11.5004    3.6810 H   0  0  0  0  0  0  0  0  0  0  0  0
    4.3597  -11.1102    2.1460 H   0  0  0  0  0  0  0  0  0  0  0  0
    5.5639  -11.7446    4.6077 H   0  0  0  0  0  0  0  0  0  0  0  0
    4.9980   -8.6275    0.8426 H   0  0  0  0  0  0  0  0  0  0  0  0
    6.6730   -8.3733    0.9622 H   0  0  0  0  0  0  0  0  0  0  0  0
    5.4955  -10.8465    1.0265 H   0  0  0  0  0  0  0  0  0  0  0  0
    7.6579   -5.7671    3.5123 H   0  0  0  0  0  0  0  0  0  0  0  0
    9.0909   -6.2027    1.7471 H   0  0  0  0  0  0  0  0  0  0  0  0
    8.0296   -7.1324    0.8074 H   0  0  0  0  0  0  0  0  0  0  0  0
    5.5344   -5.8425    0.4553 H   0  0  0  0  0  0  0  0  0  0  0  0
    4.6829   -3.7303   -0.4921 H   0  0  0  0  0  0  0  0  0  0  0  0
    6.2160   -1.7927   -0.8027 H   0  0  0  0  0  0  0  0  0  0  0  0
    8.6257   -1.9821   -0.0891 H   0  0  0  0  0  0  0  0  0  0  0  0
    9.4048   -4.0464    1.0186 H   0  0  0  0  0  0  0  0  0  0  0  0
    5.4221   -6.5692    2.1376 H   0  0  0  0  0  0  0  0  0  0  0  0
    4.2047   -4.6728    2.7357 H   0  0  0  0  0  0  0  0  0  0  0  0
    5.8068   -4.1619    3.1944 H   0  0  0  0  0  0  0  0  0  0  0  0
    4.4717   -3.9146    4.2937 H   0  0  0  0  0  0  0  0  0  0  0  0
    6.4288   -6.4002    5.6836 H   0  0  0  0  0  0  0  0  0  0  0  0
  1  2  2  0
  1 42  1  0
  1 43  1  0
  3  2  1  1
  2 44  1  0
  3 12  1  0
  3 14  1  0
  3  4  1  0
  4  5  1  0
  4 45  1  0
  4 46  1  0
  5  6  1  0
  5  7  1  0
  5 47  1  1
  6 48  1  0
  6 49  1  0
  6 50  1  0
  7  8  1  0
  7 51  1  0
  7 52  1  0
  8  9  1  0
  8 53  1  0
  8 54  1  0
  9 21  1  0
  9 10  1  0
  9 55  1  6
 10 11  1  6
 10 12  1  0
 10 14  1  0
 11 56  1  0
 12 13  2  0
 14 15  1  0
 14 57  1  6
 15 39  1  0
 15 16  1  1
 15 17  1  0
 16 58  1  0
 17 18  1  0
 17 19  1  0
 17 59  1  1
 18 60  1  0
 18 61  1  0
 18 62  1  0
 19 20  1  0
 19 21  1  0
 19 63  1  1
 20 64  1  0
 21 22  1  1
 21 24  1  0
 22 23  1  0
 22 65  1  0
 22 66  1  0
 23 67  1  0
 24 38  1  0
 24 25  1  6
 24 27  1  0
 25 26  1  0
 25 68  1  0
 25 69  1  0
 26 70  1  0
 27 28  2  0
 27 29  1  0
 29 30  1  0
 30 31  1  0
 30 38  1  0
 30 71  1  1
 31 32  1  0
 31 72  1  0
 31 73  1  0
 32 37  1  0
 32 33  2  0
 33 34  1  0
 33 74  1  0
 34 35  2  0
 34 75  1  0
 35 36  1  0
 35 76  1  0
 36 37  2  0
 36 77  1  0
 37 78  1  0
 38 39  1  0
 38 79  1  6
 39 40  1  0
 39 41  1  1
 40 80  1  0
 40 81  1  0
 40 82  1  0
 41 83  1  0
M  END
>  <i_m_ct_stereo_status>  (170) 
1

>  <s_m_source_file>  (170) 
/var/tmp/pbs.5076255.sched01/tmp9rjncpta/544vc0qzzn.sdf

>  <i_m_source_file_index>  (170) 
25

>  <i_lp_mmshare_version>  (170) 
48012

>  <i_f3d_flags>  (170) 
0

>  <s_epik_input>  (170) 
W0NIMl09W0NIXVtDQF0xMltDQEBIXTNbQ0BdKFtPSF0pKEMyPU8pW0NASF0oW0NIMl1bQ0gyXVtDQEBIXShbQ0gyXTEpW0NIM10pW0NAQF00KFtDSDJdW09IXSlbQ0BAXTUoW0NIMl1bT0hdKVtDQEBIXShbQ0BdKFtDSDNdKShbT0hdKVtDQF0zKFtPSF0pW0NAQEhdKFtDSDNdKVtDQEhdNFtPSF0pW0NAQEhdKE9DNT1PKVtDSDJdYzZbY0hdW2NIXVtjSF1bY0hdW2NIXTY=

>  <s_epik_cmdline>  (170) 
J2VwaWtfcHl0aG9uJywgJy1waHQnLCAnMi4wJywgJy1waCcsICc3LjAnLCAnLXRuJywgJzgnLCAnLW1hJywgJzIwMCcsICctaW1hZScsICc8aW5maWxlLm1hZT4nLCAnLW9tYWUnLCAnPG91dGZpbGUubWFlPic=

>  <r_lp_tautomer_probability>  (170) 
1

>  <r_epik_Ionization_Penalty>  (170) 
3.28241e-07

>  <r_epik_Ionization_Penalty_Charging>  (170) 
0

>  <r_epik_Ionization_Penalty_Neutral>  (170) 
3.28241e-07

>  <r_epik_State_Penalty>  (170) 
-0

>  <r_epik_Charging_Adjusted_Penalty>  (170) 
0

>  <i_epik_Tot_Q>  (170) 
0

>  <i_epik_Tot_abs_Q>  (170) 
0

>  <s_epik_Chemistry_Notes>  (170) 
This compound has an ester and may undergo hydrolysis at high or low pH.

>  <s_lp_Force_Field>  (170) 
OPLS3e

>  <r_lp_Energy>  (170) 
277.617

>  <b_lp_Chiralities_Consistent>  (170) 
1

>  <s_lp_Variant>  (170) 
50:0-1

>  <s_i_glide_gridfile>  (170) 
pfpi4k_grid

>  <i_i_glide_lignum>  (170) 
25

>  <i_i_glide_rotatable_bonds>  (170) 
11

>  <r_i_docking_score>  (170) 
-3.22851

>  <r_i_glide_ligand_efficiency>  (170) 
-0.0787442

>  <r_i_glide_ligand_efficiency_sa>  (170) 
-0.271527

>  <r_i_glide_ligand_efficiency_ln>  (170) 
-0.68494

>  <r_i_glide_gscore>  (170) 
-3.22851

>  <r_i_glide_lipo>  (170) 
-0.796797

>  <r_i_glide_hbond>  (170) 
0

>  <r_i_glide_metal>  (170) 
-0

>  <r_i_glide_rewards>  (170) 
-0.0393855

>  <r_i_glide_evdw>  (170) 
-33.7319

>  <r_i_glide_ecoul>  (170) 
-6.08189

>  <r_i_glide_erotb>  (170) 
0.22959

>  <r_i_glide_esite>  (170) 
-0.0230425

>  <r_i_glide_emodel>  (170) 
-46.1091

>  <r_i_glide_energy>  (170) 
-39.8138

>  <r_i_glide_einternal>  (170) 
2.62662

>  <r_i_glide_intrahb_reward>  (170) 
-0

>  <i_i_glide_confnum>  (170) 
2

>  <i_i_glide_posenum>  (170) 
40

>  <r_i_glide_eff_state_penalty>  (170) 
0

>  <ligand_id>  (170) 
50

>  <original_smiles>  (170) 
C=CC12CC(C)CCC3C(O)(C1=O)C2C1(O)C(C)C(O)C3(CO)C2(CO)C(=O)OC(Cc3ccccc3)C2C1(C)O

>  <smiles>  (170) 
[H]OC([H])([H])C12C(=O)OC([H])(C([H])([H])c3c([H])c([H])c([H])c([H])c3[H])C1([H])C(O[H])(C([H])([H])[H])C1(O[H])C([H])(C([H])([H])[H])C([H])(O[H])C2(C([H])([H])O[H])C2([H])C([H])([H])C([H])([H])C([H])(C([H])([H])[H])C([H])([H])C3(C([H])=C([H])[H])C(=O)C2(O[H])C31[H]

$$$$
50:0:2
     RDKit          3D

 83 88  0  0  1  0  0  0  0  0999 V2000
    0.9510   -8.2210    6.6749 C   0  0  0  0  0  0  0  0  0  0  0  0
    1.3794   -8.2415    5.4048 C   0  0  0  0  0  0  0  0  0  0  0  0
    1.1740   -7.1431    4.3836 C   0  0  2  0  0  0  0  0  0  0  0  0
   -0.3612   -7.1195    4.2372 C   0  0  0  0  0  0  0  0  0  0  0  0
   -0.8788   -8.5726    3.7416 C   0  0  1  0  0  0  0  0  0  0  0  0
   -1.9709   -8.4568    2.6626 C   0  0  0  0  0  0  0  0  0  0  0  0
    0.1368   -9.8188    3.4781 C   0  0  0  0  0  0  0  0  0  0  0  0
    1.5621   -9.8608    2.6881 C   0  0  0  0  0  0  0  0  0  0  0  0
    2.9317   -8.9303    2.8170 C   0  0  1  0  0  0  0  0  0  0  0  0
    2.6855   -7.4008    2.7808 C   0  0  1  0  0  0  0  0  0  0  0  0
    3.1545   -6.8183    1.5818 O   0  0  0  0  0  0  0  0  0  0  0  0
    1.2667   -7.1598    2.7644 C   0  0  0  0  0  0  0  0  0  0  0  0
    0.5141   -6.9151    1.8069 O   0  0  0  0  0  0  0  0  0  0  0  0
    2.5889   -6.5018    4.0502 C   0  0  2  0  0  0  0  0  0  0  0  0
    3.8827   -6.5453    4.9650 C   0  0  1  0  0  0  0  0  0  0  0  0
    3.5045   -5.5916    5.9564 O   0  0  0  0  0  0  0  0  0  0  0  0
    4.3651   -7.8522    5.7537 C   0  0  1  0  0  0  0  0  0  0  0  0
    4.2147   -7.8608    7.3015 C   0  0  0  0  0  0  0  0  0  0  0  0
    4.3599   -9.2633    5.0994 C   0  0  1  0  0  0  0  0  0  0  0  0
    3.5982  -10.2264    5.8188 O   0  0  0  0  0  0  0  0  0  0  0  0
    4.3425   -9.3670    3.5304 C   0  0  1  0  0  0  0  0  0  0  0  0
    4.3979  -10.9182    3.2139 C   0  0  0  0  0  0  0  0  0  0  0  0
    5.5107  -11.6701    3.6613 O   0  0  0  0  0  0  0  0  0  0  0  0
    5.6650   -8.5438    2.9512 C   0  0  2  0  0  0  0  0  0  0  0  0
    5.8348   -8.9195    1.4178 C   0  0  0  0  0  0  0  0  0  0  0  0
    6.2486  -10.2460    1.0720 O   0  0  0  0  0  0  0  0  0  0  0  0
    7.0600   -8.8239    3.6218 C   0  0  0  0  0  0  0  0  0  0  0  0
    7.4104   -9.8329    4.2086 O   0  0  0  0  0  0  0  0  0  0  0  0
    7.8784   -7.7572    3.5290 O   0  0  0  0  0  0  0  0  0  0  0  0
    7.3236   -6.6231    2.9220 C   0  0  1  0  0  0  0  0  0  0  0  0
    7.9986   -6.3465    1.5457 C   0  0  0  0  0  0  0  0  0  0  0  0
    7.5179   -5.0725    0.8573 C   0  0  0  0  0  0  0  0  0  0  0  0
    6.1940   -4.9681    0.3744 C   0  0  0  0  0  0  0  0  0  0  0  0
    5.7473   -3.7674   -0.1968 C   0  0  0  0  0  0  0  0  0  0  0  0
    6.6329   -2.6863   -0.3602 C   0  0  0  0  0  0  0  0  0  0  0  0
    7.9743   -2.8068    0.0659 C   0  0  0  0  0  0  0  0  0  0  0  0
    8.3966   -3.9894    0.6869 C   0  0  0  0  0  0  0  0  0  0  0  0
    5.7888   -6.9282    3.0373 C   0  0  2  0  0  0  0  0  0  0  0  0
    5.1401   -5.9817    4.1791 C   0  0  1  0  0  0  0  0  0  0  0  0
    4.8581   -4.5905    3.5415 C   0  0  0  0  0  0  0  0  0  0  0  0
    6.0916   -5.6024    5.1781 O   0  0  0  0  0  0  0  0  0  0  0  0
    0.4331   -7.3681    7.0902 H   0  0  0  0  0  0  0  0  0  0  0  0
    1.1360   -9.0790    7.3037 H   0  0  0  0  0  0  0  0  0  0  0  0
    1.8610   -9.1077    5.0548 H   0  0  0  0  0  0  0  0  0  0  0  0
   -0.8134   -6.9293    5.2064 H   0  0  0  0  0  0  0  0  0  0  0  0
   -0.7766   -6.2786    3.6694 H   0  0  0  0  0  0  0  0  0  0  0  0
   -1.4489   -8.9173    4.6041 H   0  0  0  0  0  0  0  0  0  0  0  0
   -1.5605   -8.2592    1.6759 H   0  0  0  0  0  0  0  0  0  0  0  0
   -2.6629   -7.6545    2.9102 H   0  0  0  0  0  0  0  0  0  0  0  0
   -2.5472   -9.3782    2.5930 H   0  0  0  0  0  0  0  0  0  0  0  0
    0.2603  -10.3424    4.4250 H   0  0  0  0  0  0  0  0  0  0  0  0
   -0.4730  -10.5348    2.9333 H   0  0  0  0  0  0  0  0  0  0  0  0
    1.8378  -10.9090    2.6967 H   0  0  0  0  0  0  0  0  0  0  0  0
    1.2461   -9.7200    1.6505 H   0  0  0  0  0  0  0  0  0  0  0  0
    3.2068   -9.1454    1.7901 H   0  0  0  0  0  0  0  0  0  0  0  0
    4.0932   -6.9352    1.5628 H   0  0  0  0  0  0  0  0  0  0  0  0
    2.4244   -5.4427    3.7998 H   0  0  0  0  0  0  0  0  0  0  0  0
    2.7779   -5.9537    6.4502 H   0  0  0  0  0  0  0  0  0  0  0  0
    5.4404   -7.7358    5.7772 H   0  0  0  0  0  0  0  0  0  0  0  0
    3.1907   -7.8357    7.6556 H   0  0  0  0  0  0  0  0  0  0  0  0
    4.7256   -7.0035    7.7431 H   0  0  0  0  0  0  0  0  0  0  0  0
    4.6816   -8.7497    7.7243 H   0  0  0  0  0  0  0  0  0  0  0  0
    5.3195   -9.6698    5.4081 H   0  0  0  0  0  0  0  0  0  0  0  0
    3.7495  -11.0859    5.4473 H   0  0  0  0  0  0  0  0  0  0  0  0
    3.5560  -11.4597    3.6569 H   0  0  0  0  0  0  0  0  0  0  0  0
    4.2891  -11.0714    2.1433 H   0  0  0  0  0  0  0  0  0  0  0  0
    5.5192  -11.7157    4.6112 H   0  0  0  0  0  0  0  0  0  0  0  0
    4.9372   -8.6786    0.8430 H   0  0  0  0  0  0  0  0  0  0  0  0
    6.5862   -8.3335    0.9426 H   0  0  0  0  0  0  0  0  0  0  0  0
    5.5210  -10.8623    1.0403 H   0  0  0  0  0  0  0  0  0  0  0  0
    7.6137   -5.7586    3.5110 H   0  0  0  0  0  0  0  0  0  0  0  0
    9.0592   -6.2180    1.7668 H   0  0  0  0  0  0  0  0  0  0  0  0
    7.9990   -7.1450    0.8182 H   0  0  0  0  0  0  0  0  0  0  0  0
    5.5187   -5.8062    0.4342 H   0  0  0  0  0  0  0  0  0  0  0  0
    4.7127   -3.6820   -0.5184 H   0  0  0  0  0  0  0  0  0  0  0  0
    6.2777   -1.7703   -0.8194 H   0  0  0  0  0  0  0  0  0  0  0  0
    8.6831   -2.0000   -0.0866 H   0  0  0  0  0  0  0  0  0  0  0  0
    9.4158   -4.0750    1.0337 H   0  0  0  0  0  0  0  0  0  0  0  0
    5.3825   -6.5536    2.1169 H   0  0  0  0  0  0  0  0  0  0  0  0
    4.1742   -4.6432    2.6948 H   0  0  0  0  0  0  0  0  0  0  0  0
    5.7755   -4.1410    3.1667 H   0  0  0  0  0  0  0  0  0  0  0  0
    4.4320   -3.8779    4.2509 H   0  0  0  0  0  0  0  0  0  0  0  0
    6.3525   -6.3662    5.6790 H   0  0  0  0  0  0  0  0  0  0  0  0
  1  2  2  0
  1 42  1  0
  1 43  1  0
  3  2  1  1
  2 44  1  0
  3 12  1  0
  3 14  1  0
  3  4  1  0
  4  5  1  0
  4 45  1  0
  4 46  1  0
  5  6  1  0
  5  7  1  0
  5 47  1  1
  6 48  1  0
  6 49  1  0
  6 50  1  0
  7  8  1  0
  7 51  1  0
  7 52  1  0
  8  9  1  0
  8 53  1  0
  8 54  1  0
  9 21  1  0
  9 10  1  0
  9 55  1  6
 10 11  1  6
 10 12  1  0
 10 14  1  0
 11 56  1  0
 12 13  2  0
 14 15  1  0
 14 57  1  6
 15 39  1  0
 15 16  1  1
 15 17  1  0
 16 58  1  0
 17 18  1  0
 17 19  1  0
 17 59  1  1
 18 60  1  0
 18 61  1  0
 18 62  1  0
 19 20  1  0
 19 21  1  0
 19 63  1  1
 20 64  1  0
 21 22  1  1
 21 24  1  0
 22 23  1  0
 22 65  1  0
 22 66  1  0
 23 67  1  0
 24 38  1  0
 24 25  1  6
 24 27  1  0
 25 26  1  0
 25 68  1  0
 25 69  1  0
 26 70  1  0
 27 28  2  0
 27 29  1  0
 29 30  1  0
 30 31  1  0
 30 38  1  0
 30 71  1  1
 31 32  1  0
 31 72  1  0
 31 73  1  0
 32 37  1  0
 32 33  2  0
 33 34  1  0
 33 74  1  0
 34 35  2  0
 34 75  1  0
 35 36  1  0
 35 76  1  0
 36 37  2  0
 36 77  1  0
 37 78  1  0
 38 39  1  0
 38 79  1  6
 39 40  1  0
 39 41  1  1
 40 80  1  0
 40 81  1  0
 40 82  1  0
 41 83  1  0
M  END
>  <i_m_ct_stereo_status>  (171) 
1

>  <s_m_source_file>  (171) 
/var/tmp/pbs.5076255.sched01/tmp9rjncpta/544vc0qzzn.sdf

>  <i_m_source_file_index>  (171) 
25

>  <i_lp_mmshare_version>  (171) 
48012

>  <i_f3d_flags>  (171) 
0

>  <s_epik_input>  (171) 
W0NIMl09W0NIXVtDQF0xMltDQEBIXTNbQ0BdKFtPSF0pKEMyPU8pW0NASF0oW0NIMl1bQ0gyXVtDQEBIXShbQ0gyXTEpW0NIM10pW0NAQF00KFtDSDJdW09IXSlbQ0BAXTUoW0NIMl1bT0hdKVtDQEBIXShbQ0BdKFtDSDNdKShbT0hdKVtDQF0zKFtPSF0pW0NAQEhdKFtDSDNdKVtDQEhdNFtPSF0pW0NAQEhdKE9DNT1PKVtDSDJdYzZbY0hdW2NIXVtjSF1bY0hdW2NIXTY=

>  <s_epik_cmdline>  (171) 
J2VwaWtfcHl0aG9uJywgJy1waHQnLCAnMi4wJywgJy1waCcsICc3LjAnLCAnLXRuJywgJzgnLCAnLW1hJywgJzIwMCcsICctaW1hZScsICc8aW5maWxlLm1hZT4nLCAnLW9tYWUnLCAnPG91dGZpbGUubWFlPic=

>  <r_lp_tautomer_probability>  (171) 
1

>  <r_epik_Ionization_Penalty>  (171) 
3.28241e-07

>  <r_epik_Ionization_Penalty_Charging>  (171) 
0

>  <r_epik_Ionization_Penalty_Neutral>  (171) 
3.28241e-07

>  <r_epik_State_Penalty>  (171) 
-0

>  <r_epik_Charging_Adjusted_Penalty>  (171) 
0

>  <i_epik_Tot_Q>  (171) 
0

>  <i_epik_Tot_abs_Q>  (171) 
0

>  <s_epik_Chemistry_Notes>  (171) 
This compound has an ester and may undergo hydrolysis at high or low pH.

>  <s_lp_Force_Field>  (171) 
OPLS3e

>  <r_lp_Energy>  (171) 
277.617

>  <b_lp_Chiralities_Consistent>  (171) 
1

>  <s_lp_Variant>  (171) 
50:0-1

>  <s_i_glide_gridfile>  (171) 
pfpi4k_grid

>  <i_i_glide_lignum>  (171) 
25

>  <i_i_glide_rotatable_bonds>  (171) 
11

>  <r_i_docking_score>  (171) 
-3.22497

>  <r_i_glide_ligand_efficiency>  (171) 
-0.0786577

>  <r_i_glide_ligand_efficiency_sa>  (171) 
-0.271229

>  <r_i_glide_ligand_efficiency_ln>  (171) 
-0.684187

>  <r_i_glide_gscore>  (171) 
-3.22497

>  <r_i_glide_lipo>  (171) 
-0.817304

>  <r_i_glide_hbond>  (171) 
0

>  <r_i_glide_metal>  (171) 
-0

>  <r_i_glide_rewards>  (171) 
-0.0369601

>  <r_i_glide_evdw>  (171) 
-33.7902

>  <r_i_glide_ecoul>  (171) 
-5.90373

>  <r_i_glide_erotb>  (171) 
0.22959

>  <r_i_glide_esite>  (171) 
-0.0252221

>  <r_i_glide_emodel>  (171) 
-45.8751

>  <r_i_glide_energy>  (171) 
-39.694

>  <r_i_glide_einternal>  (171) 
2.96626

>  <r_i_glide_intrahb_reward>  (171) 
-0

>  <i_i_glide_confnum>  (171) 
2

>  <i_i_glide_posenum>  (171) 
1

>  <r_i_glide_eff_state_penalty>  (171) 
0

>  <ligand_id>  (171) 
50

>  <original_smiles>  (171) 
C=CC12CC(C)CCC3C(O)(C1=O)C2C1(O)C(C)C(O)C3(CO)C2(CO)C(=O)OC(Cc3ccccc3)C2C1(C)O

>  <smiles>  (171) 
[H]OC([H])([H])C12C(=O)OC([H])(C([H])([H])c3c([H])c([H])c([H])c([H])c3[H])C1([H])C(O[H])(C([H])([H])[H])C1(O[H])C([H])(C([H])([H])[H])C([H])(O[H])C2(C([H])([H])O[H])C2([H])C([H])([H])C([H])([H])C([H])(C([H])([H])[H])C([H])([H])C3(C([H])=C([H])[H])C(=O)C2(O[H])C31[H]

$$$$
51:0:0
     RDKit          3D

 54 58  0  0  1  0  0  0  0  0999 V2000
    2.3460    4.0911    2.8396 C   0  0  0  0  0  0  0  0  0  0  0  0
    1.4120    2.9454    2.9012 N   0  0  0  0  0  0  0  0  0  0  0  0
    1.9756    1.7248    2.2923 C   0  0  0  0  0  0  0  0  0  0  0  0
    0.9587    0.5769    2.2966 C   0  0  0  0  0  0  0  0  0  0  0  0
    0.4900    0.3165    3.6723 N   0  0  0  0  0  0  0  0  0  0  0  0
    0.5236   -0.8902    4.2905 C   0  0  0  0  0  0  0  0  0  0  0  0
    0.0621   -1.0575    5.4229 O   0  0  0  0  0  0  0  0  0  0  0  0
    1.1323   -2.0985    3.5363 C   0  0  2  0  0  0  0  0  0  0  0  0
    0.8462   -3.4474    4.2451 C   0  0  0  0  0  0  0  0  0  0  0  0
    1.4130   -4.5973    3.4597 C   0  0  0  0  0  0  0  0  0  0  0  0
    2.4197   -4.4192    2.5688 C   0  0  0  0  0  0  0  0  0  0  0  0
    2.6716   -5.6306    1.9631 N   0  0  0  0  0  0  0  0  0  0  0  0
    1.8531   -6.6370    2.4274 C   0  0  0  0  0  0  0  0  0  0  0  0
    1.7466   -8.0005    2.1255 C   0  0  0  0  0  0  0  0  0  0  0  0
    0.7863   -8.7815    2.7928 C   0  0  0  0  0  0  0  0  0  0  0  0
   -0.0603   -8.1849    3.7444 C   0  0  0  0  0  0  0  0  0  0  0  0
    0.0553   -6.8069    4.0396 C   0  0  0  0  0  0  0  0  0  0  0  0
    1.0226   -6.0017    3.3918 C   0  0  0  0  0  0  0  0  0  0  0  0
    3.0994   -3.0794    2.3177 C   0  0  2  0  0  0  0  0  0  0  0  0
    2.8769   -2.6197    0.8614 C   0  0  0  0  0  0  0  0  0  0  0  0
    4.6048   -3.1458    2.6272 C   0  0  0  0  0  0  0  0  0  0  0  0
    4.9322   -1.8160    3.3130 C   0  0  0  0  0  0  0  0  0  0  0  0
    3.5772   -1.3592    3.8216 C   0  0  0  0  0  0  0  0  0  0  0  0
    3.4653   -0.4665    4.6589 O   0  0  0  0  0  0  0  0  0  0  0  0
    2.5876   -2.0748    3.2548 N   0  0  0  0  0  0  0  0  0  0  0  0
   -0.0610    1.5144    4.3323 C   0  0  0  0  0  0  0  0  0  0  0  0
    0.9509    2.6754    4.2856 C   0  0  0  0  0  0  0  0  0  0  0  0
    3.3918   -5.7329    1.2649 H   0  0  0  0  0  0  0  0  0  0  0  0
    3.2467    3.8824    3.4190 H   0  0  0  0  0  0  0  0  0  0  0  0
    1.8750    4.9923    3.2379 H   0  0  0  0  0  0  0  0  0  0  0  0
    2.6334    4.2976    1.8077 H   0  0  0  0  0  0  0  0  0  0  0  0
    2.2652    1.9325    1.2729 H   0  0  0  0  0  0  0  0  0  0  0  0
    2.8823    1.4352    2.8269 H   0  0  0  0  0  0  0  0  0  0  0  0
    0.1116    0.8166    1.6522 H   0  0  0  0  0  0  0  0  0  0  0  0
    1.4475   -0.2588    1.7984 H   0  0  0  0  0  0  0  0  0  0  0  0
    0.6149   -2.1531    2.5791 H   0  0  0  0  0  0  0  0  0  0  0  0
    1.2969   -3.4653    5.2394 H   0  0  0  0  0  0  0  0  0  0  0  0
   -0.2254   -3.5941    4.3710 H   0  0  0  0  0  0  0  0  0  0  0  0
    2.4022   -8.4433    1.3966 H   0  0  0  0  0  0  0  0  0  0  0  0
    0.7062   -9.8357    2.5753 H   0  0  0  0  0  0  0  0  0  0  0  0
   -0.7928   -8.7826    4.2647 H   0  0  0  0  0  0  0  0  0  0  0  0
   -0.5915   -6.3547    4.7765 H   0  0  0  0  0  0  0  0  0  0  0  0
    3.3013   -3.3404    0.1625 H   0  0  0  0  0  0  0  0  0  0  0  0
    3.3403   -1.6532    0.6570 H   0  0  0  0  0  0  0  0  0  0  0  0
    1.8161   -2.5373    0.6231 H   0  0  0  0  0  0  0  0  0  0  0  0
    4.8043   -3.9564    3.3352 H   0  0  0  0  0  0  0  0  0  0  0  0
    5.2125   -3.3339    1.7416 H   0  0  0  0  0  0  0  0  0  0  0  0
    5.6548   -1.9349    4.1223 H   0  0  0  0  0  0  0  0  0  0  0  0
    5.3105   -1.0851    2.5975 H   0  0  0  0  0  0  0  0  0  0  0  0
   -0.9855    1.7952    3.8289 H   0  0  0  0  0  0  0  0  0  0  0  0
   -0.3235    1.3559    5.3831 H   0  0  0  0  0  0  0  0  0  0  0  0
    1.8150    2.4099    4.9017 H   0  0  0  0  0  0  0  0  0  0  0  0
    0.5132    3.5711    4.7281 H   0  0  0  0  0  0  0  0  0  0  0  0
    0.6184    3.2168    2.3237 H   0  0  0  0  0  0  0  0  0  0  0  0
  1  2  1  0
  1 29  1  0
  1 30  1  0
  1 31  1  0
  2 27  1  0
  2  3  1  0
  2 54  1  0
  3  4  1  0
  3 32  1  0
  3 33  1  0
  4  5  1  0
  4 34  1  0
  4 35  1  0
  5  6  1  0
  5 26  1  0
  6  7  2  0
  6  8  1  0
  8 25  1  0
  8  9  1  0
  8 36  1  6
  9 10  1  0
  9 37  1  0
  9 38  1  0
 10 18  1  0
 10 11  2  0
 11 12  1  0
 11 19  1  0
 12 28  1  0
 12 13  1  0
 13 18  2  0
 13 14  1  0
 14 15  2  0
 14 39  1  0
 15 16  1  0
 15 40  1  0
 16 17  2  0
 16 41  1  0
 17 18  1  0
 17 42  1  0
 19 25  1  0
 19 20  1  6
 19 21  1  0
 20 43  1  0
 20 44  1  0
 20 45  1  0
 21 22  1  0
 21 46  1  0
 21 47  1  0
 22 23  1  0
 22 48  1  0
 22 49  1  0
 23 24  2  0
 23 25  1  0
 26 27  1  0
 26 50  1  0
 26 51  1  0
 27 52  1  0
 27 53  1  0
M  CHG  1   2   1
M  END
>  <i_m_ct_stereo_status>  (172) 
1

>  <s_m_source_file>  (172) 
/var/tmp/pbs.5076255.sched01/tmp9rjncpta/544vc0qzzn.sdf

>  <i_m_source_file_index>  (172) 
26

>  <i_lp_mmshare_version>  (172) 
48012

>  <i_f3d_flags>  (172) 
0

>  <s_epik_input>  (172) 
W0NIM11OMVtDSDJdW0NIMl1OKFtDSDJdW0NIMl0xKUMoPU8pW0NAQEhdKE4yQyg9TylbQ0gyXVtDSDJdMylbQ0gyXWMoYzRbQ0BAXTIzW0NIM10pYzVjKFtuSF00KVtjSF1bY0hdW2NIXVtjSF01

>  <s_epik_cmdline>  (172) 
J2VwaWtfcHl0aG9uJywgJy1waHQnLCAnMi4wJywgJy1waCcsICc3LjAnLCAnLXRuJywgJzgnLCAnLW1hJywgJzIwMCcsICctaW1hZScsICc8aW5maWxlLm1hZT4nLCAnLW9tYWUnLCAnPG91dGZpbGUubWFlPic=

>  <r_epik_Ionization_Penalty>  (172) 
0.165815

>  <r_epik_Ionization_Penalty_Charging>  (172) 
0.165815

>  <r_epik_Ionization_Penalty_Neutral>  (172) 
1.46637e-09

>  <r_epik_State_Penalty>  (172) 
0.15516

>  <r_epik_Charging_Adjusted_Penalty>  (172) 
0.320975

>  <i_epik_Tot_Q>  (172) 
1

>  <i_epik_Tot_abs_Q>  (172) 
1

>  <s_lp_Force_Field>  (172) 
OPLS3e

>  <r_lp_Energy>  (172) 
44.4639

>  <b_lp_Chiralities_Consistent>  (172) 
1

>  <s_lp_Variant>  (172) 
51:0-1

>  <s_i_glide_gridfile>  (172) 
pfpi4k_grid

>  <i_i_glide_lignum>  (172) 
26

>  <i_i_glide_rotatable_bonds>  (172) 
2

>  <r_i_docking_score>  (172) 
-3.35171

>  <r_i_glide_ligand_efficiency>  (172) 
-0.124137

>  <r_i_glide_ligand_efficiency_sa>  (172) 
-0.372412

>  <r_i_glide_ligand_efficiency_ln>  (172) 
-0.780222

>  <r_i_glide_gscore>  (172) 
-3.35171

>  <r_i_glide_lipo>  (172) 
-0.188821

>  <r_i_glide_hbond>  (172) 
-0.172063

>  <r_i_glide_metal>  (172) 
-0

>  <r_i_glide_rewards>  (172) 
-0.903936

>  <r_i_glide_evdw>  (172) 
-23.4096

>  <r_i_glide_ecoul>  (172) 
-7.24888

>  <r_i_glide_erotb>  (172) 
0.285254

>  <r_i_glide_esite>  (172) 
-0.114331

>  <r_i_glide_emodel>  (172) 
-38.8486

>  <r_i_glide_energy>  (172) 
-30.6585

>  <r_i_glide_einternal>  (172) 
0.000919183

>  <r_i_glide_intrahb_reward>  (172) 
-0

>  <i_i_glide_confnum>  (172) 
5

>  <i_i_glide_posenum>  (172) 
11

>  <r_i_glide_eff_state_penalty>  (172) 
0

>  <ligand_id>  (172) 
51

>  <original_smiles>  (172) 
CN1CCN(C(=O)C2Cc3c([nH]c4ccccc34)C3(C)CCC(=O)N23)CC1

>  <smiles>  (172) 
[H]c1c([H])c([H])c2c(c1[H])c1c(n2[H])C2(C([H])([H])[H])N(C(=O)C([H])([H])C2([H])[H])C([H])(C(=O)N2C([H])([H])C([H])([H])[N+]([H])(C([H])([H])[H])C([H])([H])C2([H])[H])C1([H])[H]

$$$$
51:0:1
     RDKit          3D

 54 58  0  0  1  0  0  0  0  0999 V2000
    1.7899    3.1226    3.0695 C   0  0  0  0  0  0  0  0  0  0  0  0
    2.7591    2.0222    2.8871 N   0  0  0  0  0  0  0  0  0  0  0  0
    3.3828    1.5980    4.1629 C   0  0  0  0  0  0  0  0  0  0  0  0
    4.4332    0.4917    3.9316 C   0  0  0  0  0  0  0  0  0  0  0  0
    3.8598   -0.6256    3.1521 N   0  0  0  0  0  0  0  0  0  0  0  0
    3.9284   -1.9061    3.5880 C   0  0  0  0  0  0  0  0  0  0  0  0
    4.5235   -2.2152    4.6195 O   0  0  0  0  0  0  0  0  0  0  0  0
    3.2185   -3.0080    2.7567 C   0  0  2  0  0  0  0  0  0  0  0  0
    2.7192   -4.1880    3.6323 C   0  0  0  0  0  0  0  0  0  0  0  0
    1.9886   -5.1880    2.7729 C   0  0  0  0  0  0  0  0  0  0  0  0
    2.2209   -5.2775    1.4358 C   0  0  0  0  0  0  0  0  0  0  0  0
    1.3735   -6.2317    0.9156 N   0  0  0  0  0  0  0  0  0  0  0  0
    0.5501   -6.7892    1.8766 C   0  0  0  0  0  0  0  0  0  0  0  0
   -0.4476   -7.7601    1.8335 C   0  0  0  0  0  0  0  0  0  0  0  0
   -1.1157   -8.1280    3.0181 C   0  0  0  0  0  0  0  0  0  0  0  0
   -0.7804   -7.4849    4.2210 C   0  0  0  0  0  0  0  0  0  0  0  0
    0.2225   -6.4957    4.2532 C   0  0  0  0  0  0  0  0  0  0  0  0
    0.9238   -6.1297    3.0863 C   0  0  0  0  0  0  0  0  0  0  0  0
    3.2539   -4.4349    0.6859 C   0  0  2  0  0  0  0  0  0  0  0  0
    2.5728   -3.5395   -0.3675 C   0  0  0  0  0  0  0  0  0  0  0  0
    4.3451   -5.3108    0.0337 C   0  0  0  0  0  0  0  0  0  0  0  0
    5.6475   -4.5685    0.2431 C   0  0  0  0  0  0  0  0  0  0  0  0
    5.3218   -3.6513    1.4113 C   0  0  0  0  0  0  0  0  0  0  0  0
    6.2107   -3.0747    2.0390 O   0  0  0  0  0  0  0  0  0  0  0  0
    3.9937   -3.6041    1.6394 N   0  0  0  0  0  0  0  0  0  0  0  0
    3.2338   -0.2086    1.8845 C   0  0  0  0  0  0  0  0  0  0  0  0
    2.1773    0.8750    2.1532 C   0  0  0  0  0  0  0  0  0  0  0  0
    1.4283   -6.4979   -0.0543 H   0  0  0  0  0  0  0  0  0  0  0  0
    0.9388    2.7981    3.6710 H   0  0  0  0  0  0  0  0  0  0  0  0
    1.4193    3.4363    2.0934 H   0  0  0  0  0  0  0  0  0  0  0  0
    2.2443    3.9938    3.5495 H   0  0  0  0  0  0  0  0  0  0  0  0
    3.8449    2.4604    4.6567 H   0  0  0  0  0  0  0  0  0  0  0  0
    2.6061    1.2288    4.8370 H   0  0  0  0  0  0  0  0  0  0  0  0
    5.2929    0.8909    3.3977 H   0  0  0  0  0  0  0  0  0  0  0  0
    4.8277    0.1886    4.9075 H   0  0  0  0  0  0  0  0  0  0  0  0
    2.3071   -2.5650    2.3707 H   0  0  0  0  0  0  0  0  0  0  0  0
    3.5388   -4.7015    4.1479 H   0  0  0  0  0  0  0  0  0  0  0  0
    2.0297   -3.8089    4.3864 H   0  0  0  0  0  0  0  0  0  0  0  0
   -0.6962   -8.2443    0.9050 H   0  0  0  0  0  0  0  0  0  0  0  0
   -1.8620   -8.9033    2.9996 H   0  0  0  0  0  0  0  0  0  0  0  0
   -1.2757   -7.7708    5.1352 H   0  0  0  0  0  0  0  0  0  0  0  0
    0.4802   -6.0079    5.1824 H   0  0  0  0  0  0  0  0  0  0  0  0
    2.0500   -4.1466   -1.1103 H   0  0  0  0  0  0  0  0  0  0  0  0
    3.2875   -2.9158   -0.9059 H   0  0  0  0  0  0  0  0  0  0  0  0
    1.8325   -2.8778    0.0830 H   0  0  0  0  0  0  0  0  0  0  0  0
    4.3913   -6.2857    0.5334 H   0  0  0  0  0  0  0  0  0  0  0  0
    4.2223   -5.4835   -1.0306 H   0  0  0  0  0  0  0  0  0  0  0  0
    6.4792   -5.2457    0.4468 H   0  0  0  0  0  0  0  0  0  0  0  0
    5.8921   -3.9615   -0.6305 H   0  0  0  0  0  0  0  0  0  0  0  0
    4.0173    0.1948    1.2345 H   0  0  0  0  0  0  0  0  0  0  0  0
    2.7376   -0.9970    1.3225 H   0  0  0  0  0  0  0  0  0  0  0  0
    1.3629    0.4568    2.7480 H   0  0  0  0  0  0  0  0  0  0  0  0
    1.7284    1.2120    1.2201 H   0  0  0  0  0  0  0  0  0  0  0  0
    3.5266    2.3830    2.3265 H   0  0  0  0  0  0  0  0  0  0  0  0
  1  2  1  0
  1 29  1  0
  1 30  1  0
  1 31  1  0
  2 27  1  0
  2  3  1  0
  2 54  1  0
  3  4  1  0
  3 32  1  0
  3 33  1  0
  4  5  1  0
  4 34  1  0
  4 35  1  0
  5  6  1  0
  5 26  1  0
  6  7  2  0
  6  8  1  0
  8 25  1  0
  8  9  1  0
  8 36  1  6
  9 10  1  0
  9 37  1  0
  9 38  1  0
 10 18  1  0
 10 11  2  0
 11 12  1  0
 11 19  1  0
 12 28  1  0
 12 13  1  0
 13 18  2  0
 13 14  1  0
 14 15  2  0
 14 39  1  0
 15 16  1  0
 15 40  1  0
 16 17  2  0
 16 41  1  0
 17 18  1  0
 17 42  1  0
 19 25  1  0
 19 20  1  6
 19 21  1  0
 20 43  1  0
 20 44  1  0
 20 45  1  0
 21 22  1  0
 21 46  1  0
 21 47  1  0
 22 23  1  0
 22 48  1  0
 22 49  1  0
 23 24  2  0
 23 25  1  0
 26 27  1  0
 26 50  1  0
 26 51  1  0
 27 52  1  0
 27 53  1  0
M  CHG  1   2   1
M  END
>  <i_m_ct_stereo_status>  (173) 
1

>  <s_m_source_file>  (173) 
/var/tmp/pbs.5076255.sched01/tmp9rjncpta/544vc0qzzn.sdf

>  <i_m_source_file_index>  (173) 
26

>  <i_lp_mmshare_version>  (173) 
48012

>  <i_f3d_flags>  (173) 
0

>  <s_epik_input>  (173) 
W0NIM11OMVtDSDJdW0NIMl1OKFtDSDJdW0NIMl0xKUMoPU8pW0NAQEhdKE4yQyg9TylbQ0gyXVtDSDJdMylbQ0gyXWMoYzRbQ0BAXTIzW0NIM10pYzVjKFtuSF00KVtjSF1bY0hdW2NIXVtjSF01

>  <s_epik_cmdline>  (173) 
J2VwaWtfcHl0aG9uJywgJy1waHQnLCAnMi4wJywgJy1waCcsICc3LjAnLCAnLXRuJywgJzgnLCAnLW1hJywgJzIwMCcsICctaW1hZScsICc8aW5maWxlLm1hZT4nLCAnLW9tYWUnLCAnPG91dGZpbGUubWFlPic=

>  <r_epik_Ionization_Penalty>  (173) 
0.165815

>  <r_epik_Ionization_Penalty_Charging>  (173) 
0.165815

>  <r_epik_Ionization_Penalty_Neutral>  (173) 
1.46637e-09

>  <r_epik_State_Penalty>  (173) 
0.15516

>  <r_epik_Charging_Adjusted_Penalty>  (173) 
0.320975

>  <i_epik_Tot_Q>  (173) 
1

>  <i_epik_Tot_abs_Q>  (173) 
1

>  <s_lp_Force_Field>  (173) 
OPLS3e

>  <r_lp_Energy>  (173) 
44.4639

>  <b_lp_Chiralities_Consistent>  (173) 
1

>  <s_lp_Variant>  (173) 
51:0-1

>  <s_i_glide_gridfile>  (173) 
pfpi4k_grid

>  <i_i_glide_lignum>  (173) 
26

>  <i_i_glide_rotatable_bonds>  (173) 
2

>  <r_i_docking_score>  (173) 
-3.10775

>  <r_i_glide_ligand_efficiency>  (173) 
-0.115102

>  <r_i_glide_ligand_efficiency_sa>  (173) 
-0.345305

>  <r_i_glide_ligand_efficiency_ln>  (173) 
-0.723432

>  <r_i_glide_gscore>  (173) 
-3.10775

>  <r_i_glide_lipo>  (173) 
-0.093213

>  <r_i_glide_hbond>  (173) 
0

>  <r_i_glide_metal>  (173) 
-0

>  <r_i_glide_rewards>  (173) 
-1.00288

>  <r_i_glide_evdw>  (173) 
-22.4981

>  <r_i_glide_ecoul>  (173) 
-7.14301

>  <r_i_glide_erotb>  (173) 
0.285254

>  <r_i_glide_esite>  (173) 
-0.100548

>  <r_i_glide_emodel>  (173) 
-36.2283

>  <r_i_glide_energy>  (173) 
-29.6411

>  <r_i_glide_einternal>  (173) 
1.47827

>  <r_i_glide_intrahb_reward>  (173) 
-0

>  <i_i_glide_confnum>  (173) 
5

>  <i_i_glide_posenum>  (173) 
3

>  <r_i_glide_eff_state_penalty>  (173) 
0

>  <ligand_id>  (173) 
51

>  <original_smiles>  (173) 
CN1CCN(C(=O)C2Cc3c([nH]c4ccccc34)C3(C)CCC(=O)N23)CC1

>  <smiles>  (173) 
[H]c1c([H])c([H])c2c(c1[H])c1c(n2[H])C2(C([H])([H])[H])N(C(=O)C([H])([H])C2([H])[H])C([H])(C(=O)N2C([H])([H])C([H])([H])[N+]([H])(C([H])([H])[H])C([H])([H])C2([H])[H])C1([H])[H]

$$$$
51:0:2
     RDKit          3D

 54 58  0  0  1  0  0  0  0  0999 V2000
    2.1808    3.5260    2.4067 C   0  0  0  0  0  0  0  0  0  0  0  0
    1.3366    2.3852    2.7939 N   0  0  0  0  0  0  0  0  0  0  0  0
    1.7880    1.1146    2.1868 C   0  0  0  0  0  0  0  0  0  0  0  0
    0.8512   -0.0389    2.5427 C   0  0  0  0  0  0  0  0  0  0  0  0
    0.6916   -0.1596    4.0159 N   0  0  0  0  0  0  0  0  0  0  0  0
    0.8704   -1.2915    4.7347 C   0  0  0  0  0  0  0  0  0  0  0  0
    0.6885   -1.3268    5.9524 O   0  0  0  0  0  0  0  0  0  0  0  0
    1.2780   -2.5950    4.0069 C   0  0  2  0  0  0  0  0  0  0  0  0
    0.6083   -3.8436    4.6208 C   0  0  0  0  0  0  0  0  0  0  0  0
    1.0083   -5.0662    3.8473 C   0  0  0  0  0  0  0  0  0  0  0  0
    2.1353   -5.1043    3.0997 C   0  0  0  0  0  0  0  0  0  0  0  0
    2.1762   -6.3210    2.4525 N   0  0  0  0  0  0  0  0  0  0  0  0
    1.0947   -7.1225    2.7399 C   0  0  0  0  0  0  0  0  0  0  0  0
    0.7221   -8.4100    2.3416 C   0  0  0  0  0  0  0  0  0  0  0  0
   -0.4884   -8.9635    2.8090 C   0  0  0  0  0  0  0  0  0  0  0  0
   -1.3054   -8.2098    3.6726 C   0  0  0  0  0  0  0  0  0  0  0  0
   -0.9080   -6.9111    4.0778 C   0  0  0  0  0  0  0  0  0  0  0  0
    0.3088   -6.3390    3.6277 C   0  0  0  0  0  0  0  0  0  0  0  0
    3.1326   -3.9586    3.0287 C   0  0  2  0  0  0  0  0  0  0  0  0
    3.2483   -3.4170    1.5852 C   0  0  0  0  0  0  0  0  0  0  0  0
    4.5168   -4.3998    3.5386 C   0  0  0  0  0  0  0  0  0  0  0  0
    5.0425   -3.2037    4.3498 C   0  0  0  0  0  0  0  0  0  0  0  0
    3.7666   -2.4531    4.6773 C   0  0  0  0  0  0  0  0  0  0  0  0
    3.7485   -1.5798    5.5418 O   0  0  0  0  0  0  0  0  0  0  0  0
    2.7282   -2.8873    3.9369 N   0  0  0  0  0  0  0  0  0  0  0  0
    0.2519    1.1029    4.6509 C   0  0  0  0  0  0  0  0  0  0  0  0
    1.1864    2.2618    4.2642 C   0  0  0  0  0  0  0  0  0  0  0  0
    2.9528   -6.5808    1.8635 H   0  0  0  0  0  0  0  0  0  0  0  0
    3.2069    3.3979    2.7670 H   0  0  0  0  0  0  0  0  0  0  0  0
    1.7906    4.4695    2.7968 H   0  0  0  0  0  0  0  0  0  0  0  0
    2.1926    3.6337    1.3243 H   0  0  0  0  0  0  0  0  0  0  0  0
    1.8587    1.1981    1.1036 H   0  0  0  0  0  0  0  0  0  0  0  0
    2.7895    0.8785    2.5522 H   0  0  0  0  0  0  0  0  0  0  0  0
   -0.1300    0.1214    2.0811 H   0  0  0  0  0  0  0  0  0  0  0  0
    1.3039   -0.8793    2.0240 H   0  0  0  0  0  0  0  0  0  0  0  0
    0.8502   -2.6250    3.0038 H   0  0  0  0  0  0  0  0  0  0  0  0
    0.8795   -3.9944    5.6639 H   0  0  0  0  0  0  0  0  0  0  0  0
   -0.4695   -3.7188    4.5676 H   0  0  0  0  0  0  0  0  0  0  0  0
    1.3552   -8.9737    1.6813 H   0  0  0  0  0  0  0  0  0  0  0  0
   -0.7760   -9.9586    2.5127 H   0  0  0  0  0  0  0  0  0  0  0  0
   -2.2235   -8.6308    4.0438 H   0  0  0  0  0  0  0  0  0  0  0  0
   -1.5347   -6.3403    4.7417 H   0  0  0  0  0  0  0  0  0  0  0  0
    3.5945   -4.2007    0.9141 H   0  0  0  0  0  0  0  0  0  0  0  0
    3.9556   -2.5900    1.5149 H   0  0  0  0  0  0  0  0  0  0  0  0
    2.2866   -3.0723    1.2031 H   0  0  0  0  0  0  0  0  0  0  0  0
    4.4110   -5.2538    4.2136 H   0  0  0  0  0  0  0  0  0  0  0  0
    5.1903   -4.7034    2.7376 H   0  0  0  0  0  0  0  0  0  0  0  0
    5.5870   -3.5205    5.2428 H   0  0  0  0  0  0  0  0  0  0  0  0
    5.6877   -2.5712    3.7384 H   0  0  0  0  0  0  0  0  0  0  0  0
   -0.7669    1.3150    4.3296 H   0  0  0  0  0  0  0  0  0  0  0  0
    0.2203    1.0780    5.7433 H   0  0  0  0  0  0  0  0  0  0  0  0
    2.1724    2.0834    4.7004 H   0  0  0  0  0  0  0  0  0  0  0  0
    0.8202    3.2049    4.6830 H   0  0  0  0  0  0  0  0  0  0  0  0
    0.4240    2.5850    2.3936 H   0  0  0  0  0  0  0  0  0  0  0  0
  1  2  1  0
  1 29  1  0
  1 30  1  0
  1 31  1  0
  2 27  1  0
  2  3  1  0
  2 54  1  0
  3  4  1  0
  3 32  1  0
  3 33  1  0
  4  5  1  0
  4 34  1  0
  4 35  1  0
  5  6  1  0
  5 26  1  0
  6  7  2  0
  6  8  1  0
  8 25  1  0
  8  9  1  0
  8 36  1  6
  9 10  1  0
  9 37  1  0
  9 38  1  0
 10 18  1  0
 10 11  2  0
 11 12  1  0
 11 19  1  0
 12 28  1  0
 12 13  1  0
 13 18  2  0
 13 14  1  0
 14 15  2  0
 14 39  1  0
 15 16  1  0
 15 40  1  0
 16 17  2  0
 16 41  1  0
 17 18  1  0
 17 42  1  0
 19 25  1  0
 19 20  1  6
 19 21  1  0
 20 43  1  0
 20 44  1  0
 20 45  1  0
 21 22  1  0
 21 46  1  0
 21 47  1  0
 22 23  1  0
 22 48  1  0
 22 49  1  0
 23 24  2  0
 23 25  1  0
 26 27  1  0
 26 50  1  0
 26 51  1  0
 27 52  1  0
 27 53  1  0
M  CHG  1   2   1
M  END
>  <i_m_ct_stereo_status>  (174) 
1

>  <s_m_source_file>  (174) 
/var/tmp/pbs.5076255.sched01/tmp9rjncpta/544vc0qzzn.sdf

>  <i_m_source_file_index>  (174) 
26

>  <i_lp_mmshare_version>  (174) 
48012

>  <i_f3d_flags>  (174) 
0

>  <s_epik_input>  (174) 
W0NIM11OMVtDSDJdW0NIMl1OKFtDSDJdW0NIMl0xKUMoPU8pW0NAQEhdKE4yQyg9TylbQ0gyXVtDSDJdMylbQ0gyXWMoYzRbQ0BAXTIzW0NIM10pYzVjKFtuSF00KVtjSF1bY0hdW2NIXVtjSF01

>  <s_epik_cmdline>  (174) 
J2VwaWtfcHl0aG9uJywgJy1waHQnLCAnMi4wJywgJy1waCcsICc3LjAnLCAnLXRuJywgJzgnLCAnLW1hJywgJzIwMCcsICctaW1hZScsICc8aW5maWxlLm1hZT4nLCAnLW9tYWUnLCAnPG91dGZpbGUubWFlPic=

>  <r_epik_Ionization_Penalty>  (174) 
0.165815

>  <r_epik_Ionization_Penalty_Charging>  (174) 
0.165815

>  <r_epik_Ionization_Penalty_Neutral>  (174) 
1.46637e-09

>  <r_epik_State_Penalty>  (174) 
0.15516

>  <r_epik_Charging_Adjusted_Penalty>  (174) 
0.320975

>  <i_epik_Tot_Q>  (174) 
1

>  <i_epik_Tot_abs_Q>  (174) 
1

>  <s_lp_Force_Field>  (174) 
OPLS3e

>  <r_lp_Energy>  (174) 
44.4639

>  <b_lp_Chiralities_Consistent>  (174) 
1

>  <s_lp_Variant>  (174) 
51:0-1

>  <s_i_glide_gridfile>  (174) 
pfpi4k_grid

>  <i_i_glide_lignum>  (174) 
26

>  <i_i_glide_rotatable_bonds>  (174) 
2

>  <r_i_docking_score>  (174) 
-2.83898

>  <r_i_glide_ligand_efficiency>  (174) 
-0.105147

>  <r_i_glide_ligand_efficiency_sa>  (174) 
-0.315442

>  <r_i_glide_ligand_efficiency_ln>  (174) 
-0.660867

>  <r_i_glide_gscore>  (174) 
-2.83898

>  <r_i_glide_lipo>  (174) 
-0.0733921

>  <r_i_glide_hbond>  (174) 
-0.00350781

>  <r_i_glide_metal>  (174) 
-0

>  <r_i_glide_rewards>  (174) 
-0.90417

>  <r_i_glide_evdw>  (174) 
-21.8726

>  <r_i_glide_ecoul>  (174) 
-6.40244

>  <r_i_glide_erotb>  (174) 
0.285254

>  <r_i_glide_esite>  (174) 
-0.0891655

>  <r_i_glide_emodel>  (174) 
-34.8194

>  <r_i_glide_energy>  (174) 
-28.2751

>  <r_i_glide_einternal>  (174) 
0.687278

>  <r_i_glide_intrahb_reward>  (174) 
-0

>  <i_i_glide_confnum>  (174) 
5

>  <i_i_glide_posenum>  (174) 
12

>  <r_i_glide_eff_state_penalty>  (174) 
0

>  <ligand_id>  (174) 
51

>  <original_smiles>  (174) 
CN1CCN(C(=O)C2Cc3c([nH]c4ccccc34)C3(C)CCC(=O)N23)CC1

>  <smiles>  (174) 
[H]c1c([H])c([H])c2c(c1[H])c1c(n2[H])C2(C([H])([H])[H])N(C(=O)C([H])([H])C2([H])[H])C([H])(C(=O)N2C([H])([H])C([H])([H])[N+]([H])(C([H])([H])[H])C([H])([H])C2([H])[H])C1([H])[H]

$$$$
51:1:0
     RDKit          3D

 53 57  0  0  1  0  0  0  0  0999 V2000
   -1.0931    2.4964    3.1555 C   0  0  0  0  0  0  0  0  0  0  0  0
    0.1120    1.7569    3.4668 N   0  0  0  0  0  0  0  0  0  0  0  0
    1.2619    2.3863    2.8175 C   0  0  0  0  0  0  0  0  0  0  0  0
    2.5422    1.5959    3.1559 C   0  0  0  0  0  0  0  0  0  0  0  0
    2.3998    0.1961    2.7172 N   0  0  0  0  0  0  0  0  0  0  0  0
    3.3166   -0.4199    1.9258 C   0  0  0  0  0  0  0  0  0  0  0  0
    4.3011    0.1921    1.5606 O   0  0  0  0  0  0  0  0  0  0  0  0
    3.1125   -1.8629    1.4010 C   0  0  2  0  0  0  0  0  0  0  0  0
    2.9953   -2.9434    2.5348 C   0  0  0  0  0  0  0  0  0  0  0  0
    2.6499   -4.2776    1.9394 C   0  0  0  0  0  0  0  0  0  0  0  0
    2.9322   -4.5668    0.6455 C   0  0  0  0  0  0  0  0  0  0  0  0
    2.4556   -5.8348    0.3873 N   0  0  0  0  0  0  0  0  0  0  0  0
    1.8454   -6.4152    1.4814 C   0  0  0  0  0  0  0  0  0  0  0  0
    1.2509   -7.6635    1.7071 C   0  0  0  0  0  0  0  0  0  0  0  0
    0.6911   -7.9539    2.9674 C   0  0  0  0  0  0  0  0  0  0  0  0
    0.7257   -6.9759    3.9795 C   0  0  0  0  0  0  0  0  0  0  0  0
    1.3310   -5.7215    3.7412 C   0  0  0  0  0  0  0  0  0  0  0  0
    1.9290   -5.4147    2.4926 C   0  0  0  0  0  0  0  0  0  0  0  0
    3.6536   -3.6298   -0.3052 C   0  0  2  0  0  0  0  0  0  0  0  0
    2.7551   -3.2580   -1.5083 C   0  0  0  0  0  0  0  0  0  0  0  0
    4.9607   -4.2841   -0.8110 C   0  0  0  0  0  0  0  0  0  0  0  0
    6.0011   -3.1764   -0.7935 C   0  0  0  0  0  0  0  0  0  0  0  0
    5.4157   -2.1992    0.1937 C   0  0  0  0  0  0  0  0  0  0  0  0
    6.1710   -1.3807    0.7137 O   0  0  0  0  0  0  0  0  0  0  0  0
    4.0922   -2.4175    0.4084 N   0  0  0  0  0  0  0  0  0  0  0  0
    1.1773   -0.4326    3.2467 C   0  0  0  0  0  0  0  0  0  0  0  0
   -0.0510    0.4135    2.9376 C   0  0  0  0  0  0  0  0  0  0  0  0
    2.6132   -6.2632   -0.5187 H   0  0  0  0  0  0  0  0  0  0  0  0
   -1.2524    2.5568    2.0782 H   0  0  0  0  0  0  0  0  0  0  0  0
   -1.0211    3.5067    3.5529 H   0  0  0  0  0  0  0  0  0  0  0  0
   -1.9592    2.0064    3.5993 H   0  0  0  0  0  0  0  0  0  0  0  0
    1.1305    2.4239    1.7308 H   0  0  0  0  0  0  0  0  0  0  0  0
    1.3725    3.4157    3.1682 H   0  0  0  0  0  0  0  0  0  0  0  0
    3.3723    2.1122    2.6756 H   0  0  0  0  0  0  0  0  0  0  0  0
    2.7670    1.6251    4.2238 H   0  0  0  0  0  0  0  0  0  0  0  0
    2.1575   -1.7952    0.8835 H   0  0  0  0  0  0  0  0  0  0  0  0
    3.9463   -3.0392    3.0701 H   0  0  0  0  0  0  0  0  0  0  0  0
    2.2234   -2.7757    3.2855 H   0  0  0  0  0  0  0  0  0  0  0  0
    1.2462   -8.4002    0.9208 H   0  0  0  0  0  0  0  0  0  0  0  0
    0.2482   -8.9216    3.1543 H   0  0  0  0  0  0  0  0  0  0  0  0
    0.3141   -7.1918    4.9546 H   0  0  0  0  0  0  0  0  0  0  0  0
    1.3656   -4.9818    4.5244 H   0  0  0  0  0  0  0  0  0  0  0  0
    2.4690   -4.1419   -2.0717 H   0  0  0  0  0  0  0  0  0  0  0  0
    3.2531   -2.5684   -2.1963 H   0  0  0  0  0  0  0  0  0  0  0  0
    1.8154   -2.8132   -1.1936 H   0  0  0  0  0  0  0  0  0  0  0  0
    5.2824   -5.0651   -0.1131 H   0  0  0  0  0  0  0  0  0  0  0  0
    4.8650   -4.7398   -1.8000 H   0  0  0  0  0  0  0  0  0  0  0  0
    6.9793   -3.5167   -0.4483 H   0  0  0  0  0  0  0  0  0  0  0  0
    6.0929   -2.6805   -1.7600 H   0  0  0  0  0  0  0  0  0  0  0  0
    0.9164   -1.3715    2.7655 H   0  0  0  0  0  0  0  0  0  0  0  0
    1.2993   -0.6025    4.3264 H   0  0  0  0  0  0  0  0  0  0  0  0
   -0.9139   -0.0755    3.3893 H   0  0  0  0  0  0  0  0  0  0  0  0
   -0.1943    0.4229    1.8564 H   0  0  0  0  0  0  0  0  0  0  0  0
  1  2  1  0
  1 29  1  0
  1 30  1  0
  1 31  1  0
  2 27  1  0
  2  3  1  0
  3  4  1  0
  3 32  1  0
  3 33  1  0
  4  5  1  0
  4 34  1  0
  4 35  1  0
  5  6  1  0
  5 26  1  0
  6  7  2  0
  6  8  1  0
  8 25  1  0
  8  9  1  0
  8 36  1  6
  9 10  1  0
  9 37  1  0
  9 38  1  0
 10 18  1  0
 10 11  2  0
 11 12  1  0
 11 19  1  0
 12 28  1  0
 12 13  1  0
 13 18  2  0
 13 14  1  0
 14 15  2  0
 14 39  1  0
 15 16  1  0
 15 40  1  0
 16 17  2  0
 16 41  1  0
 17 18  1  0
 17 42  1  0
 19 25  1  0
 19 20  1  6
 19 21  1  0
 20 43  1  0
 20 44  1  0
 20 45  1  0
 21 22  1  0
 21 46  1  0
 21 47  1  0
 22 23  1  0
 22 48  1  0
 22 49  1  0
 23 24  2  0
 23 25  1  0
 26 27  1  0
 26 50  1  0
 26 51  1  0
 27 52  1  0
 27 53  1  0
M  END
>  <i_m_ct_stereo_status>  (175) 
1

>  <s_m_source_file>  (175) 
/var/tmp/pbs.5076255.sched01/tmp9rjncpta/544vc0qzzn.sdf

>  <i_m_source_file_index>  (175) 
27

>  <i_lp_mmshare_version>  (175) 
48012

>  <i_f3d_flags>  (175) 
0

>  <s_epik_input>  (175) 
W0NIM11OMVtDSDJdW0NIMl1OKFtDSDJdW0NIMl0xKUMoPU8pW0NAQEhdKE4yQyg9TylbQ0gyXVtDSDJdMylbQ0gyXWMoYzRbQ0BAXTIzW0NIM10pYzVjKFtuSF00KVtjSF1bY0hdW2NIXVtjSF01

>  <s_epik_cmdline>  (175) 
J2VwaWtfcHl0aG9uJywgJy1waHQnLCAnMi4wJywgJy1waCcsICc3LjAnLCAnLXRuJywgJzgnLCAnLW1hJywgJzIwMCcsICctaW1hZScsICc8aW5maWxlLm1hZT4nLCAnLW9tYWUnLCAnPG91dGZpbGUubWFlPic=

>  <r_epik_Ionization_Penalty>  (175) 
0.835478

>  <r_epik_Ionization_Penalty_Charging>  (175) 
0

>  <r_epik_Ionization_Penalty_Neutral>  (175) 
0.835478

>  <r_epik_State_Penalty>  (175) 
0.869743

>  <r_epik_Charging_Adjusted_Penalty>  (175) 
0.869743

>  <i_epik_Tot_Q>  (175) 
0

>  <i_epik_Tot_abs_Q>  (175) 
0

>  <s_lp_Force_Field>  (175) 
OPLS3e

>  <r_lp_Energy>  (175) 
52.1416

>  <b_lp_Chiralities_Consistent>  (175) 
1

>  <s_lp_Variant>  (175) 
51:0-2

>  <s_i_glide_gridfile>  (175) 
pfpi4k_grid

>  <i_i_glide_lignum>  (175) 
27

>  <i_i_glide_rotatable_bonds>  (175) 
2

>  <r_i_docking_score>  (175) 
-3.301

>  <r_i_glide_ligand_efficiency>  (175) 
-0.122259

>  <r_i_glide_ligand_efficiency_sa>  (175) 
-0.366778

>  <r_i_glide_ligand_efficiency_ln>  (175) 
-0.768418

>  <r_i_glide_gscore>  (175) 
-3.301

>  <r_i_glide_lipo>  (175) 
-0.174128

>  <r_i_glide_hbond>  (175) 
-0.302659

>  <r_i_glide_metal>  (175) 
-0

>  <r_i_glide_rewards>  (175) 
-0.939271

>  <r_i_glide_evdw>  (175) 
-25.9392

>  <r_i_glide_ecoul>  (175) 
-5.36833

>  <r_i_glide_erotb>  (175) 
0.286657

>  <r_i_glide_esite>  (175) 
-0.0693886

>  <r_i_glide_emodel>  (175) 
-32.6306

>  <r_i_glide_energy>  (175) 
-31.3075

>  <r_i_glide_einternal>  (175) 
9.57441

>  <r_i_glide_intrahb_reward>  (175) 
-0

>  <i_i_glide_confnum>  (175) 
2

>  <i_i_glide_posenum>  (175) 
20

>  <r_i_glide_eff_state_penalty>  (175) 
0

>  <ligand_id>  (175) 
51

>  <original_smiles>  (175) 
CN1CCN(C(=O)C2Cc3c([nH]c4ccccc34)C3(C)CCC(=O)N23)CC1

>  <smiles>  (175) 
[H]c1c([H])c([H])c2c(c1[H])c1c(n2[H])C2(C([H])([H])[H])N(C(=O)C([H])([H])C2([H])[H])C([H])(C(=O)N2C([H])([H])C([H])([H])N(C([H])([H])[H])C([H])([H])C2([H])[H])C1([H])[H]

$$$$
51:1:1
     RDKit          3D

 53 57  0  0  1  0  0  0  0  0999 V2000
    8.3865   -2.7661   -1.2669 C   0  0  0  0  0  0  0  0  0  0  0  0
    7.1086   -2.5302   -0.6090 N   0  0  0  0  0  0  0  0  0  0  0  0
    7.3324   -2.2286    0.8014 C   0  0  0  0  0  0  0  0  0  0  0  0
    5.9876   -1.9944    1.5300 C   0  0  0  0  0  0  0  0  0  0  0  0
    5.1299   -3.1867    1.3986 N   0  0  0  0  0  0  0  0  0  0  0  0
    4.5502   -3.7940    2.4654 C   0  0  0  0  0  0  0  0  0  0  0  0
    4.5780   -3.2906    3.5939 O   0  0  0  0  0  0  0  0  0  0  0  0
    3.8603   -5.1684    2.2764 C   0  0  2  0  0  0  0  0  0  0  0  0
    2.6439   -5.3778    3.2071 C   0  0  0  0  0  0  0  0  0  0  0  0
    2.0301   -6.7277    2.9414 C   0  0  0  0  0  0  0  0  0  0  0  0
    2.7291   -7.7358    2.3703 C   0  0  0  0  0  0  0  0  0  0  0  0
    1.8887   -8.8131    2.2077 N   0  0  0  0  0  0  0  0  0  0  0  0
    0.6216   -8.5559    2.6663 C   0  0  0  0  0  0  0  0  0  0  0  0
   -0.5419   -9.3293    2.7295 C   0  0  0  0  0  0  0  0  0  0  0  0
   -1.7061   -8.7708    3.2660 C   0  0  0  0  0  0  0  0  0  0  0  0
   -1.6961   -7.4446    3.7435 C   0  0  0  0  0  0  0  0  0  0  0  0
   -0.5126   -6.6821    3.6868 C   0  0  0  0  0  0  0  0  0  0  0  0
    0.6731   -7.2154    3.1445 C   0  0  0  0  0  0  0  0  0  0  0  0
    4.1916   -7.6387    1.9901 C   0  0  2  0  0  0  0  0  0  0  0  0
    4.3693   -7.7759    0.4736 C   0  0  0  0  0  0  0  0  0  0  0  0
    5.0386   -8.6993    2.7176 C   0  0  0  0  0  0  0  0  0  0  0  0
    6.3130   -7.9771    3.1557 C   0  0  0  0  0  0  0  0  0  0  0  0
    5.8918   -6.5215    3.1206 C   0  0  0  0  0  0  0  0  0  0  0  0
    6.5546   -5.6523    3.6844 O   0  0  0  0  0  0  0  0  0  0  0  0
    4.7382   -6.3566    2.4470 N   0  0  0  0  0  0  0  0  0  0  0  0
    4.9573   -3.5538   -0.0205 C   0  0  0  0  0  0  0  0  0  0  0  0
    6.3155   -3.7511   -0.6976 C   0  0  0  0  0  0  0  0  0  0  0  0
    2.1928   -9.6876    1.8076 H   0  0  0  0  0  0  0  0  0  0  0  0
    8.9498   -3.5753   -0.7985 H   0  0  0  0  0  0  0  0  0  0  0  0
    9.0033   -1.8683   -1.2346 H   0  0  0  0  0  0  0  0  0  0  0  0
    8.2283   -3.0245   -2.3147 H   0  0  0  0  0  0  0  0  0  0  0  0
    7.8682   -3.0559    1.2754 H   0  0  0  0  0  0  0  0  0  0  0  0
    7.9584   -1.3373    0.8817 H   0  0  0  0  0  0  0  0  0  0  0  0
    6.2059   -1.7511    2.5709 H   0  0  0  0  0  0  0  0  0  0  0  0
    5.4746   -1.1216    1.1206 H   0  0  0  0  0  0  0  0  0  0  0  0
    3.3802   -5.2233    1.2977 H   0  0  0  0  0  0  0  0  0  0  0  0
    2.9111   -5.3255    4.2641 H   0  0  0  0  0  0  0  0  0  0  0  0
    1.9004   -4.6025    3.0110 H   0  0  0  0  0  0  0  0  0  0  0  0
   -0.5393  -10.3480    2.3806 H   0  0  0  0  0  0  0  0  0  0  0  0
   -2.5867   -9.3886    3.3473 H   0  0  0  0  0  0  0  0  0  0  0  0
   -2.5854   -7.0189    4.1814 H   0  0  0  0  0  0  0  0  0  0  0  0
   -0.4988   -5.6764    4.0812 H   0  0  0  0  0  0  0  0  0  0  0  0
    4.0412   -8.7573    0.1270 H   0  0  0  0  0  0  0  0  0  0  0  0
    5.4087   -7.6741    0.2070 H   0  0  0  0  0  0  0  0  0  0  0  0
    3.8245   -7.0147   -0.0850 H   0  0  0  0  0  0  0  0  0  0  0  0
    4.5099   -9.0490    3.6084 H   0  0  0  0  0  0  0  0  0  0  0  0
    5.2380   -9.5796    2.1003 H   0  0  0  0  0  0  0  0  0  0  0  0
    6.6438   -8.2884    4.1491 H   0  0  0  0  0  0  0  0  0  0  0  0
    7.1244   -8.1340    2.4433 H   0  0  0  0  0  0  0  0  0  0  0  0
    4.4170   -4.4775   -0.2286 H   0  0  0  0  0  0  0  0  0  0  0  0
    4.3954   -2.7607   -0.5216 H   0  0  0  0  0  0  0  0  0  0  0  0
    6.1512   -4.0040   -1.7431 H   0  0  0  0  0  0  0  0  0  0  0  0
    6.8328   -4.5912   -0.2314 H   0  0  0  0  0  0  0  0  0  0  0  0
  1  2  1  0
  1 29  1  0
  1 30  1  0
  1 31  1  0
  2 27  1  0
  2  3  1  0
  3  4  1  0
  3 32  1  0
  3 33  1  0
  4  5  1  0
  4 34  1  0
  4 35  1  0
  5  6  1  0
  5 26  1  0
  6  7  2  0
  6  8  1  0
  8 25  1  0
  8  9  1  0
  8 36  1  6
  9 10  1  0
  9 37  1  0
  9 38  1  0
 10 18  1  0
 10 11  2  0
 11 12  1  0
 11 19  1  0
 12 28  1  0
 12 13  1  0
 13 18  2  0
 13 14  1  0
 14 15  2  0
 14 39  1  0
 15 16  1  0
 15 40  1  0
 16 17  2  0
 16 41  1  0
 17 18  1  0
 17 42  1  0
 19 25  1  0
 19 20  1  6
 19 21  1  0
 20 43  1  0
 20 44  1  0
 20 45  1  0
 21 22  1  0
 21 46  1  0
 21 47  1  0
 22 23  1  0
 22 48  1  0
 22 49  1  0
 23 24  2  0
 23 25  1  0
 26 27  1  0
 26 50  1  0
 26 51  1  0
 27 52  1  0
 27 53  1  0
M  END
>  <i_m_ct_stereo_status>  (176) 
1

>  <s_m_source_file>  (176) 
/var/tmp/pbs.5076255.sched01/tmp9rjncpta/544vc0qzzn.sdf

>  <i_m_source_file_index>  (176) 
27

>  <i_lp_mmshare_version>  (176) 
48012

>  <i_f3d_flags>  (176) 
0

>  <s_epik_input>  (176) 
W0NIM11OMVtDSDJdW0NIMl1OKFtDSDJdW0NIMl0xKUMoPU8pW0NAQEhdKE4yQyg9TylbQ0gyXVtDSDJdMylbQ0gyXWMoYzRbQ0BAXTIzW0NIM10pYzVjKFtuSF00KVtjSF1bY0hdW2NIXVtjSF01

>  <s_epik_cmdline>  (176) 
J2VwaWtfcHl0aG9uJywgJy1waHQnLCAnMi4wJywgJy1waCcsICc3LjAnLCAnLXRuJywgJzgnLCAnLW1hJywgJzIwMCcsICctaW1hZScsICc8aW5maWxlLm1hZT4nLCAnLW9tYWUnLCAnPG91dGZpbGUubWFlPic=

>  <r_epik_Ionization_Penalty>  (176) 
0.835478

>  <r_epik_Ionization_Penalty_Charging>  (176) 
0

>  <r_epik_Ionization_Penalty_Neutral>  (176) 
0.835478

>  <r_epik_State_Penalty>  (176) 
0.869743

>  <r_epik_Charging_Adjusted_Penalty>  (176) 
0.869743

>  <i_epik_Tot_Q>  (176) 
0

>  <i_epik_Tot_abs_Q>  (176) 
0

>  <s_lp_Force_Field>  (176) 
OPLS3e

>  <r_lp_Energy>  (176) 
52.1416

>  <b_lp_Chiralities_Consistent>  (176) 
1

>  <s_lp_Variant>  (176) 
51:0-2

>  <s_i_glide_gridfile>  (176) 
pfpi4k_grid

>  <i_i_glide_lignum>  (176) 
27

>  <i_i_glide_rotatable_bonds>  (176) 
2

>  <r_i_docking_score>  (176) 
-2.83824

>  <r_i_glide_ligand_efficiency>  (176) 
-0.10512

>  <r_i_glide_ligand_efficiency_sa>  (176) 
-0.31536

>  <r_i_glide_ligand_efficiency_ln>  (176) 
-0.660695

>  <r_i_glide_gscore>  (176) 
-2.83824

>  <r_i_glide_lipo>  (176) 
-0.40476

>  <r_i_glide_hbond>  (176) 
-0.0561497

>  <r_i_glide_metal>  (176) 
-0

>  <r_i_glide_rewards>  (176) 
-0.991032

>  <r_i_glide_evdw>  (176) 
-24.7254

>  <r_i_glide_ecoul>  (176) 
-2.91124

>  <r_i_glide_erotb>  (176) 
0.286657

>  <r_i_glide_esite>  (176) 
0

>  <r_i_glide_emodel>  (176) 
-32.766

>  <r_i_glide_energy>  (176) 
-27.6366

>  <r_i_glide_einternal>  (176) 
1.12943

>  <r_i_glide_intrahb_reward>  (176) 
-0

>  <i_i_glide_confnum>  (176) 
2

>  <i_i_glide_posenum>  (176) 
23

>  <r_i_glide_eff_state_penalty>  (176) 
0

>  <ligand_id>  (176) 
51

>  <original_smiles>  (176) 
CN1CCN(C(=O)C2Cc3c([nH]c4ccccc34)C3(C)CCC(=O)N23)CC1

>  <smiles>  (176) 
[H]c1c([H])c([H])c2c(c1[H])c1c(n2[H])C2(C([H])([H])[H])N(C(=O)C([H])([H])C2([H])[H])C([H])(C(=O)N2C([H])([H])C([H])([H])N(C([H])([H])[H])C([H])([H])C2([H])[H])C1([H])[H]

$$$$
51:1:2
     RDKit          3D

 53 57  0  0  1  0  0  0  0  0999 V2000
    2.6322    3.6469    3.1252 C   0  0  0  0  0  0  0  0  0  0  0  0
    1.5975    2.6259    3.1953 N   0  0  0  0  0  0  0  0  0  0  0  0
    1.2395    2.3637    4.5880 C   0  0  0  0  0  0  0  0  0  0  0  0
    0.1222    1.3035    4.6585 C   0  0  0  0  0  0  0  0  0  0  0  0
    0.5530    0.0664    3.9893 N   0  0  0  0  0  0  0  0  0  0  0  0
    0.5040   -1.1490    4.5913 C   0  0  0  0  0  0  0  0  0  0  0  0
    0.0395   -1.3008    5.7267 O   0  0  0  0  0  0  0  0  0  0  0  0
    1.0283   -2.3838    3.8206 C   0  0  2  0  0  0  0  0  0  0  0  0
    0.5922   -3.7260    4.4621 C   0  0  0  0  0  0  0  0  0  0  0  0
    1.1104   -4.8954    3.6648 C   0  0  0  0  0  0  0  0  0  0  0  0
    2.1717   -4.7668    2.8289 C   0  0  0  0  0  0  0  0  0  0  0  0
    2.3705   -5.9805    2.2024 N   0  0  0  0  0  0  0  0  0  0  0  0
    1.4697   -6.9389    2.6068 C   0  0  0  0  0  0  0  0  0  0  0  0
    1.2946   -8.2878    2.2713 C   0  0  0  0  0  0  0  0  0  0  0  0
    0.2553   -9.0156    2.8732 C   0  0  0  0  0  0  0  0  0  0  0  0
   -0.6010   -8.3828    3.7939 C   0  0  0  0  0  0  0  0  0  0  0  0
   -0.4151   -7.0219    4.1244 C   0  0  0  0  0  0  0  0  0  0  0  0
    0.6312   -6.2674    3.5436 C   0  0  0  0  0  0  0  0  0  0  0  0
    2.9683   -3.4812    2.6543 C   0  0  2  0  0  0  0  0  0  0  0  0
    2.8502   -2.9517    1.2093 C   0  0  0  0  0  0  0  0  0  0  0  0
    4.4502   -3.6883    3.0219 C   0  0  0  0  0  0  0  0  0  0  0  0
    4.8471   -2.4472    3.8237 C   0  0  0  0  0  0  0  0  0  0  0  0
    3.5091   -1.9057    4.2902 C   0  0  0  0  0  0  0  0  0  0  0  0
    3.4247   -1.0838    5.2021 O   0  0  0  0  0  0  0  0  0  0  0  0
    2.4957   -2.4718    3.6091 N   0  0  0  0  0  0  0  0  0  0  0  0
    0.9868    0.3220    2.6012 C   0  0  0  0  0  0  0  0  0  0  0  0
    2.0830    1.3988    2.5713 C   0  0  0  0  0  0  0  0  0  0  0  0
    3.1226   -6.1208    1.5446 H   0  0  0  0  0  0  0  0  0  0  0  0
    3.5264    3.3469    3.6712 H   0  0  0  0  0  0  0  0  0  0  0  0
    2.2684    4.5842    3.5428 H   0  0  0  0  0  0  0  0  0  0  0  0
    2.9090    3.8394    2.0886 H   0  0  0  0  0  0  0  0  0  0  0  0
    2.1148    2.0255    5.1474 H   0  0  0  0  0  0  0  0  0  0  0  0
    0.8932    3.2898    5.0502 H   0  0  0  0  0  0  0  0  0  0  0  0
   -0.1240    1.1444    5.7096 H   0  0  0  0  0  0  0  0  0  0  0  0
   -0.7903    1.6726    4.1852 H   0  0  0  0  0  0  0  0  0  0  0  0
    0.5410   -2.3682    2.8481 H   0  0  0  0  0  0  0  0  0  0  0  0
    0.9681   -3.8208    5.4825 H   0  0  0  0  0  0  0  0  0  0  0  0
   -0.4948   -3.7777    4.5098 H   0  0  0  0  0  0  0  0  0  0  0  0
    1.9544   -8.7599    1.5637 H   0  0  0  0  0  0  0  0  0  0  0  0
    0.1148  -10.0592    2.6280 H   0  0  0  0  0  0  0  0  0  0  0  0
   -1.3950   -8.9452    4.2614 H   0  0  0  0  0  0  0  0  0  0  0  0
   -1.0680   -6.5473    4.8379 H   0  0  0  0  0  0  0  0  0  0  0  0
    3.2557   -3.6751    0.5004 H   0  0  0  0  0  0  0  0  0  0  0  0
    3.3960   -2.0164    1.0720 H   0  0  0  0  0  0  0  0  0  0  0  0
    1.8205   -2.7694    0.9246 H   0  0  0  0  0  0  0  0  0  0  0  0
    4.5623   -4.5650    3.6658 H   0  0  0  0  0  0  0  0  0  0  0  0
    5.0871   -3.8496    2.1509 H   0  0  0  0  0  0  0  0  0  0  0  0
    5.5124   -2.6854    4.6554 H   0  0  0  0  0  0  0  0  0  0  0  0
    5.3264   -1.7037    3.1862 H   0  0  0  0  0  0  0  0  0  0  0  0
    1.3988   -0.5416    2.0876 H   0  0  0  0  0  0  0  0  0  0  0  0
    0.1293    0.6319    2.0015 H   0  0  0  0  0  0  0  0  0  0  0  0
    2.3599    1.6007    1.5358 H   0  0  0  0  0  0  0  0  0  0  0  0
    2.9786    1.0408    3.0833 H   0  0  0  0  0  0  0  0  0  0  0  0
  1  2  1  0
  1 29  1  0
  1 30  1  0
  1 31  1  0
  2 27  1  0
  2  3  1  0
  3  4  1  0
  3 32  1  0
  3 33  1  0
  4  5  1  0
  4 34  1  0
  4 35  1  0
  5  6  1  0
  5 26  1  0
  6  7  2  0
  6  8  1  0
  8 25  1  0
  8  9  1  0
  8 36  1  6
  9 10  1  0
  9 37  1  0
  9 38  1  0
 10 18  1  0
 10 11  2  0
 11 12  1  0
 11 19  1  0
 12 28  1  0
 12 13  1  0
 13 18  2  0
 13 14  1  0
 14 15  2  0
 14 39  1  0
 15 16  1  0
 15 40  1  0
 16 17  2  0
 16 41  1  0
 17 18  1  0
 17 42  1  0
 19 25  1  0
 19 20  1  6
 19 21  1  0
 20 43  1  0
 20 44  1  0
 20 45  1  0
 21 22  1  0
 21 46  1  0
 21 47  1  0
 22 23  1  0
 22 48  1  0
 22 49  1  0
 23 24  2  0
 23 25  1  0
 26 27  1  0
 26 50  1  0
 26 51  1  0
 27 52  1  0
 27 53  1  0
M  END
>  <i_m_ct_stereo_status>  (177) 
1

>  <s_m_source_file>  (177) 
/var/tmp/pbs.5076255.sched01/tmp9rjncpta/544vc0qzzn.sdf

>  <i_m_source_file_index>  (177) 
27

>  <i_lp_mmshare_version>  (177) 
48012

>  <i_f3d_flags>  (177) 
0

>  <s_epik_input>  (177) 
W0NIM11OMVtDSDJdW0NIMl1OKFtDSDJdW0NIMl0xKUMoPU8pW0NAQEhdKE4yQyg9TylbQ0gyXVtDSDJdMylbQ0gyXWMoYzRbQ0BAXTIzW0NIM10pYzVjKFtuSF00KVtjSF1bY0hdW2NIXVtjSF01

>  <s_epik_cmdline>  (177) 
J2VwaWtfcHl0aG9uJywgJy1waHQnLCAnMi4wJywgJy1waCcsICc3LjAnLCAnLXRuJywgJzgnLCAnLW1hJywgJzIwMCcsICctaW1hZScsICc8aW5maWxlLm1hZT4nLCAnLW9tYWUnLCAnPG91dGZpbGUubWFlPic=

>  <r_epik_Ionization_Penalty>  (177) 
0.835478

>  <r_epik_Ionization_Penalty_Charging>  (177) 
0

>  <r_epik_Ionization_Penalty_Neutral>  (177) 
0.835478

>  <r_epik_State_Penalty>  (177) 
0.869743

>  <r_epik_Charging_Adjusted_Penalty>  (177) 
0.869743

>  <i_epik_Tot_Q>  (177) 
0

>  <i_epik_Tot_abs_Q>  (177) 
0

>  <s_lp_Force_Field>  (177) 
OPLS3e

>  <r_lp_Energy>  (177) 
52.1416

>  <b_lp_Chiralities_Consistent>  (177) 
1

>  <s_lp_Variant>  (177) 
51:0-2

>  <s_i_glide_gridfile>  (177) 
pfpi4k_grid

>  <i_i_glide_lignum>  (177) 
27

>  <i_i_glide_rotatable_bonds>  (177) 
2

>  <r_i_docking_score>  (177) 
-2.45196

>  <r_i_glide_ligand_efficiency>  (177) 
-0.0908134

>  <r_i_glide_ligand_efficiency_sa>  (177) 
-0.27244

>  <r_i_glide_ligand_efficiency_ln>  (177) 
-0.570776

>  <r_i_glide_gscore>  (177) 
-2.45196

>  <r_i_glide_lipo>  (177) 
-0.147141

>  <r_i_glide_hbond>  (177) 
0

>  <r_i_glide_metal>  (177) 
-0

>  <r_i_glide_rewards>  (177) 
-0.910856

>  <r_i_glide_evdw>  (177) 
-23.6183

>  <r_i_glide_ecoul>  (177) 
-3.13027

>  <r_i_glide_erotb>  (177) 
0.286657

>  <r_i_glide_esite>  (177) 
-0.0301661

>  <r_i_glide_emodel>  (177) 
-31.776

>  <r_i_glide_energy>  (177) 
-26.7485

>  <r_i_glide_einternal>  (177) 
0.0280113

>  <r_i_glide_intrahb_reward>  (177) 
-0

>  <i_i_glide_confnum>  (177) 
2

>  <i_i_glide_posenum>  (177) 
11

>  <r_i_glide_eff_state_penalty>  (177) 
0

>  <ligand_id>  (177) 
51

>  <original_smiles>  (177) 
CN1CCN(C(=O)C2Cc3c([nH]c4ccccc34)C3(C)CCC(=O)N23)CC1

>  <smiles>  (177) 
[H]c1c([H])c([H])c2c(c1[H])c1c(n2[H])C2(C([H])([H])[H])N(C(=O)C([H])([H])C2([H])[H])C([H])(C(=O)N2C([H])([H])C([H])([H])N(C([H])([H])[H])C([H])([H])C2([H])[H])C1([H])[H]

$$$$
52:0:0
     RDKit          3D

 46 49  0  0  1  0  0  0  0  0999 V2000
    4.2618   -7.6215    1.7199 C   0  0  0  0  0  0  0  0  0  0  0  0
    3.5602   -6.3844    1.7624 O   0  0  0  0  0  0  0  0  0  0  0  0
    4.0097   -5.4059    0.8299 C   0  0  2  0  0  0  0  0  0  0  0  0
    5.1839   -4.6563    1.5223 C   0  0  2  0  0  0  0  0  0  0  0  0
    4.8589   -3.8070    2.7764 C   0  0  0  0  0  0  0  0  0  0  0  0
    3.9243   -2.5990    2.6039 C   0  0  0  0  0  0  0  0  0  0  0  0
    4.1562   -1.6809    1.3746 C   0  0  1  0  0  0  0  0  0  0  0  0
    5.3462   -0.7297    1.6606 C   0  0  0  0  0  0  0  0  0  0  0  0
    4.1750   -2.3370   -0.0571 C   0  0  1  0  0  0  0  0  0  0  0  0
    4.2093   -1.1700   -0.8888 O   0  0  0  0  0  0  0  0  0  0  0  0
    3.2813   -1.2967   -2.0809 O   0  0  0  0  0  0  0  0  0  0  0  0
    3.3735   -2.6019   -2.6155 C   0  0  1  0  0  0  0  0  0  0  0  0
    2.4984   -2.6001   -3.8683 C   0  0  0  0  0  0  0  0  0  0  0  0
    4.8203   -2.9846   -2.9795 C   0  0  0  0  0  0  0  0  0  0  0  0
    5.5574   -3.6853   -1.8348 C   0  0  0  0  0  0  0  0  0  0  0  0
    5.5313   -2.9727   -0.4664 C   0  0  2  0  0  0  0  0  0  0  0  0
    6.1156   -3.9116    0.5721 C   0  0  0  0  0  0  0  0  0  0  0  0
    7.3353   -4.0616    0.6430 O   0  0  0  0  0  0  0  0  0  0  0  0
    2.8560   -3.5700   -1.7259 O   0  0  0  0  0  0  0  0  0  0  0  0
    2.9241   -3.2373   -0.3459 C   0  0  1  0  0  0  0  0  0  0  0  0
    2.7525   -4.5599    0.4708 C   0  0  1  0  0  0  0  0  0  0  0  0
    1.8160   -5.3684   -0.2227 O   0  0  0  0  0  0  0  0  0  0  0  0
    3.8308   -8.3085    2.4501 H   0  0  0  0  0  0  0  0  0  0  0  0
    5.3208   -7.5126    1.9628 H   0  0  0  0  0  0  0  0  0  0  0  0
    4.1783   -8.0921    0.7382 H   0  0  0  0  0  0  0  0  0  0  0  0
    4.3675   -5.9057   -0.0715 H   0  0  0  0  0  0  0  0  0  0  0  0
    5.8413   -5.4391    1.8987 H   0  0  0  0  0  0  0  0  0  0  0  0
    4.4634   -4.4612    3.5550 H   0  0  0  0  0  0  0  0  0  0  0  0
    5.8037   -3.4419    3.1802 H   0  0  0  0  0  0  0  0  0  0  0  0
    2.8854   -2.9070    2.6525 H   0  0  0  0  0  0  0  0  0  0  0  0
    4.0186   -1.9955    3.5084 H   0  0  0  0  0  0  0  0  0  0  0  0
    3.2797   -1.0291    1.3699 H   0  0  0  0  0  0  0  0  0  0  0  0
    6.2980   -1.2593    1.7439 H   0  0  0  0  0  0  0  0  0  0  0  0
    5.1856   -0.1984    2.6035 H   0  0  0  0  0  0  0  0  0  0  0  0
    5.4456    0.0310    0.8842 H   0  0  0  0  0  0  0  0  0  0  0  0
    1.4719   -2.3259   -3.6217 H   0  0  0  0  0  0  0  0  0  0  0  0
    2.4479   -3.5866   -4.3301 H   0  0  0  0  0  0  0  0  0  0  0  0
    2.8769   -1.8916   -4.6113 H   0  0  0  0  0  0  0  0  0  0  0  0
    4.8021   -3.6932   -3.8115 H   0  0  0  0  0  0  0  0  0  0  0  0
    5.3693   -2.1175   -3.3405 H   0  0  0  0  0  0  0  0  0  0  0  0
    5.1327   -4.6865   -1.7453 H   0  0  0  0  0  0  0  0  0  0  0  0
    6.5896   -3.8405   -2.1407 H   0  0  0  0  0  0  0  0  0  0  0  0
    6.2395   -2.1471   -0.5368 H   0  0  0  0  0  0  0  0  0  0  0  0
    2.0289   -2.6576   -0.1400 H   0  0  0  0  0  0  0  0  0  0  0  0
    2.2317   -4.3388    1.3975 H   0  0  0  0  0  0  0  0  0  0  0  0
    2.2200   -5.5918   -1.0585 H   0  0  0  0  0  0  0  0  0  0  0  0
  1  2  1  0
  1 23  1  0
  1 24  1  0
  1 25  1  0
  2  3  1  0
  3 21  1  0
  3  4  1  0
  3 26  1  6
  4 17  1  0
  4  5  1  0
  4 27  1  1
  5  6  1  0
  5 28  1  0
  5 29  1  0
  6  7  1  0
  6 30  1  0
  6 31  1  0
  7  8  1  0
  7  9  1  0
  7 32  1  6
  8 33  1  0
  8 34  1  0
  8 35  1  0
  9 16  1  0
  9 20  1  0
  9 10  1  6
 10 11  1  0
 11 12  1  0
 12 13  1  6
 12 14  1  0
 12 19  1  0
 13 36  1  0
 13 37  1  0
 13 38  1  0
 14 15  1  0
 14 39  1  0
 14 40  1  0
 15 16  1  0
 15 41  1  0
 15 42  1  0
 16 17  1  0
 16 43  1  6
 17 18  2  0
 19 20  1  0
 20 21  1  0
 20 44  1  1
 21 22  1  0
 21 45  1  1
 22 46  1  0
M  END
>  <i_m_ct_stereo_status>  (178) 
1

>  <s_m_source_file>  (178) 
/var/tmp/pbs.5076255.sched01/tmp9rjncpta/544vc0qzzn.sdf

>  <i_m_source_file_index>  (178) 
28

>  <i_lp_mmshare_version>  (178) 
48012

>  <i_f3d_flags>  (178) 
0

>  <s_epik_input>  (178) 
W0NIM11bQ0BASF0xW0NIMl1bQ0gyXVtDQEhdKEMyPU8pW0NAQEhdKE9bQ0gzXSlbQ0BIXShbT0hdKVtDQEBIXTNPW0NAXShPTzQpKFtDSDNdKVtDSDJdW0NIMl1bQ0BIXTJbQ0BdMTM0

>  <s_epik_cmdline>  (178) 
J2VwaWtfcHl0aG9uJywgJy1waHQnLCAnMi4wJywgJy1waCcsICc3LjAnLCAnLXRuJywgJzgnLCAnLW1hJywgJzIwMCcsICctaW1hZScsICc8aW5maWxlLm1hZT4nLCAnLW9tYWUnLCAnPG91dGZpbGUubWFlPic=

>  <r_lp_tautomer_probability>  (178) 
1

>  <r_epik_Ionization_Penalty>  (178) 
4.94809e-06

>  <r_epik_Ionization_Penalty_Charging>  (178) 
0

>  <r_epik_Ionization_Penalty_Neutral>  (178) 
4.94809e-06

>  <r_epik_State_Penalty>  (178) 
-0

>  <r_epik_Charging_Adjusted_Penalty>  (178) 
0

>  <i_epik_Tot_Q>  (178) 
0

>  <i_epik_Tot_abs_Q>  (178) 
0

>  <s_lp_Force_Field>  (178) 
OPLS3e

>  <r_lp_Energy>  (178) 
33.0807

>  <b_lp_Chiralities_Consistent>  (178) 
1

>  <s_lp_Variant>  (178) 
52:0-1

>  <s_i_glide_gridfile>  (178) 
pfpi4k_grid

>  <i_i_glide_lignum>  (178) 
28

>  <i_i_glide_rotatable_bonds>  (178) 
2

>  <r_i_docking_score>  (178) 
-3.80342

>  <r_i_glide_ligand_efficiency>  (178) 
-0.172883

>  <r_i_glide_ligand_efficiency_sa>  (178) 
-0.484424

>  <r_i_glide_ligand_efficiency_ln>  (178) 
-0.929695

>  <r_i_glide_gscore>  (178) 
-3.80342

>  <r_i_glide_lipo>  (178) 
-0.689001

>  <r_i_glide_hbond>  (178) 
0

>  <r_i_glide_metal>  (178) 
-0

>  <r_i_glide_rewards>  (178) 
-1.39829

>  <r_i_glide_evdw>  (178) 
-20.7701

>  <r_i_glide_ecoul>  (178) 
-4.34348

>  <r_i_glide_erotb>  (178) 
0

>  <r_i_glide_esite>  (178) 
-0.0261016

>  <r_i_glide_emodel>  (178) 
-30.8432

>  <r_i_glide_energy>  (178) 
-25.1136

>  <r_i_glide_einternal>  (178) 
0.0137393

>  <r_i_glide_intrahb_reward>  (178) 
-0

>  <i_i_glide_confnum>  (178) 
1

>  <i_i_glide_posenum>  (178) 
33

>  <r_i_glide_eff_state_penalty>  (178) 
0

>  <ligand_id>  (178) 
52

>  <original_smiles>  (178) 
COC1C2CCC(C)C34OOC(C)(CCC3C2=O)OC4C1O

>  <smiles>  (178) 
[H]OC1([H])C([H])(OC([H])([H])[H])C2([H])C(=O)C3([H])C([H])([H])C([H])([H])C4(C([H])([H])[H])OOC3(C1([H])O4)C([H])(C([H])([H])[H])C([H])([H])C2([H])[H]

$$$$
52:0:1
     RDKit          3D

 46 49  0  0  1  0  0  0  0  0999 V2000
    2.9934   -7.3764    1.8139 C   0  0  0  0  0  0  0  0  0  0  0  0
    2.5595   -6.0293    1.6056 O   0  0  0  0  0  0  0  0  0  0  0  0
    3.4914   -5.1783    0.9337 C   0  0  2  0  0  0  0  0  0  0  0  0
    4.5053   -4.7106    2.0161 C   0  0  2  0  0  0  0  0  0  0  0  0
    3.9917   -3.8393    3.1810 C   0  0  0  0  0  0  0  0  0  0  0  0
    3.4508   -2.4500    2.8259 C   0  0  0  0  0  0  0  0  0  0  0  0
    4.2610   -1.6061    1.8112 C   0  0  1  0  0  0  0  0  0  0  0  0
    5.4647   -0.9607    2.5327 C   0  0  0  0  0  0  0  0  0  0  0  0
    4.5928   -2.2207    0.4051 C   0  0  1  0  0  0  0  0  0  0  0  0
    5.1388   -1.0845   -0.2687 O   0  0  0  0  0  0  0  0  0  0  0  0
    4.5914   -0.9909   -1.6812 O   0  0  0  0  0  0  0  0  0  0  0  0
    4.6222   -2.2783   -2.2816 C   0  0  1  0  0  0  0  0  0  0  0  0
    4.2181   -2.0274   -3.7431 C   0  0  0  0  0  0  0  0  0  0  0  0
    6.0043   -2.9574   -2.2129 C   0  0  0  0  0  0  0  0  0  0  0  0
    6.1470   -3.8195   -0.9484 C   0  0  0  0  0  0  0  0  0  0  0  0
    5.8325   -3.1321    0.3883 C   0  0  2  0  0  0  0  0  0  0  0  0
    5.8275   -4.2070    1.4573 C   0  0  0  0  0  0  0  0  0  0  0  0
    6.8814   -4.6905    1.8291 O   0  0  0  0  0  0  0  0  0  0  0  0
    3.6894   -3.1638   -1.6889 O   0  0  0  0  0  0  0  0  0  0  0  0
    3.3511   -2.7925   -0.3482 C   0  0  1  0  0  0  0  0  0  0  0  0
    2.6489   -4.0501    0.2700 C   0  0  1  0  0  0  0  0  0  0  0  0
    1.8135   -4.6094   -0.7208 O   0  0  0  0  0  0  0  0  0  0  0  0
    2.1969   -7.9528    2.2831 H   0  0  0  0  0  0  0  0  0  0  0  0
    3.8583   -7.4590    2.4724 H   0  0  0  0  0  0  0  0  0  0  0  0
    3.2547   -7.8734    0.8822 H   0  0  0  0  0  0  0  0  0  0  0  0
    4.0021   -5.7590    0.1611 H   0  0  0  0  0  0  0  0  0  0  0  0
    4.8612   -5.6063    2.5197 H   0  0  0  0  0  0  0  0  0  0  0  0
    3.2326   -4.3931    3.7380 H   0  0  0  0  0  0  0  0  0  0  0  0
    4.8140   -3.7159    3.8862 H   0  0  0  0  0  0  0  0  0  0  0  0
    2.4088   -2.5009    2.5350 H   0  0  0  0  0  0  0  0  0  0  0  0
    3.3773   -1.8923    3.7609 H   0  0  0  0  0  0  0  0  0  0  0  0
    3.6073   -0.7669    1.5931 H   0  0  0  0  0  0  0  0  0  0  0  0
    6.1979   -1.7007    2.8551 H   0  0  0  0  0  0  0  0  0  0  0  0
    5.1374   -0.4188    3.4235 H   0  0  0  0  0  0  0  0  0  0  0  0
    5.9812   -0.2436    1.8928 H   0  0  0  0  0  0  0  0  0  0  0  0
    3.2711   -1.4867   -3.7856 H   0  0  0  0  0  0  0  0  0  0  0  0
    4.0907   -2.9593   -4.2986 H   0  0  0  0  0  0  0  0  0  0  0  0
    4.9552   -1.4160   -4.2614 H   0  0  0  0  0  0  0  0  0  0  0  0
    6.1044   -3.6327   -3.0677 H   0  0  0  0  0  0  0  0  0  0  0  0
    6.8134   -2.2428   -2.3094 H   0  0  0  0  0  0  0  0  0  0  0  0
    5.5253   -4.7039   -1.0840 H   0  0  0  0  0  0  0  0  0  0  0  0
    7.1666   -4.1762   -0.8631 H   0  0  0  0  0  0  0  0  0  0  0  0
    6.6882   -2.4966    0.6209 H   0  0  0  0  0  0  0  0  0  0  0  0
    2.6210   -1.9831   -0.4052 H   0  0  0  0  0  0  0  0  0  0  0  0
    1.9385   -3.7174    1.0134 H   0  0  0  0  0  0  0  0  0  0  0  0
    2.3755   -4.9670   -1.4266 H   0  0  0  0  0  0  0  0  0  0  0  0
  1  2  1  0
  1 23  1  0
  1 24  1  0
  1 25  1  0
  2  3  1  0
  3 21  1  0
  3  4  1  0
  3 26  1  6
  4 17  1  0
  4  5  1  0
  4 27  1  1
  5  6  1  0
  5 28  1  0
  5 29  1  0
  6  7  1  0
  6 30  1  0
  6 31  1  0
  7  8  1  0
  7  9  1  0
  7 32  1  6
  8 33  1  0
  8 34  1  0
  8 35  1  0
  9 16  1  0
  9 20  1  0
  9 10  1  6
 10 11  1  0
 11 12  1  0
 12 13  1  6
 12 14  1  0
 12 19  1  0
 13 36  1  0
 13 37  1  0
 13 38  1  0
 14 15  1  0
 14 39  1  0
 14 40  1  0
 15 16  1  0
 15 41  1  0
 15 42  1  0
 16 17  1  0
 16 43  1  1
 17 18  2  0
 19 20  1  0
 20 21  1  0
 20 44  1  6
 21 22  1  0
 21 45  1  1
 22 46  1  0
M  END
>  <i_m_ct_stereo_status>  (179) 
1

>  <s_m_source_file>  (179) 
/var/tmp/pbs.5076255.sched01/tmp9rjncpta/544vc0qzzn.sdf

>  <i_m_source_file_index>  (179) 
28

>  <i_lp_mmshare_version>  (179) 
48012

>  <i_f3d_flags>  (179) 
0

>  <s_epik_input>  (179) 
W0NIM11bQ0BASF0xW0NIMl1bQ0gyXVtDQEhdKEMyPU8pW0NAQEhdKE9bQ0gzXSlbQ0BIXShbT0hdKVtDQEBIXTNPW0NAXShPTzQpKFtDSDNdKVtDSDJdW0NIMl1bQ0BIXTJbQ0BdMTM0

>  <s_epik_cmdline>  (179) 
J2VwaWtfcHl0aG9uJywgJy1waHQnLCAnMi4wJywgJy1waCcsICc3LjAnLCAnLXRuJywgJzgnLCAnLW1hJywgJzIwMCcsICctaW1hZScsICc8aW5maWxlLm1hZT4nLCAnLW9tYWUnLCAnPG91dGZpbGUubWFlPic=

>  <r_lp_tautomer_probability>  (179) 
1

>  <r_epik_Ionization_Penalty>  (179) 
4.94809e-06

>  <r_epik_Ionization_Penalty_Charging>  (179) 
0

>  <r_epik_Ionization_Penalty_Neutral>  (179) 
4.94809e-06

>  <r_epik_State_Penalty>  (179) 
-0

>  <r_epik_Charging_Adjusted_Penalty>  (179) 
0

>  <i_epik_Tot_Q>  (179) 
0

>  <i_epik_Tot_abs_Q>  (179) 
0

>  <s_lp_Force_Field>  (179) 
OPLS3e

>  <r_lp_Energy>  (179) 
33.0807

>  <b_lp_Chiralities_Consistent>  (179) 
1

>  <s_lp_Variant>  (179) 
52:0-1

>  <s_i_glide_gridfile>  (179) 
pfpi4k_grid

>  <i_i_glide_lignum>  (179) 
28

>  <i_i_glide_rotatable_bonds>  (179) 
2

>  <r_i_docking_score>  (179) 
-3.59279

>  <r_i_glide_ligand_efficiency>  (179) 
-0.163309

>  <r_i_glide_ligand_efficiency_sa>  (179) 
-0.457597

>  <r_i_glide_ligand_efficiency_ln>  (179) 
-0.878209

>  <r_i_glide_gscore>  (179) 
-3.59279

>  <r_i_glide_lipo>  (179) 
-0.525046

>  <r_i_glide_hbond>  (179) 
0

>  <r_i_glide_metal>  (179) 
-0

>  <r_i_glide_rewards>  (179) 
-1.44447

>  <r_i_glide_evdw>  (179) 
-18.2023

>  <r_i_glide_ecoul>  (179) 
-4.7544

>  <r_i_glide_erotb>  (179) 
0

>  <r_i_glide_esite>  (179) 
0

>  <r_i_glide_emodel>  (179) 
-28.2129

>  <r_i_glide_energy>  (179) 
-22.9567

>  <r_i_glide_einternal>  (179) 
0.120504

>  <r_i_glide_intrahb_reward>  (179) 
-0

>  <i_i_glide_confnum>  (179) 
2

>  <i_i_glide_posenum>  (179) 
2

>  <r_i_glide_eff_state_penalty>  (179) 
0

>  <ligand_id>  (179) 
52

>  <original_smiles>  (179) 
COC1C2CCC(C)C34OOC(C)(CCC3C2=O)OC4C1O

>  <smiles>  (179) 
[H]OC1([H])C([H])(OC([H])([H])[H])C2([H])C(=O)C3([H])C([H])([H])C([H])([H])C4(C([H])([H])[H])OOC3(C1([H])O4)C([H])(C([H])([H])[H])C([H])([H])C2([H])[H]

$$$$
52:0:2
     RDKit          3D

 46 49  0  0  1  0  0  0  0  0999 V2000
    0.8764   -1.6745    3.5842 C   0  0  0  0  0  0  0  0  0  0  0  0
    2.2410   -1.6782    3.1860 O   0  0  0  0  0  0  0  0  0  0  0  0
    2.4867   -2.2753    1.9135 C   0  0  2  0  0  0  0  0  0  0  0  0
    2.7957   -3.7681    2.2168 C   0  0  2  0  0  0  0  0  0  0  0  0
    4.0817   -4.0857    3.0139 C   0  0  0  0  0  0  0  0  0  0  0  0
    5.4260   -3.7188    2.3668 C   0  0  0  0  0  0  0  0  0  0  0  0
    5.6157   -4.0504    0.8664 C   0  0  1  0  0  0  0  0  0  0  0  0
    5.9415   -5.5566    0.7180 C   0  0  0  0  0  0  0  0  0  0  0  0
    4.5665   -3.4940   -0.1692 C   0  0  1  0  0  0  0  0  0  0  0  0
    5.2333   -3.8183   -1.3966 O   0  0  0  0  0  0  0  0  0  0  0  0
    5.1113   -2.6842   -2.4080 O   0  0  0  0  0  0  0  0  0  0  0  0
    3.7943   -2.1487   -2.3632 C   0  0  1  0  0  0  0  0  0  0  0  0
    3.7660   -1.1280   -3.5079 C   0  0  0  0  0  0  0  0  0  0  0  0
    2.6915   -3.2034   -2.5732 C   0  0  0  0  0  0  0  0  0  0  0  0
    2.2045   -3.8257   -1.2567 C   0  0  0  0  0  0  0  0  0  0  0  0
    3.2895   -4.3714   -0.3024 C   0  0  2  0  0  0  0  0  0  0  0  0
    2.6288   -4.7052    1.0256 C   0  0  0  0  0  0  0  0  0  0  0  0
    1.9078   -5.7035    1.1241 O   0  0  0  0  0  0  0  0  0  0  0  0
    3.5374   -1.4813   -1.1424 O   0  0  0  0  0  0  0  0  0  0  0  0
    4.3154   -1.9558   -0.0459 C   0  0  1  0  0  0  0  0  0  0  0  0
    3.6207   -1.4455    1.2529 C   0  0  1  0  0  0  0  0  0  0  0  0
    3.0880   -0.1700    0.9722 O   0  0  0  0  0  0  0  0  0  0  0  0
    0.7796   -1.1704    4.5469 H   0  0  0  0  0  0  0  0  0  0  0  0
    0.4788   -2.6847    3.6986 H   0  0  0  0  0  0  0  0  0  0  0  0
    0.2525   -1.1309    2.8726 H   0  0  0  0  0  0  0  0  0  0  0  0
    1.5919   -2.2082    1.2960 H   0  0  0  0  0  0  0  0  0  0  0  0
    1.9921   -4.0912    2.8800 H   0  0  0  0  0  0  0  0  0  0  0  0
    4.0221   -3.6201    4.0007 H   0  0  0  0  0  0  0  0  0  0  0  0
    4.0931   -5.1585    3.2172 H   0  0  0  0  0  0  0  0  0  0  0  0
    5.6840   -2.6834    2.5627 H   0  0  0  0  0  0  0  0  0  0  0  0
    6.1901   -4.2536    2.9331 H   0  0  0  0  0  0  0  0  0  0  0  0
    6.5527   -3.5524    0.6103 H   0  0  0  0  0  0  0  0  0  0  0  0
    5.1086   -6.1991    1.0081 H   0  0  0  0  0  0  0  0  0  0  0  0
    6.7941   -5.8330    1.3478 H   0  0  0  0  0  0  0  0  0  0  0  0
    6.2101   -5.8065   -0.3067 H   0  0  0  0  0  0  0  0  0  0  0  0
    4.5814   -0.4109   -3.3957 H   0  0  0  0  0  0  0  0  0  0  0  0
    2.8309   -0.5647   -3.5301 H   0  0  0  0  0  0  0  0  0  0  0  0
    3.8853   -1.6067   -4.4858 H   0  0  0  0  0  0  0  0  0  0  0  0
    1.8190   -2.7208   -3.0215 H   0  0  0  0  0  0  0  0  0  0  0  0
    3.0100   -3.9310   -3.3135 H   0  0  0  0  0  0  0  0  0  0  0  0
    1.6249   -3.0602   -0.7453 H   0  0  0  0  0  0  0  0  0  0  0  0
    1.4819   -4.6077   -1.4805 H   0  0  0  0  0  0  0  0  0  0  0  0
    3.6206   -5.3232   -0.7116 H   0  0  0  0  0  0  0  0  0  0  0  0
    5.2815   -1.4564   -0.1198 H   0  0  0  0  0  0  0  0  0  0  0  0
    4.3718   -1.2453    2.0108 H   0  0  0  0  0  0  0  0  0  0  0  0
    2.3740   -0.2850    0.3520 H   0  0  0  0  0  0  0  0  0  0  0  0
  1  2  1  0
  1 23  1  0
  1 24  1  0
  1 25  1  0
  2  3  1  0
  3 21  1  0
  3  4  1  0
  3 26  1  6
  4 17  1  0
  4  5  1  0
  4 27  1  1
  5  6  1  0
  5 28  1  0
  5 29  1  0
  6  7  1  0
  6 30  1  0
  6 31  1  0
  7  8  1  0
  7  9  1  0
  7 32  1  6
  8 33  1  0
  8 34  1  0
  8 35  1  0
  9 16  1  0
  9 20  1  0
  9 10  1  6
 10 11  1  0
 11 12  1  0
 12 13  1  6
 12 14  1  0
 12 19  1  0
 13 36  1  0
 13 37  1  0
 13 38  1  0
 14 15  1  0
 14 39  1  0
 14 40  1  0
 15 16  1  0
 15 41  1  0
 15 42  1  0
 16 17  1  0
 16 43  1  6
 17 18  2  0
 19 20  1  0
 20 21  1  0
 20 44  1  6
 21 22  1  0
 21 45  1  1
 22 46  1  0
M  END
>  <i_m_ct_stereo_status>  (180) 
1

>  <s_m_source_file>  (180) 
/var/tmp/pbs.5076255.sched01/tmp9rjncpta/544vc0qzzn.sdf

>  <i_m_source_file_index>  (180) 
28

>  <i_lp_mmshare_version>  (180) 
48012

>  <i_f3d_flags>  (180) 
0

>  <s_epik_input>  (180) 
W0NIM11bQ0BASF0xW0NIMl1bQ0gyXVtDQEhdKEMyPU8pW0NAQEhdKE9bQ0gzXSlbQ0BIXShbT0hdKVtDQEBIXTNPW0NAXShPTzQpKFtDSDNdKVtDSDJdW0NIMl1bQ0BIXTJbQ0BdMTM0

>  <s_epik_cmdline>  (180) 
J2VwaWtfcHl0aG9uJywgJy1waHQnLCAnMi4wJywgJy1waCcsICc3LjAnLCAnLXRuJywgJzgnLCAnLW1hJywgJzIwMCcsICctaW1hZScsICc8aW5maWxlLm1hZT4nLCAnLW9tYWUnLCAnPG91dGZpbGUubWFlPic=

>  <r_lp_tautomer_probability>  (180) 
1

>  <r_epik_Ionization_Penalty>  (180) 
4.94809e-06

>  <r_epik_Ionization_Penalty_Charging>  (180) 
0

>  <r_epik_Ionization_Penalty_Neutral>  (180) 
4.94809e-06

>  <r_epik_State_Penalty>  (180) 
-0

>  <r_epik_Charging_Adjusted_Penalty>  (180) 
0

>  <i_epik_Tot_Q>  (180) 
0

>  <i_epik_Tot_abs_Q>  (180) 
0

>  <s_lp_Force_Field>  (180) 
OPLS3e

>  <r_lp_Energy>  (180) 
33.0807

>  <b_lp_Chiralities_Consistent>  (180) 
1

>  <s_lp_Variant>  (180) 
52:0-1

>  <s_i_glide_gridfile>  (180) 
pfpi4k_grid

>  <i_i_glide_lignum>  (180) 
28

>  <i_i_glide_rotatable_bonds>  (180) 
2

>  <r_i_docking_score>  (180) 
-3.40993

>  <r_i_glide_ligand_efficiency>  (180) 
-0.154997

>  <r_i_glide_ligand_efficiency_sa>  (180) 
-0.434308

>  <r_i_glide_ligand_efficiency_ln>  (180) 
-0.833512

>  <r_i_glide_gscore>  (180) 
-3.40993

>  <r_i_glide_lipo>  (180) 
-0.451885

>  <r_i_glide_hbond>  (180) 
-0.0464198

>  <r_i_glide_metal>  (180) 
-0

>  <r_i_glide_rewards>  (180) 
-1.27938

>  <r_i_glide_evdw>  (180) 
-20.7383

>  <r_i_glide_ecoul>  (180) 
-3.71144

>  <r_i_glide_erotb>  (180) 
0

>  <r_i_glide_esite>  (180) 
-0.0386245

>  <r_i_glide_emodel>  (180) 
-29.4302

>  <r_i_glide_energy>  (180) 
-24.4497

>  <r_i_glide_einternal>  (180) 
0.145966

>  <r_i_glide_intrahb_reward>  (180) 
-0

>  <i_i_glide_confnum>  (180) 
1

>  <i_i_glide_posenum>  (180) 
13

>  <r_i_glide_eff_state_penalty>  (180) 
0

>  <ligand_id>  (180) 
52

>  <original_smiles>  (180) 
COC1C2CCC(C)C34OOC(C)(CCC3C2=O)OC4C1O

>  <smiles>  (180) 
[H]OC1([H])C([H])(OC([H])([H])[H])C2([H])C(=O)C3([H])C([H])([H])C([H])([H])C4(C([H])([H])[H])OOC3(C1([H])O4)C([H])(C([H])([H])[H])C([H])([H])C2([H])[H]

$$$$
53:0:0
     RDKit          3D

 84 90  0  0  1  0  0  0  0  0999 V2000
    5.5042   -5.6947    0.5308 C   0  0  0  0  0  0  0  0  0  0  0  0
    4.3942   -5.4567    1.5309 C   0  0  0  0  0  0  0  0  0  0  0  0
    4.4003   -4.6197    2.5643 C   0  0  0  0  0  0  0  0  0  0  0  0
    3.0572   -4.5043    3.2821 C   0  0  2  0  0  0  0  0  0  0  0  0
    2.3001   -3.2654    2.5972 C   0  0  0  0  0  0  0  0  0  0  0  0
    2.9870   -2.3163    1.5182 C   0  0  0  0  0  0  0  0  0  0  0  0
    3.5762   -0.8982    1.9024 C   0  0  1  0  0  0  0  0  0  0  0  0
    4.8068   -0.6113    1.0033 C   0  0  0  0  0  0  0  0  0  0  0  0
    2.5659    0.2207    1.5897 C   0  0  0  0  0  0  0  0  0  0  0  0
    1.3824    0.2064    2.5127 C   0  0  0  0  0  0  0  0  0  0  0  0
    1.4882   -0.1256    3.8097 C   0  0  0  0  0  0  0  0  0  0  0  0
    0.2632   -0.0686    4.6016 C   0  0  0  0  0  0  0  0  0  0  0  0
   -0.0835    1.0151    5.2875 N   0  0  0  0  0  0  0  0  0  0  0  0
   -1.2541    0.5815    5.8348 C   0  0  0  0  0  0  0  0  0  0  0  0
   -2.1820    1.5904    6.8803 Cl  0  0  0  0  0  0  0  0  0  0  0  0
   -1.6206   -0.6705    5.5606 N   0  0  0  0  0  0  0  0  0  0  0  0
   -0.6149   -1.0673    4.7427 N   0  0  0  0  0  0  0  0  0  0  0  0
    2.8491   -0.5226    4.4230 C   0  0  1  0  0  0  0  0  0  0  0  0
    3.3662    0.7490    5.1397 C   0  0  0  0  0  0  0  0  0  0  0  0
    2.7198   -1.6953    5.4455 C   0  0  0  0  0  0  0  0  0  0  0  0
    3.6996   -2.8617    5.1918 C   0  0  0  0  0  0  0  0  0  0  0  0
    4.9554   -2.5078    4.8584 C   0  0  0  0  0  0  0  0  0  0  0  0
    5.0501   -1.5346    3.7926 C   0  0  0  0  0  0  0  0  0  0  0  0
    3.9391   -0.8836    3.3874 C   0  0  0  0  0  0  0  0  0  0  0  0
    3.1735   -4.3056    4.8881 C   0  0  1  0  0  0  0  0  0  0  0  0
    1.7930   -4.4479    5.6006 C   0  0  0  0  0  0  0  0  0  0  0  0
    4.1804   -5.3248    5.5246 C   0  0  0  0  0  0  0  0  0  0  0  0
    3.7488   -6.7907    5.7545 C   0  0  0  0  0  0  0  0  0  0  0  0
    3.4215   -7.6688    4.5198 C   0  0  1  0  0  0  0  0  0  0  0  0
    4.7022   -7.9705    3.7090 C   0  0  0  0  0  0  0  0  0  0  0  0
    2.8528   -9.0186    5.0275 C   0  0  0  0  0  0  0  0  0  0  0  0
    1.8678   -9.5610    3.9805 C   0  0  1  0  0  0  0  0  0  0  0  0
    0.6225  -10.1899    4.6349 C   0  0  0  0  0  0  0  0  0  0  0  0
    1.6149   -8.3912    3.0026 C   0  0  1  0  0  0  0  0  0  0  0  0
    0.1586   -8.2048    2.5325 C   0  0  0  0  0  0  0  0  0  0  0  0
    2.2313   -7.1337    3.6775 C   0  0  2  0  0  0  0  0  0  0  0  0
    2.3798   -5.8631    2.7565 C   0  0  2  0  0  0  0  0  0  0  0  0
    3.0924   -6.1716    1.4072 C   0  0  0  0  0  0  0  0  0  0  0  0
   -0.5622   -1.9871    4.3314 H   0  0  0  0  0  0  0  0  0  0  0  0
    5.7722   -6.7497    0.5177 H   0  0  0  0  0  0  0  0  0  0  0  0
    6.3930   -5.1124    0.7747 H   0  0  0  0  0  0  0  0  0  0  0  0
    5.1737   -5.4168   -0.4706 H   0  0  0  0  0  0  0  0  0  0  0  0
    5.2620   -4.0231    2.7937 H   0  0  0  0  0  0  0  0  0  0  0  0
    1.4618   -3.6777    2.0514 H   0  0  0  0  0  0  0  0  0  0  0  0
    1.7450   -2.6833    3.3186 H   0  0  0  0  0  0  0  0  0  0  0  0
    3.7225   -2.8611    0.9301 H   0  0  0  0  0  0  0  0  0  0  0  0
    2.2234   -2.1305    0.7601 H   0  0  0  0  0  0  0  0  0  0  0  0
    4.5129   -0.4458   -0.0334 H   0  0  0  0  0  0  0  0  0  0  0  0
    5.5349   -1.4213    0.9941 H   0  0  0  0  0  0  0  0  0  0  0  0
    5.3263    0.2873    1.3309 H   0  0  0  0  0  0  0  0  0  0  0  0
    3.0321    1.2048    1.6635 H   0  0  0  0  0  0  0  0  0  0  0  0
    2.2075    0.1313    0.5657 H   0  0  0  0  0  0  0  0  0  0  0  0
    0.4394    0.5249    2.0945 H   0  0  0  0  0  0  0  0  0  0  0  0
    3.4743    1.5766    4.4354 H   0  0  0  0  0  0  0  0  0  0  0  0
    4.3449    0.5897    5.5945 H   0  0  0  0  0  0  0  0  0  0  0  0
    2.6891    1.0819    5.9270 H   0  0  0  0  0  0  0  0  0  0  0  0
    2.9972   -1.3205    6.4293 H   0  0  0  0  0  0  0  0  0  0  0  0
    1.6899   -1.9967    5.5837 H   0  0  0  0  0  0  0  0  0  0  0  0
    5.6943   -3.2806    4.7356 H   0  0  0  0  0  0  0  0  0  0  0  0
    5.7885   -1.7985    3.0573 H   0  0  0  0  0  0  0  0  0  0  0  0
    1.4619   -5.4572    5.7873 H   0  0  0  0  0  0  0  0  0  0  0  0
    0.9869   -3.9815    5.0351 H   0  0  0  0  0  0  0  0  0  0  0  0
    1.8157   -4.0011    6.5951 H   0  0  0  0  0  0  0  0  0  0  0  0
    5.1248   -5.3378    4.9860 H   0  0  0  0  0  0  0  0  0  0  0  0
    4.4398   -4.9419    6.5117 H   0  0  0  0  0  0  0  0  0  0  0  0
    4.5643   -7.2793    6.2874 H   0  0  0  0  0  0  0  0  0  0  0  0
    2.9316   -6.8193    6.4726 H   0  0  0  0  0  0  0  0  0  0  0  0
    4.4898   -8.5355    2.8021 H   0  0  0  0  0  0  0  0  0  0  0  0
    5.4075   -8.5640    4.2916 H   0  0  0  0  0  0  0  0  0  0  0  0
    5.2350   -7.0685    3.4248 H   0  0  0  0  0  0  0  0  0  0  0  0
    3.6302   -9.7498    5.2545 H   0  0  0  0  0  0  0  0  0  0  0  0
    2.3108   -8.8708    5.9628 H   0  0  0  0  0  0  0  0  0  0  0  0
    2.3692  -10.3548    3.4247 H   0  0  0  0  0  0  0  0  0  0  0  0
    0.0405   -9.4554    5.1927 H   0  0  0  0  0  0  0  0  0  0  0  0
    0.9032  -10.9810    5.3326 H   0  0  0  0  0  0  0  0  0  0  0  0
   -0.0349  -10.6458    3.8940 H   0  0  0  0  0  0  0  0  0  0  0  0
    2.1818   -8.6650    2.1176 H   0  0  0  0  0  0  0  0  0  0  0  0
   -0.5020   -7.9189    3.3513 H   0  0  0  0  0  0  0  0  0  0  0  0
   -0.2295   -9.1208    2.0871 H   0  0  0  0  0  0  0  0  0  0  0  0
    0.0933   -7.4362    1.7639 H   0  0  0  0  0  0  0  0  0  0  0  0
    1.4569   -6.8901    4.3958 H   0  0  0  0  0  0  0  0  0  0  0  0
    1.3370   -5.6564    2.5230 H   0  0  0  0  0  0  0  0  0  0  0  0
    2.5412   -5.7650    0.5593 H   0  0  0  0  0  0  0  0  0  0  0  0
    3.2983   -7.2162    1.1999 H   0  0  0  0  0  0  0  0  0  0  0  0
  1  2  1  0
  1 40  1  0
  1 41  1  0
  1 42  1  0
  2 38  1  0
  2  3  2  0
  4  3  1  6
  3 43  1  0
  4 25  1  0
  4 37  1  0
  4  5  1  0
  5  6  1  0
  5 44  1  0
  5 45  1  0
  6  7  1  0
  6 46  1  0
  6 47  1  0
  7 24  1  0
  7  8  1  6
  7  9  1  0
  8 48  1  0
  8 49  1  0
  8 50  1  0
  9 10  1  0
  9 51  1  0
  9 52  1  0
 10 11  2  0
 10 53  1  0
 11 12  1  0
 11 18  1  0
 12 17  1  0
 12 13  2  0
 13 14  1  0
 14 15  1  0
 14 16  2  0
 16 17  1  0
 17 39  1  0
 18 24  1  0
 18 19  1  1
 18 20  1  0
 19 54  1  0
 19 55  1  0
 19 56  1  0
 20 21  1  0
 20 57  1  0
 20 58  1  0
 21 22  2  0
 21 25  1  0
 22 23  1  0
 22 59  1  0
 23 24  2  0
 23 60  1  0
 25 26  1  1
 25 27  1  0
 26 61  1  0
 26 62  1  0
 26 63  1  0
 27 28  1  0
 27 64  1  0
 27 65  1  0
 28 29  1  0
 28 66  1  0
 28 67  1  0
 29 36  1  0
 29 30  1  6
 29 31  1  0
 30 68  1  0
 30 69  1  0
 30 70  1  0
 31 32  1  0
 31 71  1  0
 31 72  1  0
 32 33  1  0
 32 34  1  0
 32 73  1  6
 33 74  1  0
 33 75  1  0
 33 76  1  0
 34 35  1  0
 34 36  1  0
 34 77  1  6
 35 78  1  0
 35 79  1  0
 35 80  1  0
 36 37  1  0
 36 81  1  1
 37 38  1  0
 37 82  1  6
 38 83  1  0
 38 84  1  0
M  END
>  <i_m_ct_stereo_status>  (181) 
1

>  <s_m_source_file>  (181) 
/var/tmp/pbs.5076255.sched01/tmp9rjncpta/544vc0qzzn.sdf

>  <i_m_source_file_index>  (181) 
29

>  <i_lp_mmshare_version>  (181) 
48012

>  <i_f3d_flags>  (181) 
0

>  <s_epik_input>  (181) 
W0NIM11DKD1bQ0hdMSlbQ0gyXVtDQEhdMltDQEBIXShbQ0BIXShbQ0gzXSlbQ0BASF0oW0NIMl0zKVtDSDNdKVtDQEBdMyhbQ0gzXSlbQ0gyXVtDSDJdW0NAQF0oW0NAQF0xMjQpKFtDSDNdKUM1PVtDSF1bQ0hdPUM2W0NAQF0oW0NIM10pKFtDSDJdW0NIMl00KVtDSDJdW0NIXT1DKFtDQEBdNihbQ0gzXSlbQ0gyXTUpYzduYyhDbCluW25IXTc=

>  <s_epik_cmdline>  (181) 
J2VwaWtfcHl0aG9uJywgJy1waHQnLCAnMi4wJywgJy1waCcsICc3LjAnLCAnLXRuJywgJzgnLCAnLW1hJywgJzIwMCcsICctaW1hZScsICc8aW5maWxlLm1hZT4nLCAnLW9tYWUnLCAnPG91dGZpbGUubWFlPic=

>  <r_lp_tautomer_probability>  (181) 
1

>  <r_epik_Ionization_Penalty>  (181) 
0.000201929

>  <r_epik_Ionization_Penalty_Charging>  (181) 
0

>  <r_epik_Ionization_Penalty_Neutral>  (181) 
0.000201929

>  <r_epik_State_Penalty>  (181) 
-0

>  <r_epik_Charging_Adjusted_Penalty>  (181) 
0

>  <i_epik_Tot_Q>  (181) 
0

>  <i_epik_Tot_abs_Q>  (181) 
0

>  <s_lp_Force_Field>  (181) 
OPLS3e

>  <r_lp_Energy>  (181) 
143.331

>  <b_lp_Chiralities_Consistent>  (181) 
1

>  <s_lp_Variant>  (181) 
53:0-1

>  <s_i_glide_gridfile>  (181) 
pfpi4k_grid

>  <i_i_glide_lignum>  (181) 
29

>  <i_i_glide_rotatable_bonds>  (181) 
1

>  <r_i_docking_score>  (181) 
-2.65136

>  <r_i_glide_ligand_efficiency>  (181) 
-0.0697727

>  <r_i_glide_ligand_efficiency_sa>  (181) 
-0.234574

>  <r_i_glide_ligand_efficiency_ln>  (181) 
-0.571712

>  <r_i_glide_gscore>  (181) 
-2.65136

>  <r_i_glide_lipo>  (181) 
-0.425509

>  <r_i_glide_hbond>  (181) 
0

>  <r_i_glide_metal>  (181) 
-0

>  <r_i_glide_rewards>  (181) 
0

>  <r_i_glide_evdw>  (181) 
-33.9805

>  <r_i_glide_ecoul>  (181) 
-3.46092

>  <r_i_glide_erotb>  (181) 
0.0728172

>  <r_i_glide_esite>  (181) 
-0.080507

>  <r_i_glide_emodel>  (181) 
-41.4101

>  <r_i_glide_energy>  (181) 
-37.4414

>  <r_i_glide_einternal>  (181) 
3.47255

>  <r_i_glide_intrahb_reward>  (181) 
-0

>  <i_i_glide_confnum>  (181) 
1

>  <i_i_glide_posenum>  (181) 
30

>  <r_i_glide_eff_state_penalty>  (181) 
0

>  <ligand_id>  (181) 
53

>  <original_smiles>  (181) 
CC1=CC23CCC4(C)CC=C(c5nc(Cl)n[nH]5)C5(C)CC(=CC=C45)C2(C)CCC2(C)CC(C)C(C)C2C3C1

>  <smiles>  (181) 
[H]C1=C2C3(C([H])([H])[H])C(c4nc(Cl)nn4[H])=C([H])C([H])([H])C2(C([H])([H])[H])C([H])([H])C([H])([H])C24C([H])=C(C([H])([H])[H])C([H])([H])C2([H])C2([H])C([H])(C([H])([H])[H])C([H])(C([H])([H])[H])C([H])([H])C2(C([H])([H])[H])C([H])([H])C([H])([H])C4(C([H])([H])[H])C(=C1[H])C3([H])[H]

$$$$
53:0:1
     RDKit          3D

 84 90  0  0  1  0  0  0  0  0999 V2000
    5.5966   -6.5116    1.6915 C   0  0  0  0  0  0  0  0  0  0  0  0
    4.3149   -5.8137    2.0562 C   0  0  0  0  0  0  0  0  0  0  0  0
    4.1435   -4.8347    2.9344 C   0  0  0  0  0  0  0  0  0  0  0  0
    2.7325   -4.2452    2.9480 C   0  0  2  0  0  0  0  0  0  0  0  0
    2.7591   -3.0089    1.9365 C   0  0  0  0  0  0  0  0  0  0  0  0
    4.0917   -2.5030    1.2613 C   0  0  0  0  0  0  0  0  0  0  0  0
    4.8561   -1.2528    1.8001 C   0  0  1  0  0  0  0  0  0  0  0  0
    6.3693   -1.4614    1.5447 C   0  0  0  0  0  0  0  0  0  0  0  0
    4.4484   -0.0394    0.9712 C   0  0  0  0  0  0  0  0  0  0  0  0
    3.0712    0.4510    1.3236 C   0  0  0  0  0  0  0  0  0  0  0  0
    2.5511    0.4305    2.5446 C   0  0  0  0  0  0  0  0  0  0  0  0
    1.1598    0.9231    2.6803 C   0  0  0  0  0  0  0  0  0  0  0  0
    0.6974    1.4708    3.7958 N   0  0  0  0  0  0  0  0  0  0  0  0
   -0.5649    1.7874    3.3952 C   0  0  0  0  0  0  0  0  0  0  0  0
   -1.6624    2.5756    4.4741 Cl  0  0  0  0  0  0  0  0  0  0  0  0
   -0.9175    1.4174    2.1770 N   0  0  0  0  0  0  0  0  0  0  0  0
    0.2342    0.8919    1.7103 N   0  0  0  0  0  0  0  0  0  0  0  0
    3.3235   -0.2006    3.7185 C   0  0  1  0  0  0  0  0  0  0  0  0
    3.8710    0.9853    4.5470 C   0  0  0  0  0  0  0  0  0  0  0  0
    2.3979   -1.1129    4.5754 C   0  0  0  0  0  0  0  0  0  0  0  0
    2.9703   -2.5166    4.8681 C   0  0  0  0  0  0  0  0  0  0  0  0
    4.2834   -2.5612    5.1376 C   0  0  0  0  0  0  0  0  0  0  0  0
    5.1080   -1.8750    4.1753 C   0  0  0  0  0  0  0  0  0  0  0  0
    4.5568   -1.0228    3.2832 C   0  0  0  0  0  0  0  0  0  0  0  0
    2.2094   -3.7994    4.4133 C   0  0  1  0  0  0  0  0  0  0  0  0
    0.6957   -3.4366    4.4382 C   0  0  0  0  0  0  0  0  0  0  0  0
    2.4813   -4.9018    5.4877 C   0  0  0  0  0  0  0  0  0  0  0  0
    1.5523   -6.1338    5.5685 C   0  0  0  0  0  0  0  0  0  0  0  0
    1.5303   -7.1142    4.3750 C   0  0  1  0  0  0  0  0  0  0  0  0
    2.8617   -7.8843    4.2427 C   0  0  0  0  0  0  0  0  0  0  0  0
    0.3997   -8.1486    4.6089 C   0  0  0  0  0  0  0  0  0  0  0  0
   -0.1521   -8.5775    3.2440 C   0  0  1  0  0  0  0  0  0  0  0  0
   -1.6829   -8.6805    3.2480 C   0  0  0  0  0  0  0  0  0  0  0  0
    0.4683   -7.6124    2.2318 C   0  0  1  0  0  0  0  0  0  0  0  0
   -0.5037   -7.1011    1.2009 C   0  0  0  0  0  0  0  0  0  0  0  0
    1.0637   -6.4554    3.0602 C   0  0  2  0  0  0  0  0  0  0  0  0
    1.9742   -5.4646    2.2464 C   0  0  2  0  0  0  0  0  0  0  0  0
    3.0431   -6.1893    1.3846 C   0  0  0  0  0  0  0  0  0  0  0  0
    0.3264    0.5670    0.7593 H   0  0  0  0  0  0  0  0  0  0  0  0
    5.5022   -7.5869    1.8434 H   0  0  0  0  0  0  0  0  0  0  0  0
    6.4285   -6.1391    2.2883 H   0  0  0  0  0  0  0  0  0  0  0  0
    5.8209   -6.3325    0.6433 H   0  0  0  0  0  0  0  0  0  0  0  0
    4.9758   -4.4393    3.4824 H   0  0  0  0  0  0  0  0  0  0  0  0
    2.1913   -3.2928    1.0611 H   0  0  0  0  0  0  0  0  0  0  0  0
    2.1627   -2.1710    2.2844 H   0  0  0  0  0  0  0  0  0  0  0  0
    4.8135   -3.2977    1.0878 H   0  0  0  0  0  0  0  0  0  0  0  0
    3.8264   -2.2408    0.2402 H   0  0  0  0  0  0  0  0  0  0  0  0
    6.6060   -1.3829    0.4805 H   0  0  0  0  0  0  0  0  0  0  0  0
    6.6919   -2.4593    1.8663 H   0  0  0  0  0  0  0  0  0  0  0  0
    6.9642   -0.7066    2.0721 H   0  0  0  0  0  0  0  0  0  0  0  0
    5.1574    0.7484    1.1326 H   0  0  0  0  0  0  0  0  0  0  0  0
    4.5292   -0.2127   -0.0984 H   0  0  0  0  0  0  0  0  0  0  0  0
    2.4868    0.8122    0.5002 H   0  0  0  0  0  0  0  0  0  0  0  0
    4.5108    1.6122    3.9236 H   0  0  0  0  0  0  0  0  0  0  0  0
    4.4659    0.6435    5.3978 H   0  0  0  0  0  0  0  0  0  0  0  0
    3.0692    1.6309    4.9195 H   0  0  0  0  0  0  0  0  0  0  0  0
    2.3320   -0.6461    5.5543 H   0  0  0  0  0  0  0  0  0  0  0  0
    1.3748   -1.0949    4.2062 H   0  0  0  0  0  0  0  0  0  0  0  0
    4.7342   -3.5060    5.4037 H   0  0  0  0  0  0  0  0  0  0  0  0
    5.9114   -2.4840    3.8257 H   0  0  0  0  0  0  0  0  0  0  0  0
    0.0207   -4.2728    4.4895 H   0  0  0  0  0  0  0  0  0  0  0  0
    0.4006   -2.8862    3.5479 H   0  0  0  0  0  0  0  0  0  0  0  0
    0.4404   -2.8347    5.3142 H   0  0  0  0  0  0  0  0  0  0  0  0
    3.5073   -5.2638    5.4418 H   0  0  0  0  0  0  0  0  0  0  0  0
    2.4082   -4.4264    6.4670 H   0  0  0  0  0  0  0  0  0  0  0  0
    1.8643   -6.7229    6.4254 H   0  0  0  0  0  0  0  0  0  0  0  0
    0.5397   -5.8271    5.8289 H   0  0  0  0  0  0  0  0  0  0  0  0
    2.8826   -8.5299    3.3629 H   0  0  0  0  0  0  0  0  0  0  0  0
    3.0245   -8.5275    5.1068 H   0  0  0  0  0  0  0  0  0  0  0  0
    3.7159   -7.2154    4.1902 H   0  0  0  0  0  0  0  0  0  0  0  0
    0.7321   -9.0163    5.1802 H   0  0  0  0  0  0  0  0  0  0  0  0
   -0.4090   -7.6985    5.1825 H   0  0  0  0  0  0  0  0  0  0  0  0
    0.2330   -9.5711    3.0222 H   0  0  0  0  0  0  0  0  0  0  0  0
   -2.1855   -7.7378    3.4426 H   0  0  0  0  0  0  0  0  0  0  0  0
   -1.9803   -9.3713    4.0271 H   0  0  0  0  0  0  0  0  0  0  0  0
   -2.0706   -9.1171    2.3307 H   0  0  0  0  0  0  0  0  0  0  0  0
    1.2225   -8.1985    1.7114 H   0  0  0  0  0  0  0  0  0  0  0  0
   -1.2919   -6.5364    1.7098 H   0  0  0  0  0  0  0  0  0  0  0  0
   -0.9904   -7.9129    0.6843 H   0  0  0  0  0  0  0  0  0  0  0  0
   -0.0120   -6.5127    0.4318 H   0  0  0  0  0  0  0  0  0  0  0  0
    0.1747   -5.8988    3.3312 H   0  0  0  0  0  0  0  0  0  0  0  0
    1.2664   -5.0523    1.5335 H   0  0  0  0  0  0  0  0  0  0  0  0
    3.0552   -5.7951    0.3715 H   0  0  0  0  0  0  0  0  0  0  0  0
    2.9867   -7.2737    1.3213 H   0  0  0  0  0  0  0  0  0  0  0  0
  1  2  1  0
  1 40  1  0
  1 41  1  0
  1 42  1  0
  2 38  1  0
  2  3  2  0
  4  3  1  1
  3 43  1  0
  4 25  1  0
  4 37  1  0
  4  5  1  0
  5  6  1  0
  5 44  1  0
  5 45  1  0
  6  7  1  0
  6 46  1  0
  6 47  1  0
  7 24  1  0
  7  8  1  1
  7  9  1  0
  8 48  1  0
  8 49  1  0
  8 50  1  0
  9 10  1  0
  9 51  1  0
  9 52  1  0
 10 11  2  0
 10 53  1  0
 11 12  1  0
 11 18  1  0
 12 17  1  0
 12 13  2  0
 13 14  1  0
 14 15  1  0
 14 16  2  0
 16 17  1  0
 17 39  1  0
 18 24  1  0
 18 19  1  1
 18 20  1  0
 19 54  1  0
 19 55  1  0
 19 56  1  0
 20 21  1  0
 20 57  1  0
 20 58  1  0
 21 22  2  0
 21 25  1  0
 22 23  1  0
 22 59  1  0
 23 24  2  0
 23 60  1  0
 25 26  1  6
 25 27  1  0
 26 61  1  0
 26 62  1  0
 26 63  1  0
 27 28  1  0
 27 64  1  0
 27 65  1  0
 28 29  1  0
 28 66  1  0
 28 67  1  0
 29 36  1  0
 29 30  1  6
 29 31  1  0
 30 68  1  0
 30 69  1  0
 30 70  1  0
 31 32  1  0
 31 71  1  0
 31 72  1  0
 32 33  1  0
 32 34  1  0
 32 73  1  6
 33 74  1  0
 33 75  1  0
 33 76  1  0
 34 35  1  0
 34 36  1  0
 34 77  1  6
 35 78  1  0
 35 79  1  0
 35 80  1  0
 36 37  1  0
 36 81  1  1
 37 38  1  0
 37 82  1  6
 38 83  1  0
 38 84  1  0
M  END
>  <i_m_ct_stereo_status>  (182) 
1

>  <s_m_source_file>  (182) 
/var/tmp/pbs.5076255.sched01/tmp9rjncpta/544vc0qzzn.sdf

>  <i_m_source_file_index>  (182) 
29

>  <i_lp_mmshare_version>  (182) 
48012

>  <i_f3d_flags>  (182) 
0

>  <s_epik_input>  (182) 
W0NIM11DKD1bQ0hdMSlbQ0gyXVtDQEhdMltDQEBIXShbQ0BIXShbQ0gzXSlbQ0BASF0oW0NIMl0zKVtDSDNdKVtDQEBdMyhbQ0gzXSlbQ0gyXVtDSDJdW0NAQF0oW0NAQF0xMjQpKFtDSDNdKUM1PVtDSF1bQ0hdPUM2W0NAQF0oW0NIM10pKFtDSDJdW0NIMl00KVtDSDJdW0NIXT1DKFtDQEBdNihbQ0gzXSlbQ0gyXTUpYzduYyhDbCluW25IXTc=

>  <s_epik_cmdline>  (182) 
J2VwaWtfcHl0aG9uJywgJy1waHQnLCAnMi4wJywgJy1waCcsICc3LjAnLCAnLXRuJywgJzgnLCAnLW1hJywgJzIwMCcsICctaW1hZScsICc8aW5maWxlLm1hZT4nLCAnLW9tYWUnLCAnPG91dGZpbGUubWFlPic=

>  <r_lp_tautomer_probability>  (182) 
1

>  <r_epik_Ionization_Penalty>  (182) 
0.000201929

>  <r_epik_Ionization_Penalty_Charging>  (182) 
0

>  <r_epik_Ionization_Penalty_Neutral>  (182) 
0.000201929

>  <r_epik_State_Penalty>  (182) 
-0

>  <r_epik_Charging_Adjusted_Penalty>  (182) 
0

>  <i_epik_Tot_Q>  (182) 
0

>  <i_epik_Tot_abs_Q>  (182) 
0

>  <s_lp_Force_Field>  (182) 
OPLS3e

>  <r_lp_Energy>  (182) 
143.331

>  <b_lp_Chiralities_Consistent>  (182) 
1

>  <s_lp_Variant>  (182) 
53:0-1

>  <s_i_glide_gridfile>  (182) 
pfpi4k_grid

>  <i_i_glide_lignum>  (182) 
29

>  <i_i_glide_rotatable_bonds>  (182) 
1

>  <r_i_docking_score>  (182) 
-2.61664

>  <r_i_glide_ligand_efficiency>  (182) 
-0.0688591

>  <r_i_glide_ligand_efficiency_sa>  (182) 
-0.231502

>  <r_i_glide_ligand_efficiency_ln>  (182) 
-0.564225

>  <r_i_glide_gscore>  (182) 
-2.61664

>  <r_i_glide_lipo>  (182) 
-0.681626

>  <r_i_glide_hbond>  (182) 
-0.185441

>  <r_i_glide_metal>  (182) 
-0

>  <r_i_glide_rewards>  (182) 
0

>  <r_i_glide_evdw>  (182) 
-29.4772

>  <r_i_glide_ecoul>  (182) 
-1.26443

>  <r_i_glide_erotb>  (182) 
0.0728172

>  <r_i_glide_esite>  (182) 
-0.158871

>  <r_i_glide_emodel>  (182) 
-35.8304

>  <r_i_glide_energy>  (182) 
-30.7416

>  <r_i_glide_einternal>  (182) 
0.414053

>  <r_i_glide_intrahb_reward>  (182) 
-0

>  <i_i_glide_confnum>  (182) 
3

>  <i_i_glide_posenum>  (182) 
40

>  <r_i_glide_eff_state_penalty>  (182) 
0

>  <ligand_id>  (182) 
53

>  <original_smiles>  (182) 
CC1=CC23CCC4(C)CC=C(c5nc(Cl)n[nH]5)C5(C)CC(=CC=C45)C2(C)CCC2(C)CC(C)C(C)C2C3C1

>  <smiles>  (182) 
[H]C1=C2C3(C([H])([H])[H])C(c4nc(Cl)nn4[H])=C([H])C([H])([H])C2(C([H])([H])[H])C([H])([H])C([H])([H])C24C([H])=C(C([H])([H])[H])C([H])([H])C2([H])C2([H])C([H])(C([H])([H])[H])C([H])(C([H])([H])[H])C([H])([H])C2(C([H])([H])[H])C([H])([H])C([H])([H])C4(C([H])([H])[H])C(=C1[H])C3([H])[H]

$$$$
53:0:2
     RDKit          3D

 84 90  0  0  1  0  0  0  0  0999 V2000
    5.4335   -5.2752    0.5105 C   0  0  0  0  0  0  0  0  0  0  0  0
    4.2443   -5.0773    1.4230 C   0  0  0  0  0  0  0  0  0  0  0  0
    4.2097   -4.4184    2.5785 C   0  0  0  0  0  0  0  0  0  0  0  0
    2.8102   -4.2706    3.1717 C   0  0  2  0  0  0  0  0  0  0  0  0
    2.2504   -2.8642    2.6316 C   0  0  0  0  0  0  0  0  0  0  0  0
    3.1423   -1.8385    1.8060 C   0  0  0  0  0  0  0  0  0  0  0  0
    3.8067   -0.5757    2.4813 C   0  0  1  0  0  0  0  0  0  0  0  0
    5.1522   -0.2899    1.7726 C   0  0  0  0  0  0  0  0  0  0  0  0
    2.9315    0.6766    2.2590 C   0  0  0  0  0  0  0  0  0  0  0  0
    1.6626    0.6455    3.0544 C   0  0  0  0  0  0  0  0  0  0  0  0
    1.5971    0.1022    4.2811 C   0  0  0  0  0  0  0  0  0  0  0  0
    0.3034    0.1773    4.9489 C   0  0  0  0  0  0  0  0  0  0  0  0
   -0.0684    1.2268    5.6707 N   0  0  0  0  0  0  0  0  0  0  0  0
   -1.3057    0.8189    6.0620 C   0  0  0  0  0  0  0  0  0  0  0  0
   -2.2826    1.7924    7.0942 Cl  0  0  0  0  0  0  0  0  0  0  0  0
   -1.6962   -0.3926    5.6649 N   0  0  0  0  0  0  0  0  0  0  0  0
   -0.6341   -0.7803    4.9225 N   0  0  0  0  0  0  0  0  0  0  0  0
    2.8413   -0.5282    4.9472 C   0  0  1  0  0  0  0  0  0  0  0  0
    3.3850    0.5502    5.9164 C   0  0  0  0  0  0  0  0  0  0  0  0
    2.4957   -1.8268    5.7395 C   0  0  0  0  0  0  0  0  0  0  0  0
    3.3851   -3.0369    5.3851 C   0  0  0  0  0  0  0  0  0  0  0  0
    4.6992   -2.7741    5.2383 C   0  0  0  0  0  0  0  0  0  0  0  0
    5.0049   -1.6586    4.3704 C   0  0  0  0  0  0  0  0  0  0  0  0
    4.0058   -0.8357    3.9749 C   0  0  0  0  0  0  0  0  0  0  0  0
    2.7620   -4.3442    4.7920 C   0  0  1  0  0  0  0  0  0  0  0  0
    1.3008   -4.4457    5.3330 C   0  0  0  0  0  0  0  0  0  0  0  0
    3.5891   -5.5569    5.3413 C   0  0  0  0  0  0  0  0  0  0  0  0
    3.0008   -6.9842    5.2773 C   0  0  0  0  0  0  0  0  0  0  0  0
    2.7385   -7.6137    3.8865 C   0  0  1  0  0  0  0  0  0  0  0  0
    4.0684   -7.9221    3.1626 C   0  0  0  0  0  0  0  0  0  0  0  0
    1.9927   -8.9551    4.0960 C   0  0  0  0  0  0  0  0  0  0  0  0
    1.0956   -9.2079    2.8762 C   0  0  1  0  0  0  0  0  0  0  0  0
   -0.2677   -9.7911    3.2780 C   0  0  0  0  0  0  0  0  0  0  0  0
    1.0614   -7.8747    2.1003 C   0  0  1  0  0  0  0  0  0  0  0  0
   -0.3117   -7.4469    1.5485 C   0  0  0  0  0  0  0  0  0  0  0  0
    1.7089   -6.8215    3.0383 C   0  0  2  0  0  0  0  0  0  0  0  0
    2.0777   -5.4467    2.3657 C   0  0  2  0  0  0  0  0  0  0  0  0
    2.9030   -5.6146    1.0563 C   0  0  0  0  0  0  0  0  0  0  0  0
   -0.5710   -1.6724    4.4562 H   0  0  0  0  0  0  0  0  0  0  0  0
    5.6031   -6.3376    0.3431 H   0  0  0  0  0  0  0  0  0  0  0  0
    6.3376   -4.8386    0.9364 H   0  0  0  0  0  0  0  0  0  0  0  0
    5.2459   -4.8055   -0.4553 H   0  0  0  0  0  0  0  0  0  0  0  0
    5.0911   -3.9624    2.9852 H   0  0  0  0  0  0  0  0  0  0  0  0
    1.4519   -3.0776    1.9318 H   0  0  0  0  0  0  0  0  0  0  0  0
    1.6721   -2.3484    3.3857 H   0  0  0  0  0  0  0  0  0  0  0  0
    3.8873   -2.3588    1.2067 H   0  0  0  0  0  0  0  0  0  0  0  0
    2.4922   -1.4500    1.0205 H   0  0  0  0  0  0  0  0  0  0  0  0
    5.0019    0.0811    0.7578 H   0  0  0  0  0  0  0  0  0  0  0  0
    5.7952   -1.1650    1.6894 H   0  0  0  0  0  0  0  0  0  0  0  0
    5.7160    0.4576    2.3268 H   0  0  0  0  0  0  0  0  0  0  0  0
    3.4446    1.5879    2.5592 H   0  0  0  0  0  0  0  0  0  0  0  0
    2.6847    0.7939    1.2045 H   0  0  0  0  0  0  0  0  0  0  0  0
    0.8080    1.1359    2.6151 H   0  0  0  0  0  0  0  0  0  0  0  0
    3.6483    1.4620    5.3768 H   0  0  0  0  0  0  0  0  0  0  0  0
    4.2866    0.2154    6.4314 H   0  0  0  0  0  0  0  0  0  0  0  0
    2.6536    0.8255    6.6770 H   0  0  0  0  0  0  0  0  0  0  0  0
    2.6906   -1.6441    6.7942 H   0  0  0  0  0  0  0  0  0  0  0  0
    1.4356   -2.0362    5.7260 H   0  0  0  0  0  0  0  0  0  0  0  0
    5.3713   -3.5958    5.0593 H   0  0  0  0  0  0  0  0  0  0  0  0
    5.7914   -1.8839    3.6726 H   0  0  0  0  0  0  0  0  0  0  0  0
    0.8584   -5.4288    5.3135 H   0  0  0  0  0  0  0  0  0  0  0  0
    0.6100   -3.8104    4.7792 H   0  0  0  0  0  0  0  0  0  0  0  0
    1.2511   -4.1686    6.3866 H   0  0  0  0  0  0  0  0  0  0  0  0
    4.5833   -5.5885    4.9019 H   0  0  0  0  0  0  0  0  0  0  0  0
    3.7689   -5.3661    6.3993 H   0  0  0  0  0  0  0  0  0  0  0  0
    3.7013   -7.6383    5.7953 H   0  0  0  0  0  0  0  0  0  0  0  0
    2.1070   -7.0372    5.8965 H   0  0  0  0  0  0  0  0  0  0  0  0
    3.9081   -8.3099    2.1570 H   0  0  0  0  0  0  0  0  0  0  0  0
    4.6438   -8.6750    3.7018 H   0  0  0  0  0  0  0  0  0  0  0  0
    4.7106   -7.0503    3.0882 H   0  0  0  0  0  0  0  0  0  0  0  0
    2.6670   -9.7951    4.2701 H   0  0  0  0  0  0  0  0  0  0  0  0
    1.3606   -8.8999    4.9843 H   0  0  0  0  0  0  0  0  0  0  0  0
    1.5822   -9.9520    2.2427 H   0  0  0  0  0  0  0  0  0  0  0  0
   -0.8376   -9.0989    3.8972 H   0  0  0  0  0  0  0  0  0  0  0  0
   -0.1398  -10.7053    3.8563 H   0  0  0  0  0  0  0  0  0  0  0  0
   -0.8750  -10.0499    2.4072 H   0  0  0  0  0  0  0  0  0  0  0  0
    1.6932   -8.0670    1.2388 H   0  0  0  0  0  0  0  0  0  0  0  0
   -1.0285   -7.2226    2.3378 H   0  0  0  0  0  0  0  0  0  0  0  0
   -0.7516   -8.2269    0.9291 H   0  0  0  0  0  0  0  0  0  0  0  0
   -0.2167   -6.5734    0.9077 H   0  0  0  0  0  0  0  0  0  0  0  0
    0.8826   -6.6146    3.7088 H   0  0  0  0  0  0  0  0  0  0  0  0
    1.0900   -5.0883    2.0843 H   0  0  0  0  0  0  0  0  0  0  0  0
    2.4937   -5.0180    0.2411 H   0  0  0  0  0  0  0  0  0  0  0  0
    3.0357   -6.6281    0.6918 H   0  0  0  0  0  0  0  0  0  0  0  0
  1  2  1  0
  1 40  1  0
  1 41  1  0
  1 42  1  0
  2 38  1  0
  2  3  2  0
  4  3  1  1
  3 43  1  0
  4 25  1  0
  4 37  1  0
  4  5  1  0
  5  6  1  0
  5 44  1  0
  5 45  1  0
  6  7  1  0
  6 46  1  0
  6 47  1  0
  7 24  1  0
  7  8  1  6
  7  9  1  0
  8 48  1  0
  8 49  1  0
  8 50  1  0
  9 10  1  0
  9 51  1  0
  9 52  1  0
 10 11  2  0
 10 53  1  0
 11 12  1  0
 11 18  1  0
 12 17  1  0
 12 13  2  0
 13 14  1  0
 14 15  1  0
 14 16  2  0
 16 17  1  0
 17 39  1  0
 18 24  1  0
 18 19  1  1
 18 20  1  0
 19 54  1  0
 19 55  1  0
 19 56  1  0
 20 21  1  0
 20 57  1  0
 20 58  1  0
 21 22  2  0
 21 25  1  0
 22 23  1  0
 22 59  1  0
 23 24  2  0
 23 60  1  0
 25 26  1  6
 25 27  1  0
 26 61  1  0
 26 62  1  0
 26 63  1  0
 27 28  1  0
 27 64  1  0
 27 65  1  0
 28 29  1  0
 28 66  1  0
 28 67  1  0
 29 36  1  0
 29 30  1  6
 29 31  1  0
 30 68  1  0
 30 69  1  0
 30 70  1  0
 31 32  1  0
 31 71  1  0
 31 72  1  0
 32 33  1  0
 32 34  1  0
 32 73  1  6
 33 74  1  0
 33 75  1  0
 33 76  1  0
 34 35  1  0
 34 36  1  0
 34 77  1  6
 35 78  1  0
 35 79  1  0
 35 80  1  0
 36 37  1  0
 36 81  1  1
 37 38  1  0
 37 82  1  6
 38 83  1  0
 38 84  1  0
M  END
>  <i_m_ct_stereo_status>  (183) 
1

>  <s_m_source_file>  (183) 
/var/tmp/pbs.5076255.sched01/tmp9rjncpta/544vc0qzzn.sdf

>  <i_m_source_file_index>  (183) 
29

>  <i_lp_mmshare_version>  (183) 
48012

>  <i_f3d_flags>  (183) 
0

>  <s_epik_input>  (183) 
W0NIM11DKD1bQ0hdMSlbQ0gyXVtDQEhdMltDQEBIXShbQ0BIXShbQ0gzXSlbQ0BASF0oW0NIMl0zKVtDSDNdKVtDQEBdMyhbQ0gzXSlbQ0gyXVtDSDJdW0NAQF0oW0NAQF0xMjQpKFtDSDNdKUM1PVtDSF1bQ0hdPUM2W0NAQF0oW0NIM10pKFtDSDJdW0NIMl00KVtDSDJdW0NIXT1DKFtDQEBdNihbQ0gzXSlbQ0gyXTUpYzduYyhDbCluW25IXTc=

>  <s_epik_cmdline>  (183) 
J2VwaWtfcHl0aG9uJywgJy1waHQnLCAnMi4wJywgJy1waCcsICc3LjAnLCAnLXRuJywgJzgnLCAnLW1hJywgJzIwMCcsICctaW1hZScsICc8aW5maWxlLm1hZT4nLCAnLW9tYWUnLCAnPG91dGZpbGUubWFlPic=

>  <r_lp_tautomer_probability>  (183) 
1

>  <r_epik_Ionization_Penalty>  (183) 
0.000201929

>  <r_epik_Ionization_Penalty_Charging>  (183) 
0

>  <r_epik_Ionization_Penalty_Neutral>  (183) 
0.000201929

>  <r_epik_State_Penalty>  (183) 
-0

>  <r_epik_Charging_Adjusted_Penalty>  (183) 
0

>  <i_epik_Tot_Q>  (183) 
0

>  <i_epik_Tot_abs_Q>  (183) 
0

>  <s_lp_Force_Field>  (183) 
OPLS3e

>  <r_lp_Energy>  (183) 
143.331

>  <b_lp_Chiralities_Consistent>  (183) 
1

>  <s_lp_Variant>  (183) 
53:0-1

>  <s_i_glide_gridfile>  (183) 
pfpi4k_grid

>  <i_i_glide_lignum>  (183) 
29

>  <i_i_glide_rotatable_bonds>  (183) 
1

>  <r_i_docking_score>  (183) 
-2.5478

>  <r_i_glide_ligand_efficiency>  (183) 
-0.0670474

>  <r_i_glide_ligand_efficiency_sa>  (183) 
-0.225412

>  <r_i_glide_ligand_efficiency_ln>  (183) 
-0.549381

>  <r_i_glide_gscore>  (183) 
-2.5478

>  <r_i_glide_lipo>  (183) 
-0.455065

>  <r_i_glide_hbond>  (183) 
-0.0320906

>  <r_i_glide_metal>  (183) 
-0

>  <r_i_glide_rewards>  (183) 
0

>  <r_i_glide_evdw>  (183) 
-33.4866

>  <r_i_glide_ecoul>  (183) 
-2.52255

>  <r_i_glide_erotb>  (183) 
0.0728172

>  <r_i_glide_esite>  (183) 
-0.0807453

>  <r_i_glide_emodel>  (183) 
-39.7139

>  <r_i_glide_energy>  (183) 
-36.0092

>  <r_i_glide_einternal>  (183) 
3.52219

>  <r_i_glide_intrahb_reward>  (183) 
-0

>  <i_i_glide_confnum>  (183) 
1

>  <i_i_glide_posenum>  (183) 
1

>  <r_i_glide_eff_state_penalty>  (183) 
0

>  <ligand_id>  (183) 
53

>  <original_smiles>  (183) 
CC1=CC23CCC4(C)CC=C(c5nc(Cl)n[nH]5)C5(C)CC(=CC=C45)C2(C)CCC2(C)CC(C)C(C)C2C3C1

>  <smiles>  (183) 
[H]C1=C2C3(C([H])([H])[H])C(c4nc(Cl)nn4[H])=C([H])C([H])([H])C2(C([H])([H])[H])C([H])([H])C([H])([H])C24C([H])=C(C([H])([H])[H])C([H])([H])C2([H])C2([H])C([H])(C([H])([H])[H])C([H])(C([H])([H])[H])C([H])([H])C2(C([H])([H])[H])C([H])([H])C([H])([H])C4(C([H])([H])[H])C(=C1[H])C3([H])[H]

$$$$
55:0:0
     RDKit          3D

 82 88  0  0  1  0  0  0  0  0999 V2000
    5.8248    2.8995    7.3419 C   0  0  0  0  0  0  0  0  0  0  0  0
    4.6058    3.2249    6.8611 C   0  0  0  0  0  0  0  0  0  0  0  0
    4.0153    2.7176    5.5860 C   0  0  1  0  0  0  0  0  0  0  0  0
    4.2536    1.1989    5.3548 C   0  0  0  0  0  0  0  0  0  0  0  0
    2.5407    3.2551    5.2686 C   0  0  2  0  0  0  0  0  0  0  0  0
    2.5789    3.3880    3.7101 C   0  0  1  0  0  0  0  0  0  0  0  0
    1.6353    2.7017    2.9231 O   0  0  0  0  0  0  0  0  0  0  0  0
    3.1077    4.6936    3.1711 C   0  0  0  0  0  0  0  0  0  0  0  0
    2.9147    5.8620    4.1240 C   0  0  1  0  0  0  0  0  0  0  0  0
    1.3950    6.2598    4.1312 C   0  0  2  0  0  0  0  0  0  0  0  0
    1.1445    7.1167    5.1837 O   0  0  0  0  0  0  0  0  0  0  0  0
    0.5203    6.6808    6.2123 C   0  0  0  0  0  0  0  0  0  0  0  0
   -0.5653    7.2074    6.4793 O   0  0  0  0  0  0  0  0  0  0  0  0
    1.2251    5.5808    7.0892 C   0  0  1  0  0  0  0  0  0  0  0  0
    2.5609    6.2775    7.4842 C   0  0  0  0  0  0  0  0  0  0  0  0
    3.7255    5.5922    6.8764 C   0  0  1  0  0  0  0  0  0  0  0  0
    3.6526    4.1196    7.5501 C   0  0  1  0  0  0  0  0  0  0  0  0
    2.2107    3.3842    7.6597 C   0  0  1  0  0  0  0  0  0  0  0  0
    2.2435    1.9408    7.5315 O   0  0  0  0  0  0  0  0  0  0  0  0
    2.9128    1.1080    8.4940 C   0  0  0  0  0  0  0  0  0  0  0  0
    1.5034    3.4564    9.0460 C   0  0  0  0  0  0  0  0  0  0  0  0
    1.0986    4.7901    9.5839 C   0  0  0  0  0  0  0  0  0  0  0  0
    0.3835    5.6276    8.5173 C   0  0  1  0  0  0  0  0  0  0  0  0
    0.3234    7.0533    9.2072 C   0  0  0  0  0  0  0  0  0  0  0  0
   -1.1069    5.1161    8.5004 C   0  0  0  0  0  0  0  0  0  0  0  0
   -1.8273    5.3663    9.6854 O   0  0  0  0  0  0  0  0  0  0  0  0
    1.4955    4.0029    6.4017 C   0  0  2  0  0  0  0  0  0  0  0  0
    0.0954    3.5607    5.8803 C   0  0  2  0  0  0  0  0  0  0  0  0
   -0.1113    2.3939    5.0378 O   0  0  0  0  0  0  0  0  0  0  0  0
   -1.2576    3.0749    4.4268 C   0  0  1  0  0  0  0  0  0  0  0  0
   -1.5435    2.7095    2.9714 C   0  0  0  0  0  0  0  0  0  0  0  0
   -2.4726    2.8321    5.0842 O   0  0  0  0  0  0  0  0  0  0  0  0
   -0.6074    4.4213    4.8020 C   0  0  2  0  0  0  0  0  0  0  0  0
    0.1843    5.2929    3.7290 C   0  0  1  0  0  0  0  0  0  0  0  0
   -0.7454    6.0837    3.0205 O   0  0  0  0  0  0  0  0  0  0  0  0
    3.9689    6.1141    5.3465 C   0  0  0  0  0  0  0  0  0  0  0  0
    5.4392    5.8029    4.9330 C   0  0  0  0  0  0  0  0  0  0  0  0
    4.1313    7.6772    5.4164 C   0  0  0  0  0  0  0  0  0  0  0  0
    6.4822    2.2335    6.8114 H   0  0  0  0  0  0  0  0  0  0  0  0
    6.1746    3.3059    8.2787 H   0  0  0  0  0  0  0  0  0  0  0  0
    4.6634    3.1492    4.8570 H   0  0  0  0  0  0  0  0  0  0  0  0
    5.3176    0.9604    5.3350 H   0  0  0  0  0  0  0  0  0  0  0  0
    3.8471    0.8598    4.4046 H   0  0  0  0  0  0  0  0  0  0  0  0
    3.8050    0.5648    6.1102 H   0  0  0  0  0  0  0  0  0  0  0  0
    2.1009    2.2647    5.2744 H   0  0  0  0  0  0  0  0  0  0  0  0
    3.3538    2.7129    3.3475 H   0  0  0  0  0  0  0  0  0  0  0  0
    1.2300    3.3050    2.2973 H   0  0  0  0  0  0  0  0  0  0  0  0
    4.1596    4.6189    2.9548 H   0  0  0  0  0  0  0  0  0  0  0  0
    2.6631    4.9043    2.1943 H   0  0  0  0  0  0  0  0  0  0  0  0
    3.2873    6.6268    3.4428 H   0  0  0  0  0  0  0  0  0  0  0  0
    1.3785    6.9498    3.2888 H   0  0  0  0  0  0  0  0  0  0  0  0
    2.5679    7.3524    7.3213 H   0  0  0  0  0  0  0  0  0  0  0  0
    2.8097    6.2659    8.5407 H   0  0  0  0  0  0  0  0  0  0  0  0
    4.5994    6.0151    7.3802 H   0  0  0  0  0  0  0  0  0  0  0  0
    4.0228    4.2223    8.5711 H   0  0  0  0  0  0  0  0  0  0  0  0
    2.9967    0.1064    8.0790 H   0  0  0  0  0  0  0  0  0  0  0  0
    2.3594    0.9908    9.4249 H   0  0  0  0  0  0  0  0  0  0  0  0
    3.9202    1.4524    8.7269 H   0  0  0  0  0  0  0  0  0  0  0  0
    0.6286    2.8051    9.0340 H   0  0  0  0  0  0  0  0  0  0  0  0
    2.1531    3.0638    9.8247 H   0  0  0  0  0  0  0  0  0  0  0  0
    0.4524    4.6190   10.4442 H   0  0  0  0  0  0  0  0  0  0  0  0
    1.9476    5.2873   10.0546 H   0  0  0  0  0  0  0  0  0  0  0  0
   -0.0234    6.9798   10.2398 H   0  0  0  0  0  0  0  0  0  0  0  0
   -0.3655    7.7599    8.7477 H   0  0  0  0  0  0  0  0  0  0  0  0
    1.2811    7.5624    9.2862 H   0  0  0  0  0  0  0  0  0  0  0  0
   -1.7101    5.5233    7.6930 H   0  0  0  0  0  0  0  0  0  0  0  0
   -1.1855    4.0390    8.4557 H   0  0  0  0  0  0  0  0  0  0  0  0
   -1.5591    4.7295   10.3376 H   0  0  0  0  0  0  0  0  0  0  0  0
   -0.5559    3.3685    6.7177 H   0  0  0  0  0  0  0  0  0  0  0  0
   -1.7933    1.6509    2.8583 H   0  0  0  0  0  0  0  0  0  0  0  0
   -0.7221    2.9168    2.3000 H   0  0  0  0  0  0  0  0  0  0  0  0
   -2.3953    3.2885    2.5895 H   0  0  0  0  0  0  0  0  0  0  0  0
   -2.7384    1.9684    4.7717 H   0  0  0  0  0  0  0  0  0  0  0  0
   -1.3682    5.0061    5.3099 H   0  0  0  0  0  0  0  0  0  0  0  0
    0.4880    4.7003    2.8912 H   0  0  0  0  0  0  0  0  0  0  0  0
   -0.2830    6.7714    2.5335 H   0  0  0  0  0  0  0  0  0  0  0  0
    6.1602    6.2785    5.6017 H   0  0  0  0  0  0  0  0  0  0  0  0
    5.6595    6.1646    3.9326 H   0  0  0  0  0  0  0  0  0  0  0  0
    5.7310    4.7692    4.9468 H   0  0  0  0  0  0  0  0  0  0  0  0
    4.7843    7.9867    6.2315 H   0  0  0  0  0  0  0  0  0  0  0  0
    3.2085    8.2339    5.5367 H   0  0  0  0  0  0  0  0  0  0  0  0
    4.5710    8.0883    4.5058 H   0  0  0  0  0  0  0  0  0  0  0  0
  1  2  2  0
  1 39  1  0
  1 40  1  0
  2 17  1  0
  2  3  1  0
  3  4  1  0
  3  5  1  0
  3 41  1  6
  4 42  1  0
  4 43  1  0
  4 44  1  0
  5 27  1  0
  5  6  1  0
  5 45  1  6
  6  7  1  0
  6  8  1  0
  6 46  1  6
  7 47  1  0
  8  9  1  0
  8 48  1  0
  8 49  1  0
  9 36  1  0
  9 10  1  0
  9 50  1  6
 10 34  1  0
 10 11  1  0
 10 51  1  6
 11 12  1  0
 12 13  2  0
 12 14  1  0
 14 23  1  0
 14 27  1  0
 14 15  1  1
 15 16  1  0
 15 52  1  0
 15 53  1  0
 16 17  1  0
 16 36  1  0
 16 54  1  1
 17 18  1  0
 17 55  1  1
 18 19  1  6
 18 21  1  0
 27 18  1  1
 19 20  1  0
 20 56  1  0
 20 57  1  0
 20 58  1  0
 21 22  1  0
 21 59  1  0
 21 60  1  0
 22 23  1  0
 22 61  1  0
 22 62  1  0
 23 24  1  1
 23 25  1  0
 24 63  1  0
 24 64  1  0
 24 65  1  0
 25 26  1  0
 25 66  1  0
 25 67  1  0
 26 68  1  0
 27 28  1  0
 28 33  1  0
 28 29  1  0
 28 69  1  1
 29 30  1  0
 30 31  1  0
 30 32  1  1
 30 33  1  0
 31 70  1  0
 31 71  1  0
 31 72  1  0
 32 73  1  0
 33 34  1  0
 33 74  1  1
 34 35  1  0
 34 75  1  6
 35 76  1  0
 36 37  1  0
 36 38  1  0
 37 77  1  0
 37 78  1  0
 37 79  1  0
 38 80  1  0
 38 81  1  0
 38 82  1  0
M  END
>  <i_m_ct_stereo_status>  (184) 
1

>  <s_m_source_file>  (184) 
/var/tmp/pbs.5076255.sched01/tmp9rjncpta/544vc0qzzn.sdf

>  <i_m_source_file_index>  (184) 
31

>  <i_lp_mmshare_version>  (184) 
48012

>  <i_f3d_flags>  (184) 
2

>  <s_epik_input>  (184) 
W09IXVtDSDJdW0NAQF0xKFtDSDNdKVtDSDJdW0NIMl1bQ0BdMihPW0NIM10pW0NAQEhdKEMoPVtDSDJdKVtDQEBIXShbQ0gzXSlbQ0hdM1tDQF0yNFtDQF0xNTYpW0NASF0oW0NIMl02KUMoW0NIM10pKFtDSDNdKVtDQEBIXShbQ0gyXVtDQEBIXTNbT0hdKVtDQEhdKE9DNT1PKVtDQEhdKFtPSF0pW0NASF03W0NAQEhdNE9bQ0BAXTcoW0NIM10pW09IXQ==

>  <s_epik_cmdline>  (184) 
J2VwaWtfcHl0aG9uJywgJy1waHQnLCAnMi4wJywgJy1waCcsICc3LjAnLCAnLXRuJywgJzgnLCAnLW1hJywgJzIwMCcsICctaW1hZScsICc8aW5maWxlLm1hZT4nLCAnLW9tYWUnLCAnPG91dGZpbGUubWFlPic=

>  <r_lp_tautomer_probability>  (184) 
1

>  <r_epik_Ionization_Penalty>  (184) 
3.78e-06

>  <r_epik_Ionization_Penalty_Charging>  (184) 
0

>  <r_epik_Ionization_Penalty_Neutral>  (184) 
3.78e-06

>  <r_epik_State_Penalty>  (184) 
-0

>  <r_epik_Charging_Adjusted_Penalty>  (184) 
0

>  <i_epik_Tot_Q>  (184) 
0

>  <i_epik_Tot_abs_Q>  (184) 
0

>  <s_epik_Chemistry_Notes>  (184) 
This compound has an ester and may undergo hydrolysis at high or low pH.

>  <s_lp_Force_Field>  (184) 
OPLS3e

>  <r_lp_Energy>  (184) 
294.446

>  <b_lp_Chiralities_Consistent>  (184) 
0

>  <s_lp_Variant>  (184) 
55:0-1

>  <s_i_glide_gridfile>  (184) 
pfpi4k_grid

>  <i_i_glide_lignum>  (184) 
31

>  <i_i_glide_rotatable_bonds>  (184) 
6

>  <r_i_docking_score>  (184) 
-2.54336

>  <r_i_glide_ligand_efficiency>  (184) 
-0.0669305

>  <r_i_glide_ligand_efficiency_sa>  (184) 
-0.225019

>  <r_i_glide_ligand_efficiency_ln>  (184) 
-0.548423

>  <r_i_glide_gscore>  (184) 
-2.54336

>  <r_i_glide_lipo>  (184) 
-0.173139

>  <r_i_glide_hbond>  (184) 
-0.0532207

>  <r_i_glide_metal>  (184) 
-0

>  <r_i_glide_rewards>  (184) 
0

>  <r_i_glide_evdw>  (184) 
-11.9007

>  <r_i_glide_ecoul>  (184) 
-11.498

>  <r_i_glide_erotb>  (184) 
0.0508903

>  <r_i_glide_esite>  (184) 
-0.0481584

>  <r_i_glide_emodel>  (184) 
-25.683

>  <r_i_glide_energy>  (184) 
-23.3986

>  <r_i_glide_einternal>  (184) 
2.88342

>  <r_i_glide_intrahb_reward>  (184) 
-0

>  <i_i_glide_confnum>  (184) 
5

>  <i_i_glide_posenum>  (184) 
1

>  <r_i_glide_eff_state_penalty>  (184) 
0

>  <ligand_id>  (184) 
55

>  <original_smiles>  (184) 
C=C1C(C)C2C(O)CC3C4OC(=O)C56CC(C1C(OC)(CCC5(C)CO)C26C1OC(C)(O)C1C4O)C3(C)C

>  <smiles>  (184) 
[H]OC([H])([H])C1(C([H])([H])[H])C([H])([H])C([H])([H])C2(OC([H])([H])[H])C3([H])C(=C([H])[H])C([H])(C([H])([H])[H])C4([H])C([H])(O[H])C([H])([H])C5([H])C6([H])OC(=O)C1(C([H])([H])C3([H])C5(C([H])([H])[H])C([H])([H])[H])C42C1([H])OC(O[H])(C([H])([H])[H])C1([H])C6([H])O[H]

$$$$
55:0:1
     RDKit          3D

 82 88  0  0  1  0  0  0  0  0999 V2000
    4.5992    0.8448    8.3161 C   0  0  0  0  0  0  0  0  0  0  0  0
    3.5981    1.5041    7.6922 C   0  0  0  0  0  0  0  0  0  0  0  0
    3.1454    1.2626    6.2924 C   0  0  1  0  0  0  0  0  0  0  0  0
    3.0392   -0.2448    5.9279 C   0  0  0  0  0  0  0  0  0  0  0  0
    1.9144    2.1788    5.8322 C   0  0  2  0  0  0  0  0  0  0  0  0
    2.2449    2.4171    4.3278 C   0  0  1  0  0  0  0  0  0  0  0  0
    1.3322    2.0549    3.3205 O   0  0  0  0  0  0  0  0  0  0  0  0
    3.1827    3.5584    4.0410 C   0  0  0  0  0  0  0  0  0  0  0  0
    3.0835    4.6770    5.0691 C   0  0  1  0  0  0  0  0  0  0  0  0
    1.7140    5.4491    4.8975 C   0  0  2  0  0  0  0  0  0  0  0  0
    1.4977    6.2610    5.9945 O   0  0  0  0  0  0  0  0  0  0  0  0
    0.6039    5.9217    6.8619 C   0  0  0  0  0  0  0  0  0  0  0  0
   -0.3674    6.6677    7.0067 O   0  0  0  0  0  0  0  0  0  0  0  0
    0.8768    4.6155    7.6928 C   0  0  1  0  0  0  0  0  0  0  0  0
    2.2500    4.9172    8.3633 C   0  0  0  0  0  0  0  0  0  0  0  0
    3.3073    4.0055    7.8576 C   0  0  1  0  0  0  0  0  0  0  0  0
    2.7741    2.5517    8.3338 C   0  0  1  0  0  0  0  0  0  0  0  0
    1.2040    2.2003    8.1431 C   0  0  1  0  0  0  0  0  0  0  0  0
    0.9099    0.8072    7.8513 O   0  0  0  0  0  0  0  0  0  0  0  0
    1.1913   -0.2378    8.7983 C   0  0  0  0  0  0  0  0  0  0  0  0
    0.2984    2.3396    9.4042 C   0  0  0  0  0  0  0  0  0  0  0  0
    0.1372    3.6891   10.0349 C   0  0  0  0  0  0  0  0  0  0  0  0
   -0.1617    4.7578    8.9805 C   0  0  1  0  0  0  0  0  0  0  0  0
   -0.0038    6.0983    9.8142 C   0  0  0  0  0  0  0  0  0  0  0  0
   -1.7079    4.6453    8.6833 C   0  0  0  0  0  0  0  0  0  0  0  0
   -2.5214    4.9789    9.7824 O   0  0  0  0  0  0  0  0  0  0  0  0
    0.8872    3.0727    6.8780 C   0  0  2  0  0  0  0  0  0  0  0  0
   -0.4676    3.0288    6.1053 C   0  0  2  0  0  0  0  0  0  0  0  0
   -0.7842    2.0432    5.0880 O   0  0  0  0  0  0  0  0  0  0  0  0
   -1.6091    3.0377    4.4167 C   0  0  1  0  0  0  0  0  0  0  0  0
   -1.7234    2.8739    2.8978 C   0  0  0  0  0  0  0  0  0  0  0  0
   -2.9645    3.0539    4.8410 O   0  0  0  0  0  0  0  0  0  0  0  0
   -0.7444    4.1235    5.0454 C   0  0  2  0  0  0  0  0  0  0  0  0
    0.3849    4.8608    4.2259 C   0  0  1  0  0  0  0  0  0  0  0  0
   -0.2709    5.9410    3.5990 O   0  0  0  0  0  0  0  0  0  0  0  0
    3.9357    4.5636    6.4574 C   0  0  0  0  0  0  0  0  0  0  0  0
    5.3350    3.9180    6.2192 C   0  0  0  0  0  0  0  0  0  0  0  0
    4.4440    6.0229    6.7321 C   0  0  0  0  0  0  0  0  0  0  0  0
    5.1636    0.0766    7.8127 H   0  0  0  0  0  0  0  0  0  0  0  0
    4.8587    1.0708    9.3362 H   0  0  0  0  0  0  0  0  0  0  0  0
    4.0142    1.5294    5.7063 H   0  0  0  0  0  0  0  0  0  0  0  0
    3.9986   -0.7492    6.0399 H   0  0  0  0  0  0  0  0  0  0  0  0
    2.7308   -0.3987    4.8967 H   0  0  0  0  0  0  0  0  0  0  0  0
    2.3237   -0.7930    6.5335 H   0  0  0  0  0  0  0  0  0  0  0  0
    1.2561    1.3323    5.6583 H   0  0  0  0  0  0  0  0  0  0  0  0
    2.8745    1.5863    4.0081 H   0  0  0  0  0  0  0  0  0  0  0  0
    0.9083    2.8177    2.9733 H   0  0  0  0  0  0  0  0  0  0  0  0
    4.2058    3.1864    4.0091 H   0  0  0  0  0  0  0  0  0  0  0  0
    2.9900    3.9467    3.0371 H   0  0  0  0  0  0  0  0  0  0  0  0
    3.7298    5.3775    4.5464 H   0  0  0  0  0  0  0  0  0  0  0  0
    1.9953    6.1895    4.1485 H   0  0  0  0  0  0  0  0  0  0  0  0
    2.5365    5.9654    8.3315 H   0  0  0  0  0  0  0  0  0  0  0  0
    2.3007    4.7624    9.4326 H   0  0  0  0  0  0  0  0  0  0  0  0
    4.1552    4.1549    8.5370 H   0  0  0  0  0  0  0  0  0  0  0  0
    2.9729    2.4793    9.4062 H   0  0  0  0  0  0  0  0  0  0  0  0
    1.1069   -1.1924    8.2865 H   0  0  0  0  0  0  0  0  0  0  0  0
    0.4817   -0.2833    9.6202 H   0  0  0  0  0  0  0  0  0  0  0  0
    2.2003   -0.1754    9.2108 H   0  0  0  0  0  0  0  0  0  0  0  0
   -0.6862    1.9386    9.1919 H   0  0  0  0  0  0  0  0  0  0  0  0
    0.6933    1.7384   10.2245 H   0  0  0  0  0  0  0  0  0  0  0  0
   -0.6673    3.6168   10.7649 H   0  0  0  0  0  0  0  0  0  0  0  0
    0.9838    3.9163   10.6778 H   0  0  0  0  0  0  0  0  0  0  0  0
   -0.5278    6.0358   10.7669 H   0  0  0  0  0  0  0  0  0  0  0  0
   -0.4124    6.9875    9.3408 H   0  0  0  0  0  0  0  0  0  0  0  0
    1.0215    6.3394   10.0963 H   0  0  0  0  0  0  0  0  0  0  0  0
   -2.0488    5.2508    7.8522 H   0  0  0  0  0  0  0  0  0  0  0  0
   -2.0486    3.6390    8.5198 H   0  0  0  0  0  0  0  0  0  0  0  0
   -2.4648    4.2725   10.4042 H   0  0  0  0  0  0  0  0  0  0  0  0
   -1.2770    2.9300    6.7951 H   0  0  0  0  0  0  0  0  0  0  0  0
   -2.1823    1.9194    2.6265 H   0  0  0  0  0  0  0  0  0  0  0  0
   -0.7699    2.9218    2.3795 H   0  0  0  0  0  0  0  0  0  0  0  0
   -2.3425    3.6702    2.4723 H   0  0  0  0  0  0  0  0  0  0  0  0
   -3.3384    2.2884    4.4447 H   0  0  0  0  0  0  0  0  0  0  0  0
   -1.4154    4.8539    5.4989 H   0  0  0  0  0  0  0  0  0  0  0  0
    0.6643    4.3025    3.3440 H   0  0  0  0  0  0  0  0  0  0  0  0
    0.2600    6.2980    2.8998 H   0  0  0  0  0  0  0  0  0  0  0  0
    6.0230    4.1393    7.0411 H   0  0  0  0  0  0  0  0  0  0  0  0
    5.8037    4.3126    5.3195 H   0  0  0  0  0  0  0  0  0  0  0  0
    5.3807    2.8452    6.1374 H   0  0  0  0  0  0  0  0  0  0  0  0
    4.9994    6.0936    7.6682 H   0  0  0  0  0  0  0  0  0  0  0  0
    3.6718    6.7822    6.7789 H   0  0  0  0  0  0  0  0  0  0  0  0
    5.1202    6.3811    5.9538 H   0  0  0  0  0  0  0  0  0  0  0  0
  1  2  2  0
  1 39  1  0
  1 40  1  0
  2 17  1  0
  2  3  1  0
  3  4  1  0
  3  5  1  0
  3 41  1  6
  4 42  1  0
  4 43  1  0
  4 44  1  0
  5 27  1  0
  5  6  1  0
  5 45  1  6
  6  7  1  0
  6  8  1  0
  6 46  1  6
  7 47  1  0
  8  9  1  0
  8 48  1  0
  8 49  1  0
  9 36  1  0
  9 10  1  0
  9 50  1  6
 10 34  1  0
 10 11  1  0
 10 51  1  6
 11 12  1  0
 12 13  2  0
 12 14  1  0
 14 23  1  0
 14 27  1  0
 14 15  1  1
 15 16  1  0
 15 52  1  0
 15 53  1  0
 16 17  1  0
 16 36  1  0
 16 54  1  1
 17 18  1  0
 17 55  1  1
 18 19  1  6
 18 21  1  0
 27 18  1  1
 19 20  1  0
 20 56  1  0
 20 57  1  0
 20 58  1  0
 21 22  1  0
 21 59  1  0
 21 60  1  0
 22 23  1  0
 22 61  1  0
 22 62  1  0
 23 24  1  1
 23 25  1  0
 24 63  1  0
 24 64  1  0
 24 65  1  0
 25 26  1  0
 25 66  1  0
 25 67  1  0
 26 68  1  0
 27 28  1  0
 28 33  1  0
 28 29  1  0
 28 69  1  1
 29 30  1  0
 30 31  1  0
 30 32  1  1
 30 33  1  0
 31 70  1  0
 31 71  1  0
 31 72  1  0
 32 73  1  0
 33 34  1  0
 33 74  1  1
 34 35  1  0
 34 75  1  6
 35 76  1  0
 36 37  1  0
 36 38  1  0
 37 77  1  0
 37 78  1  0
 37 79  1  0
 38 80  1  0
 38 81  1  0
 38 82  1  0
M  END
>  <i_m_ct_stereo_status>  (185) 
1

>  <s_m_source_file>  (185) 
/var/tmp/pbs.5076255.sched01/tmp9rjncpta/544vc0qzzn.sdf

>  <i_m_source_file_index>  (185) 
31

>  <i_lp_mmshare_version>  (185) 
48012

>  <i_f3d_flags>  (185) 
2

>  <s_epik_input>  (185) 
W09IXVtDSDJdW0NAQF0xKFtDSDNdKVtDSDJdW0NIMl1bQ0BdMihPW0NIM10pW0NAQEhdKEMoPVtDSDJdKVtDQEBIXShbQ0gzXSlbQ0hdM1tDQF0yNFtDQF0xNTYpW0NASF0oW0NIMl02KUMoW0NIM10pKFtDSDNdKVtDQEBIXShbQ0gyXVtDQEBIXTNbT0hdKVtDQEhdKE9DNT1PKVtDQEhdKFtPSF0pW0NASF03W0NAQEhdNE9bQ0BAXTcoW0NIM10pW09IXQ==

>  <s_epik_cmdline>  (185) 
J2VwaWtfcHl0aG9uJywgJy1waHQnLCAnMi4wJywgJy1waCcsICc3LjAnLCAnLXRuJywgJzgnLCAnLW1hJywgJzIwMCcsICctaW1hZScsICc8aW5maWxlLm1hZT4nLCAnLW9tYWUnLCAnPG91dGZpbGUubWFlPic=

>  <r_lp_tautomer_probability>  (185) 
1

>  <r_epik_Ionization_Penalty>  (185) 
3.78e-06

>  <r_epik_Ionization_Penalty_Charging>  (185) 
0

>  <r_epik_Ionization_Penalty_Neutral>  (185) 
3.78e-06

>  <r_epik_State_Penalty>  (185) 
-0

>  <r_epik_Charging_Adjusted_Penalty>  (185) 
0

>  <i_epik_Tot_Q>  (185) 
0

>  <i_epik_Tot_abs_Q>  (185) 
0

>  <s_epik_Chemistry_Notes>  (185) 
This compound has an ester and may undergo hydrolysis at high or low pH.

>  <s_lp_Force_Field>  (185) 
OPLS3e

>  <r_lp_Energy>  (185) 
294.446

>  <b_lp_Chiralities_Consistent>  (185) 
0

>  <s_lp_Variant>  (185) 
55:0-1

>  <s_i_glide_gridfile>  (185) 
pfpi4k_grid

>  <i_i_glide_lignum>  (185) 
31

>  <i_i_glide_rotatable_bonds>  (185) 
6

>  <r_i_docking_score>  (185) 
-1.81127

>  <r_i_glide_ligand_efficiency>  (185) 
-0.047665

>  <r_i_glide_ligand_efficiency_sa>  (185) 
-0.160248

>  <r_i_glide_ligand_efficiency_ln>  (185) 
-0.390563

>  <r_i_glide_gscore>  (185) 
-1.81127

>  <r_i_glide_lipo>  (185) 
-0.010977

>  <r_i_glide_hbond>  (185) 
0

>  <r_i_glide_metal>  (185) 
-0

>  <r_i_glide_rewards>  (185) 
0

>  <r_i_glide_evdw>  (185) 
-16.3016

>  <r_i_glide_ecoul>  (185) 
-6.83078

>  <r_i_glide_erotb>  (185) 
0.0727005

>  <r_i_glide_esite>  (185) 
-0.0332957

>  <r_i_glide_emodel>  (185) 
-24.4391

>  <r_i_glide_energy>  (185) 
-23.1324

>  <r_i_glide_einternal>  (185) 
2.10389

>  <r_i_glide_intrahb_reward>  (185) 
-0

>  <i_i_glide_confnum>  (185) 
5

>  <i_i_glide_posenum>  (185) 
14

>  <r_i_glide_eff_state_penalty>  (185) 
0

>  <ligand_id>  (185) 
55

>  <original_smiles>  (185) 
C=C1C(C)C2C(O)CC3C4OC(=O)C56CC(C1C(OC)(CCC5(C)CO)C26C1OC(C)(O)C1C4O)C3(C)C

>  <smiles>  (185) 
[H]OC([H])([H])C1(C([H])([H])[H])C([H])([H])C([H])([H])C2(OC([H])([H])[H])C3([H])C(=C([H])[H])C([H])(C([H])([H])[H])C4([H])C([H])(O[H])C([H])([H])C5([H])C6([H])OC(=O)C1(C([H])([H])C3([H])C5(C([H])([H])[H])C([H])([H])[H])C42C1([H])OC(O[H])(C([H])([H])[H])C1([H])C6([H])O[H]

$$$$
55:0:2
     RDKit          3D

 82 88  0  0  1  0  0  0  0  0999 V2000
    3.6009   -3.3043    7.2019 C   0  0  0  0  0  0  0  0  0  0  0  0
    2.9795   -2.2130    6.7087 C   0  0  0  0  0  0  0  0  0  0  0  0
    2.5159   -2.0447    5.3013 C   0  0  1  0  0  0  0  0  0  0  0  0
    1.8106   -3.3066    4.7272 C   0  0  0  0  0  0  0  0  0  0  0  0
    1.7828   -0.6516    5.0129 C   0  0  2  0  0  0  0  0  0  0  0  0
    2.2380   -0.3731    3.5473 C   0  0  1  0  0  0  0  0  0  0  0  0
    1.2613   -0.1100    2.5680 O   0  0  0  0  0  0  0  0  0  0  0  0
    3.5616    0.3361    3.4030 C   0  0  0  0  0  0  0  0  0  0  0  0
    3.8726    1.2324    4.5932 C   0  0  1  0  0  0  0  0  0  0  0  0
    2.9503    2.5174    4.5665 C   0  0  2  0  0  0  0  0  0  0  0  0
    3.0569    3.1755    5.7778 O   0  0  0  0  0  0  0  0  0  0  0  0
    2.0783    3.1149    6.6122 C   0  0  0  0  0  0  0  0  0  0  0  0
    1.5061    4.1602    6.9085 O   0  0  0  0  0  0  0  0  0  0  0  0
    1.7615    1.7052    7.2410 C   0  0  1  0  0  0  0  0  0  0  0  0
    3.1184    1.3170    7.9080 C   0  0  0  0  0  0  0  0  0  0  0  0
    3.7289    0.1386    7.2473 C   0  0  1  0  0  0  0  0  0  0  0  0
    2.6340   -1.0230    7.5201 C   0  0  1  0  0  0  0  0  0  0  0  0
    1.0676   -0.6687    7.3226 C   0  0  1  0  0  0  0  0  0  0  0  0
    0.2322   -1.7584    6.8499 O   0  0  0  0  0  0  0  0  0  0  0  0
    0.0474   -2.9595    7.6163 C   0  0  0  0  0  0  0  0  0  0  0  0
    0.2679   -0.3485    8.6173 C   0  0  0  0  0  0  0  0  0  0  0  0
    0.6423    0.8366    9.4435 C   0  0  0  0  0  0  0  0  0  0  0  0
    0.8248    2.0799    8.5667 C   0  0  1  0  0  0  0  0  0  0  0  0
    1.4858    3.0977    9.5821 C   0  0  0  0  0  0  0  0  0  0  0  0
   -0.6236    2.6680    8.2930 C   0  0  0  0  0  0  0  0  0  0  0  0
   -1.3836    3.0063    9.4484 O   0  0  0  0  0  0  0  0  0  0  0  0
    1.1763    0.4297    6.2048 C   0  0  2  0  0  0  0  0  0  0  0  0
   -0.0565    1.0550    5.4814 C   0  0  2  0  0  0  0  0  0  0  0  0
   -0.7157    0.4249    4.3434 O   0  0  0  0  0  0  0  0  0  0  0  0
   -1.0467    1.7532    3.8444 C   0  0  1  0  0  0  0  0  0  0  0  0
   -1.1597    1.8932    2.3247 C   0  0  0  0  0  0  0  0  0  0  0  0
   -2.2938    2.2290    4.3014 O   0  0  0  0  0  0  0  0  0  0  0  0
    0.1572    2.3180    4.6020 C   0  0  2  0  0  0  0  0  0  0  0  0
    1.5165    2.6449    3.8563 C   0  0  1  0  0  0  0  0  0  0  0  0
    1.4129    3.9653    3.3457 O   0  0  0  0  0  0  0  0  0  0  0  0
    4.5711    0.5862    5.9245 C   0  0  0  0  0  0  0  0  0  0  0  0
    5.5939   -0.5326    5.5513 C   0  0  0  0  0  0  0  0  0  0  0  0
    5.6245    1.6529    6.3995 C   0  0  0  0  0  0  0  0  0  0  0  0
    3.8176   -4.1548    6.5785 H   0  0  0  0  0  0  0  0  0  0  0  0
    3.8959   -3.3531    8.2373 H   0  0  0  0  0  0  0  0  0  0  0  0
    3.4344   -2.0741    4.7394 H   0  0  0  0  0  0  0  0  0  0  0  0
    2.4783   -4.1676    4.7369 H   0  0  0  0  0  0  0  0  0  0  0  0
    1.5020   -3.1695    3.6921 H   0  0  0  0  0  0  0  0  0  0  0  0
    0.9149   -3.5949    5.2640 H   0  0  0  0  0  0  0  0  0  0  0  0
    0.8449   -1.1176    4.7408 H   0  0  0  0  0  0  0  0  0  0  0  0
    2.4765   -1.3267    3.0811 H   0  0  0  0  0  0  0  0  0  0  0  0
    1.6428   -0.1597    1.7071 H   0  0  0  0  0  0  0  0  0  0  0  0
    4.3568   -0.3968    3.2561 H   0  0  0  0  0  0  0  0  0  0  0  0
    3.5627    0.9256    2.4822 H   0  0  0  0  0  0  0  0  0  0  0  0
    4.7684    1.6766    4.1671 H   0  0  0  0  0  0  0  0  0  0  0  0
    3.5375    3.1747    3.9272 H   0  0  0  0  0  0  0  0  0  0  0  0
    3.8056    2.1508    8.0163 H   0  0  0  0  0  0  0  0  0  0  0  0
    3.0656    1.0048    8.9445 H   0  0  0  0  0  0  0  0  0  0  0  0
    4.5389   -0.1693    7.9135 H   0  0  0  0  0  0  0  0  0  0  0  0
    2.7498   -1.3244    8.5615 H   0  0  0  0  0  0  0  0  0  0  0  0
   -0.4117   -3.7084    6.9738 H   0  0  0  0  0  0  0  0  0  0  0  0
   -0.6350   -2.8433    8.4559 H   0  0  0  0  0  0  0  0  0  0  0  0
    0.9780   -3.3780    7.9941 H   0  0  0  0  0  0  0  0  0  0  0  0
   -0.7786   -0.2295    8.3551 H   0  0  0  0  0  0  0  0  0  0  0  0
    0.3276   -1.1713    9.3233 H   0  0  0  0  0  0  0  0  0  0  0  0
   -0.1457    0.9873   10.1774 H   0  0  0  0  0  0  0  0  0  0  0  0
    1.4867    0.6048   10.0926 H   0  0  0  0  0  0  0  0  0  0  0  0
    0.9447    3.1128   10.5283 H   0  0  0  0  0  0  0  0  0  0  0  0
    1.5015    4.1350    9.2559 H   0  0  0  0  0  0  0  0  0  0  0  0
    2.5075    2.8518    9.8635 H   0  0  0  0  0  0  0  0  0  0  0  0
   -0.6405    3.5375    7.6408 H   0  0  0  0  0  0  0  0  0  0  0  0
   -1.3006    1.9434    7.8863 H   0  0  0  0  0  0  0  0  0  0  0  0
   -0.9146    3.6196    9.9843 H   0  0  0  0  0  0  0  0  0  0  0  0
   -0.8636    1.1781    6.1683 H   0  0  0  0  0  0  0  0  0  0  0  0
   -1.9568    1.2702    1.9164 H   0  0  0  0  0  0  0  0  0  0  0  0
   -0.2465    1.6454    1.7899 H   0  0  0  0  0  0  0  0  0  0  0  0
   -1.3898    2.9321    2.0704 H   0  0  0  0  0  0  0  0  0  0  0  0
   -2.9324    1.6767    3.8806 H   0  0  0  0  0  0  0  0  0  0  0  0
   -0.1979    3.1792    5.1729 H   0  0  0  0  0  0  0  0  0  0  0  0
    1.5819    2.1354    2.9124 H   0  0  0  0  0  0  0  0  0  0  0  0
    0.8310    3.9805    2.5928 H   0  0  0  0  0  0  0  0  0  0  0  0
    6.2880   -0.7263    6.3700 H   0  0  0  0  0  0  0  0  0  0  0  0
    6.2034   -0.2409    4.6960 H   0  0  0  0  0  0  0  0  0  0  0  0
    5.2016   -1.5068    5.3205 H   0  0  0  0  0  0  0  0  0  0  0  0
    6.1216    1.3536    7.3222 H   0  0  0  0  0  0  0  0  0  0  0  0
    5.2295    2.6473    6.5724 H   0  0  0  0  0  0  0  0  0  0  0  0
    6.4242    1.8036    5.6774 H   0  0  0  0  0  0  0  0  0  0  0  0
  1  2  2  0
  1 39  1  0
  1 40  1  0
  2 17  1  0
  2  3  1  0
  3  4  1  0
  3  5  1  0
  3 41  1  6
  4 42  1  0
  4 43  1  0
  4 44  1  0
  5 27  1  0
  5  6  1  0
  5 45  1  6
  6  7  1  0
  6  8  1  0
  6 46  1  6
  7 47  1  0
  8  9  1  0
  8 48  1  0
  8 49  1  0
  9 36  1  0
  9 10  1  0
  9 50  1  6
 10 34  1  0
 10 11  1  0
 10 51  1  6
 11 12  1  0
 12 13  2  0
 12 14  1  0
 14 23  1  0
 14 27  1  0
 14 15  1  1
 15 16  1  0
 15 52  1  0
 15 53  1  0
 16 17  1  0
 16 36  1  0
 16 54  1  1
 17 18  1  0
 17 55  1  1
 18 19  1  6
 18 21  1  0
 27 18  1  1
 19 20  1  0
 20 56  1  0
 20 57  1  0
 20 58  1  0
 21 22  1  0
 21 59  1  0
 21 60  1  0
 22 23  1  0
 22 61  1  0
 22 62  1  0
 23 24  1  1
 23 25  1  0
 24 63  1  0
 24 64  1  0
 24 65  1  0
 25 26  1  0
 25 66  1  0
 25 67  1  0
 26 68  1  0
 27 28  1  0
 28 33  1  0
 28 29  1  0
 28 69  1  1
 29 30  1  0
 30 31  1  0
 30 32  1  1
 30 33  1  0
 31 70  1  0
 31 71  1  0
 31 72  1  0
 32 73  1  0
 33 34  1  0
 33 74  1  1
 34 35  1  0
 34 75  1  6
 35 76  1  0
 36 37  1  0
 36 38  1  0
 37 77  1  0
 37 78  1  0
 37 79  1  0
 38 80  1  0
 38 81  1  0
 38 82  1  0
M  END
>  <i_m_ct_stereo_status>  (186) 
1

>  <s_m_source_file>  (186) 
/var/tmp/pbs.5076255.sched01/tmp9rjncpta/544vc0qzzn.sdf

>  <i_m_source_file_index>  (186) 
31

>  <i_lp_mmshare_version>  (186) 
48012

>  <i_f3d_flags>  (186) 
2

>  <s_epik_input>  (186) 
W09IXVtDSDJdW0NAQF0xKFtDSDNdKVtDSDJdW0NIMl1bQ0BdMihPW0NIM10pW0NAQEhdKEMoPVtDSDJdKVtDQEBIXShbQ0gzXSlbQ0hdM1tDQF0yNFtDQF0xNTYpW0NASF0oW0NIMl02KUMoW0NIM10pKFtDSDNdKVtDQEBIXShbQ0gyXVtDQEBIXTNbT0hdKVtDQEhdKE9DNT1PKVtDQEhdKFtPSF0pW0NASF03W0NAQEhdNE9bQ0BAXTcoW0NIM10pW09IXQ==

>  <s_epik_cmdline>  (186) 
J2VwaWtfcHl0aG9uJywgJy1waHQnLCAnMi4wJywgJy1waCcsICc3LjAnLCAnLXRuJywgJzgnLCAnLW1hJywgJzIwMCcsICctaW1hZScsICc8aW5maWxlLm1hZT4nLCAnLW9tYWUnLCAnPG91dGZpbGUubWFlPic=

>  <r_lp_tautomer_probability>  (186) 
1

>  <r_epik_Ionization_Penalty>  (186) 
3.78e-06

>  <r_epik_Ionization_Penalty_Charging>  (186) 
0

>  <r_epik_Ionization_Penalty_Neutral>  (186) 
3.78e-06

>  <r_epik_State_Penalty>  (186) 
-0

>  <r_epik_Charging_Adjusted_Penalty>  (186) 
0

>  <i_epik_Tot_Q>  (186) 
0

>  <i_epik_Tot_abs_Q>  (186) 
0

>  <s_epik_Chemistry_Notes>  (186) 
This compound has an ester and may undergo hydrolysis at high or low pH.

>  <s_lp_Force_Field>  (186) 
OPLS3e

>  <r_lp_Energy>  (186) 
294.446

>  <b_lp_Chiralities_Consistent>  (186) 
0

>  <s_lp_Variant>  (186) 
55:0-1

>  <s_i_glide_gridfile>  (186) 
pfpi4k_grid

>  <i_i_glide_lignum>  (186) 
31

>  <i_i_glide_rotatable_bonds>  (186) 
6

>  <r_i_docking_score>  (186) 
-1.67111

>  <r_i_glide_ligand_efficiency>  (186) 
-0.0439767

>  <r_i_glide_ligand_efficiency_sa>  (186) 
-0.147849

>  <r_i_glide_ligand_efficiency_ln>  (186) 
-0.360341

>  <r_i_glide_gscore>  (186) 
-1.67111

>  <r_i_glide_lipo>  (186) 
-0.0798728

>  <r_i_glide_hbond>  (186) 
0

>  <r_i_glide_metal>  (186) 
-0

>  <r_i_glide_rewards>  (186) 
0

>  <r_i_glide_evdw>  (186) 
-18.2522

>  <r_i_glide_ecoul>  (186) 
-4.82924

>  <r_i_glide_erotb>  (186) 
0.0727005

>  <r_i_glide_esite>  (186) 
-0.0269442

>  <r_i_glide_emodel>  (186) 
-24.1097

>  <r_i_glide_energy>  (186) 
-23.0815

>  <r_i_glide_einternal>  (186) 
1.9262

>  <r_i_glide_intrahb_reward>  (186) 
-0

>  <i_i_glide_confnum>  (186) 
5

>  <i_i_glide_posenum>  (186) 
22

>  <r_i_glide_eff_state_penalty>  (186) 
0

>  <ligand_id>  (186) 
55

>  <original_smiles>  (186) 
C=C1C(C)C2C(O)CC3C4OC(=O)C56CC(C1C(OC)(CCC5(C)CO)C26C1OC(C)(O)C1C4O)C3(C)C

>  <smiles>  (186) 
[H]OC([H])([H])C1(C([H])([H])[H])C([H])([H])C([H])([H])C2(OC([H])([H])[H])C3([H])C(=C([H])[H])C([H])(C([H])([H])[H])C4([H])C([H])(O[H])C([H])([H])C5([H])C6([H])OC(=O)C1(C([H])([H])C3([H])C5(C([H])([H])[H])C([H])([H])[H])C42C1([H])OC(O[H])(C([H])([H])[H])C1([H])C6([H])O[H]

$$$$
56:0:0
     RDKit          3D

 46 51  0  0  1  0  0  0  0  0999 V2000
    3.6288   -1.5444   -3.0358 C   0  0  0  0  0  0  0  0  0  0  0  0
    3.3048   -2.8829   -2.3304 C   0  0  2  0  0  0  0  0  0  0  0  0
    1.8608   -3.0511   -2.3218 N   0  0  0  0  0  0  0  0  0  0  0  0
    3.8672   -2.9505   -0.8520 C   0  0  1  0  0  0  0  0  0  0  0  0
    5.2180   -2.0567   -0.4525 C   0  0  0  0  0  0  0  0  0  0  0  0
    5.4541   -2.2165    1.1215 C   0  0  2  0  0  0  0  0  0  0  0  0
    5.5661   -3.7269    1.6773 C   0  0  2  0  0  0  0  0  0  0  0  0
    5.4408   -4.6428    0.4601 C   0  0  1  0  0  0  0  0  0  0  0  0
    4.2432   -5.5877    0.2416 C   0  0  0  0  0  0  0  0  0  0  0  0
    3.1749   -4.3804    0.0410 C   0  0  1  0  0  0  0  0  0  0  0  0
    3.0304   -4.0548    1.5751 C   0  0  1  0  0  0  0  0  0  0  0  0
    4.2947   -4.1287    2.5414 C   0  0  2  0  0  0  0  0  0  0  0  0
    4.0654   -3.1684    3.7350 C   0  0  1  0  0  0  0  0  0  0  0  0
    5.0164   -3.4637    4.9289 C   0  0  0  0  0  0  0  0  0  0  0  0
    4.8616   -2.8401    5.9958 O   0  0  0  0  0  0  0  0  0  0  0  0
    5.8313   -4.4041    4.7851 O   0  0  0  0  0  0  0  0  0  0  0  0
    3.8872   -1.7050    3.1386 C   0  0  1  0  0  0  0  0  0  0  0  0
    2.5265   -1.3429    3.3382 O   0  0  0  0  0  0  0  0  0  0  0  0
    4.7614   -0.5373    3.7096 C   0  0  0  0  0  0  0  0  0  0  0  0
    4.6561   -0.2540    4.9297 O   0  0  0  0  0  0  0  0  0  0  0  0
    5.4399    0.1471    2.9222 O   0  0  0  0  0  0  0  0  0  0  0  0
    4.0790   -1.7810    1.5821 C   0  0  2  0  0  0  0  0  0  0  0  0
    3.3171   -2.9258    0.8125 C   0  0  1  0  0  0  0  0  0  0  0  0
    4.3012   -3.9901   -0.2551 C   0  0  1  0  0  0  0  0  0  0  0  0
    4.7004   -1.3995   -3.1506 H   0  0  0  0  0  0  0  0  0  0  0  0
    3.2293   -0.6943   -2.4741 H   0  0  0  0  0  0  0  0  0  0  0  0
    3.1848   -1.5092   -4.0334 H   0  0  0  0  0  0  0  0  0  0  0  0
    3.7224   -3.6854   -2.9497 H   0  0  0  0  0  0  0  0  0  0  0  0
    1.4250   -2.3145   -1.7597 H   0  0  0  0  0  0  0  0  0  0  0  0
    1.6378   -3.9594   -1.9270 H   0  0  0  0  0  0  0  0  0  0  0  0
    6.1228   -2.3485   -1.0005 H   0  0  0  0  0  0  0  0  0  0  0  0
    5.0592   -0.9997   -0.7040 H   0  0  0  0  0  0  0  0  0  0  0  0
    6.2769   -1.5901    1.4672 H   0  0  0  0  0  0  0  0  0  0  0  0
    6.4999   -3.8950    2.2156 H   0  0  0  0  0  0  0  0  0  0  0  0
    6.3448   -4.8765   -0.1047 H   0  0  0  0  0  0  0  0  0  0  0  0
    4.3642   -6.2280   -0.6481 H   0  0  0  0  0  0  0  0  0  0  0  0
    4.0251   -6.2658    1.0732 H   0  0  0  0  0  0  0  0  0  0  0  0
    2.2096   -4.7726   -0.3505 H   0  0  0  0  0  0  0  0  0  0  0  0
    2.0293   -4.0297    2.0137 H   0  0  0  0  0  0  0  0  0  0  0  0
    4.3973   -5.1505    2.9212 H   0  0  0  0  0  0  0  0  0  0  0  0
    3.1106   -3.4658    4.1621 H   0  0  0  0  0  0  0  0  0  0  0  0
    2.3855   -0.5261    2.9042 H   0  0  0  0  0  0  0  0  0  0  0  0
    3.8139   -0.8130    1.1451 H   0  0  0  0  0  0  0  0  0  0  0  0
    2.3141   -2.4511    0.5609 H   0  0  0  0  0  0  0  0  0  0  0  0
    4.8779   -4.0321   -1.2342 H   0  0  0  0  0  0  0  0  0  0  0  0
    1.4770   -3.0203   -3.2608 H   0  0  0  0  0  0  0  0  0  0  0  0
  1  2  1  0
  1 25  1  0
  1 26  1  0
  1 27  1  0
  2  3  1  0
  2  4  1  0
  2 28  1  6
  3 29  1  0
  3 30  1  0
  3 46  1  0
  4 10  1  0
  4 24  1  0
  4  5  1  1
  5  6  1  0
  5 31  1  0
  5 32  1  0
  6 22  1  0
  6  7  1  0
  6 33  1  1
  7 12  1  0
  7  8  1  0
  7 34  1  1
  8 24  1  0
  8  9  1  0
  8 35  1  6
  9 10  1  0
  9 36  1  0
  9 37  1  0
 10 11  1  0
 10 38  1  6
 11 23  1  0
 11 12  1  0
 11 39  1  1
 12 13  1  0
 12 40  1  1
 13 14  1  0
 13 17  1  0
 13 41  1  1
 14 15  2  0
 14 16  1  0
 17 18  1  6
 17 19  1  0
 17 22  1  0
 18 42  1  0
 19 20  2  0
 19 21  1  0
 22 23  1  0
 22 43  1  6
 23 24  1  0
 23 44  1  6
 24 45  1  6
M  CHG  3   3   1  16  -1  21  -1
M  END
>  <i_m_ct_stereo_status>  (187) 
1

>  <s_m_source_file>  (187) 
/var/tmp/pbs.5076255.sched01/tmp9rjncpta/544vc0qzzn.sdf

>  <i_m_source_file_index>  (187) 
32

>  <i_lp_mmshare_version>  (187) 
48012

>  <i_f3d_flags>  (187) 
0

>  <s_epik_input>  (187) 
W0NIM11bQ0BIXShbTkgyXSlbQ0BdMTJbQ0BASF0zW0NASF00W0NASF01W0NAQEhdNltDQEBIXShbQ0gyXTEpW0NASF0oW0NAXShbT0hdKShDKD1PKVtPSF0pW0NAQEhdNUMoPU8pW09IXSlbQ0BIXTRbQ0hdMltDQEBIXTZbQ0gyXTM=

>  <s_epik_cmdline>  (187) 
J2VwaWtfcHl0aG9uJywgJy1waHQnLCAnMi4wJywgJy1waCcsICc3LjAnLCAnLXRuJywgJzgnLCAnLW1hJywgJzIwMCcsICctaW1hZScsICc8aW5maWxlLm1hZT4nLCAnLW9tYWUnLCAnPG91dGZpbGUubWFlPic=

>  <r_lp_tautomer_probability>  (187) 
1

>  <r_epik_Ionization_Penalty>  (187) 
0.00275566

>  <r_epik_Ionization_Penalty_Charging>  (187) 
0.00268204

>  <r_epik_Ionization_Penalty_Neutral>  (187) 
7.3612e-05

>  <r_epik_State_Penalty>  (187) 
-0

>  <r_epik_Charging_Adjusted_Penalty>  (187) 
0.00268204

>  <i_epik_Tot_Q>  (187) 
-1

>  <i_epik_Tot_abs_Q>  (187) 
3

>  <s_lp_Force_Field>  (187) 
OPLS3e

>  <r_lp_Energy>  (187) 
513.829

>  <b_lp_Chiralities_Consistent>  (187) 
1

>  <s_lp_Variant>  (187) 
56:0-1

>  <s_i_glide_gridfile>  (187) 
pfpi4k_grid

>  <i_i_glide_lignum>  (187) 
32

>  <i_i_glide_rotatable_bonds>  (187) 
4

>  <r_i_docking_score>  (187) 
-3.80959

>  <r_i_glide_ligand_efficiency>  (187) 
-0.158733

>  <r_i_glide_ligand_efficiency_sa>  (187) 
-0.457865

>  <r_i_glide_ligand_efficiency_ln>  (187) 
-0.91181

>  <r_i_glide_gscore>  (187) 
-3.80959

>  <r_i_glide_lipo>  (187) 
-0.250089

>  <r_i_glide_hbond>  (187) 
-0.281192

>  <r_i_glide_metal>  (187) 
-0

>  <r_i_glide_rewards>  (187) 
-1.28559

>  <r_i_glide_evdw>  (187) 
-21.4879

>  <r_i_glide_ecoul>  (187) 
-6.12216

>  <r_i_glide_erotb>  (187) 
0

>  <r_i_glide_esite>  (187) 
0

>  <r_i_glide_emodel>  (187) 
-34.551

>  <r_i_glide_energy>  (187) 
-27.6101

>  <r_i_glide_einternal>  (187) 
3.41705

>  <r_i_glide_intrahb_reward>  (187) 
-0

>  <i_i_glide_confnum>  (187) 
2

>  <i_i_glide_posenum>  (187) 
4

>  <r_i_glide_eff_state_penalty>  (187) 
0

>  <ligand_id>  (187) 
56

>  <original_smiles>  (187) 
CC(N)C12CC3C4C5CC1C1C4C(C(=O)O)C(O)(C(=O)O)C3C1C52

>  <smiles>  (187) 
[H]OC1(C(=O)[O-])C([H])(C(=O)[O-])C2([H])C3([H])C4([H])C([H])([H])C5(C([H])(C([H])([H])[H])[N+]([H])([H])[H])C6([H])C([H])([H])C3([H])C5([H])C([H])(C14[H])C26[H]

$$$$
56:0:1
     RDKit          3D

 46 51  0  0  1  0  0  0  0  0999 V2000
    4.2206   -1.2398   -2.6006 C   0  0  0  0  0  0  0  0  0  0  0  0
    3.6638   -2.5702   -2.0335 C   0  0  2  0  0  0  0  0  0  0  0  0
    2.2469   -2.6590   -2.3075 N   0  0  0  0  0  0  0  0  0  0  0  0
    3.9178   -2.8105   -0.4975 C   0  0  1  0  0  0  0  0  0  0  0  0
    3.6568   -1.5353    0.5318 C   0  0  0  0  0  0  0  0  0  0  0  0
    3.7899   -2.0759    2.0282 C   0  0  2  0  0  0  0  0  0  0  0  0
    5.1783   -2.8277    2.3759 C   0  0  2  0  0  0  0  0  0  0  0  0
    6.0311   -2.7870    1.1058 C   0  0  1  0  0  0  0  0  0  0  0  0
    6.3834   -4.0492    0.2897 C   0  0  0  0  0  0  0  0  0  0  0  0
    4.8502   -4.3299   -0.1798 C   0  0  1  0  0  0  0  0  0  0  0  0
    4.4147   -4.9646    1.1936 C   0  0  1  0  0  0  0  0  0  0  0  0
    4.9581   -4.3830    2.5745 C   0  0  2  0  0  0  0  0  0  0  0  0
    3.9119   -4.6875    3.6676 C   0  0  1  0  0  0  0  0  0  0  0  0
    4.4232   -4.5320    5.1200 C   0  0  0  0  0  0  0  0  0  0  0  0
    5.6082   -4.1421    5.2779 O   0  0  0  0  0  0  0  0  0  0  0  0
    3.6723   -4.9074    6.0421 O   0  0  0  0  0  0  0  0  0  0  0  0
    2.5564   -4.0078    3.2381 C   0  0  1  0  0  0  0  0  0  0  0  0
    1.6808   -5.0912    2.9253 O   0  0  0  0  0  0  0  0  0  0  0  0
    1.8727   -3.0735    4.2785 C   0  0  0  0  0  0  0  0  0  0  0  0
    0.6265   -3.2119    4.4488 O   0  0  0  0  0  0  0  0  0  0  0  0
    2.5461   -2.1804    4.8351 O   0  0  0  0  0  0  0  0  0  0  0  0
    2.7918   -3.2024    1.9213 C   0  0  2  0  0  0  0  0  0  0  0  0
    3.5573   -3.9533    0.7747 C   0  0  1  0  0  0  0  0  0  0  0  0
    4.9929   -3.1442    0.0935 C   0  0  1  0  0  0  0  0  0  0  0  0
    5.3006   -1.1724   -2.4902 H   0  0  0  0  0  0  0  0  0  0  0  0
    3.7818   -0.3800   -2.0859 H   0  0  0  0  0  0  0  0  0  0  0  0
    3.9891   -1.1292   -3.6619 H   0  0  0  0  0  0  0  0  0  0  0  0
    4.1542   -3.3842   -2.5810 H   0  0  0  0  0  0  0  0  0  0  0  0
    1.7241   -1.9416   -1.7767 H   0  0  0  0  0  0  0  0  0  0  0  0
    1.8970   -3.5675   -2.0419 H   0  0  0  0  0  0  0  0  0  0  0  0
    4.3407   -0.6909    0.3664 H   0  0  0  0  0  0  0  0  0  0  0  0
    2.6503   -1.1271    0.3601 H   0  0  0  0  0  0  0  0  0  0  0  0
    3.5157   -1.3087    2.7604 H   0  0  0  0  0  0  0  0  0  0  0  0
    5.6952   -2.3767    3.2293 H   0  0  0  0  0  0  0  0  0  0  0  0
    6.6328   -1.8974    0.9144 H   0  0  0  0  0  0  0  0  0  0  0  0
    7.0697   -3.8351   -0.5459 H   0  0  0  0  0  0  0  0  0  0  0  0
    6.8461   -4.8591    0.8697 H   0  0  0  0  0  0  0  0  0  0  0  0
    4.7980   -5.0900   -0.9900 H   0  0  0  0  0  0  0  0  0  0  0  0
    3.9558   -5.9605    1.1867 H   0  0  0  0  0  0  0  0  0  0  0  0
    5.8942   -4.8758    2.8590 H   0  0  0  0  0  0  0  0  0  0  0  0
    3.7673   -5.7699    3.6176 H   0  0  0  0  0  0  0  0  0  0  0  0
    1.5008   -5.5108    3.7426 H   0  0  0  0  0  0  0  0  0  0  0  0
    1.8307   -2.8081    1.5827 H   0  0  0  0  0  0  0  0  0  0  0  0
    2.7283   -4.4735    0.2043 H   0  0  0  0  0  0  0  0  0  0  0  0
    5.3361   -2.3057   -0.5779 H   0  0  0  0  0  0  0  0  0  0  0  0
    2.0697   -2.5260   -3.2943 H   0  0  0  0  0  0  0  0  0  0  0  0
  1  2  1  0
  1 25  1  0
  1 26  1  0
  1 27  1  0
  2  3  1  0
  2  4  1  0
  2 28  1  6
  3 29  1  0
  3 30  1  0
  3 46  1  0
  4 10  1  0
  4 24  1  0
  4  5  1  1
  5  6  1  0
  5 31  1  0
  5 32  1  0
  6 22  1  0
  6  7  1  0
  6 33  1  1
  7 12  1  0
  7  8  1  0
  7 34  1  1
  8 24  1  0
  8  9  1  0
  8 35  1  6
  9 10  1  0
  9 36  1  0
  9 37  1  0
 10 11  1  0
 10 38  1  6
 11 23  1  0
 11 12  1  0
 11 39  1  6
 12 13  1  0
 12 40  1  1
 13 14  1  0
 13 17  1  0
 13 41  1  1
 14 15  2  0
 14 16  1  0
 17 18  1  6
 17 19  1  0
 17 22  1  0
 18 42  1  0
 19 20  2  0
 19 21  1  0
 22 23  1  0
 22 43  1  6
 23 24  1  0
 23 44  1  6
 24 45  1  6
M  CHG  3   3   1  16  -1  21  -1
M  END
>  <i_m_ct_stereo_status>  (188) 
1

>  <s_m_source_file>  (188) 
/var/tmp/pbs.5076255.sched01/tmp9rjncpta/544vc0qzzn.sdf

>  <i_m_source_file_index>  (188) 
32

>  <i_lp_mmshare_version>  (188) 
48012

>  <i_f3d_flags>  (188) 
0

>  <s_epik_input>  (188) 
W0NIM11bQ0BIXShbTkgyXSlbQ0BdMTJbQ0BASF0zW0NASF00W0NASF01W0NAQEhdNltDQEBIXShbQ0gyXTEpW0NASF0oW0NAXShbT0hdKShDKD1PKVtPSF0pW0NAQEhdNUMoPU8pW09IXSlbQ0BIXTRbQ0hdMltDQEBIXTZbQ0gyXTM=

>  <s_epik_cmdline>  (188) 
J2VwaWtfcHl0aG9uJywgJy1waHQnLCAnMi4wJywgJy1waCcsICc3LjAnLCAnLXRuJywgJzgnLCAnLW1hJywgJzIwMCcsICctaW1hZScsICc8aW5maWxlLm1hZT4nLCAnLW9tYWUnLCAnPG91dGZpbGUubWFlPic=

>  <r_lp_tautomer_probability>  (188) 
1

>  <r_epik_Ionization_Penalty>  (188) 
0.00275566

>  <r_epik_Ionization_Penalty_Charging>  (188) 
0.00268204

>  <r_epik_Ionization_Penalty_Neutral>  (188) 
7.3612e-05

>  <r_epik_State_Penalty>  (188) 
-0

>  <r_epik_Charging_Adjusted_Penalty>  (188) 
0.00268204

>  <i_epik_Tot_Q>  (188) 
-1

>  <i_epik_Tot_abs_Q>  (188) 
3

>  <s_lp_Force_Field>  (188) 
OPLS3e

>  <r_lp_Energy>  (188) 
513.829

>  <b_lp_Chiralities_Consistent>  (188) 
1

>  <s_lp_Variant>  (188) 
56:0-1

>  <s_i_glide_gridfile>  (188) 
pfpi4k_grid

>  <i_i_glide_lignum>  (188) 
32

>  <i_i_glide_rotatable_bonds>  (188) 
4

>  <r_i_docking_score>  (188) 
-3.38164

>  <r_i_glide_ligand_efficiency>  (188) 
-0.140902

>  <r_i_glide_ligand_efficiency_sa>  (188) 
-0.40643

>  <r_i_glide_ligand_efficiency_ln>  (188) 
-0.809381

>  <r_i_glide_gscore>  (188) 
-3.38164

>  <r_i_glide_lipo>  (188) 
-0.363669

>  <r_i_glide_hbond>  (188) 
-0.2

>  <r_i_glide_metal>  (188) 
-0

>  <r_i_glide_rewards>  (188) 
-1.15078

>  <r_i_glide_evdw>  (188) 
-19.6575

>  <r_i_glide_ecoul>  (188) 
-4.32176

>  <r_i_glide_erotb>  (188) 
0

>  <r_i_glide_esite>  (188) 
-0.0360509

>  <r_i_glide_emodel>  (188) 
-31.161

>  <r_i_glide_energy>  (188) 
-23.9793

>  <r_i_glide_einternal>  (188) 
1.78431

>  <r_i_glide_intrahb_reward>  (188) 
-0

>  <i_i_glide_confnum>  (188) 
2

>  <i_i_glide_posenum>  (188) 
39

>  <r_i_glide_eff_state_penalty>  (188) 
0

>  <ligand_id>  (188) 
56

>  <original_smiles>  (188) 
CC(N)C12CC3C4C5CC1C1C4C(C(=O)O)C(O)(C(=O)O)C3C1C52

>  <smiles>  (188) 
[H]OC1(C(=O)[O-])C([H])(C(=O)[O-])C2([H])C3([H])C4([H])C([H])([H])C5(C([H])(C([H])([H])[H])[N+]([H])([H])[H])C6([H])C([H])([H])C3([H])C5([H])C([H])(C14[H])C26[H]

$$$$
56:0:2
     RDKit          3D

 46 51  0  0  1  0  0  0  0  0999 V2000
    4.0107   -0.6151   -5.1230 C   0  0  0  0  0  0  0  0  0  0  0  0
    3.1548   -1.0900   -4.0175 C   0  0  2  0  0  0  0  0  0  0  0  0
    2.4399    0.1527   -3.7293 N   0  0  0  0  0  0  0  0  0  0  0  0
    3.8131   -1.6266   -2.7093 C   0  0  1  0  0  0  0  0  0  0  0  0
    4.8456   -0.6662   -1.8784 C   0  0  0  0  0  0  0  0  0  0  0  0
    5.2501   -1.3794   -0.5208 C   0  0  2  0  0  0  0  0  0  0  0  0
    5.8637   -2.8621   -0.6824 C   0  0  2  0  0  0  0  0  0  0  0  0
    5.8991   -3.1609   -2.1800 C   0  0  1  0  0  0  0  0  0  0  0  0
    5.0104   -4.2094   -2.8640 C   0  0  0  0  0  0  0  0  0  0  0  0
    3.6224   -3.4156   -2.5743 C   0  0  1  0  0  0  0  0  0  0  0  0
    3.5388   -3.8651   -1.0480 C   0  0  1  0  0  0  0  0  0  0  0  0
    4.8511   -3.9613   -0.1493 C   0  0  2  0  0  0  0  0  0  0  0  0
    4.4555   -3.7350    1.3368 C   0  0  1  0  0  0  0  0  0  0  0  0
    5.5485   -4.2089    2.3363 C   0  0  0  0  0  0  0  0  0  0  0  0
    6.6031   -4.6742    1.8476 O   0  0  0  0  0  0  0  0  0  0  0  0
    5.2862   -4.2655    3.5591 O   0  0  0  0  0  0  0  0  0  0  0  0
    3.8044   -2.2877    1.4440 C   0  0  1  0  0  0  0  0  0  0  0  0
    2.4254   -2.4783    1.7525 O   0  0  0  0  0  0  0  0  0  0  0  0
    4.3751   -1.2551    2.4837 C   0  0  0  0  0  0  0  0  0  0  0  0
    4.4683   -0.0649    2.1041 O   0  0  0  0  0  0  0  0  0  0  0  0
    4.5984   -1.5745    3.6708 O   0  0  0  0  0  0  0  0  0  0  0  0
    3.8563   -1.6297    0.0132 C   0  0  2  0  0  0  0  0  0  0  0  0
    3.4130   -2.4978   -1.2177 C   0  0  1  0  0  0  0  0  0  0  0  0
    4.5621   -2.6470   -2.5879 C   0  0  1  0  0  0  0  0  0  0  0  0
    4.6154   -1.4263   -5.4614 H   0  0  0  0  0  0  0  0  0  0  0  0
    4.6877    0.1361   -4.7649 H   0  0  0  0  0  0  0  0  0  0  0  0
    3.5035   -0.2040   -5.9900 H   0  0  0  0  0  0  0  0  0  0  0  0
    2.4183   -1.7818   -4.3858 H   0  0  0  0  0  0  0  0  0  0  0  0
    2.9050    0.9094   -3.2807 H   0  0  0  0  0  0  0  0  0  0  0  0
    1.7344   -0.1158   -3.0409 H   0  0  0  0  0  0  0  0  0  0  0  0
    5.7389   -0.3697   -2.4187 H   0  0  0  0  0  0  0  0  0  0  0  0
    4.3192    0.2538   -1.6953 H   0  0  0  0  0  0  0  0  0  0  0  0
    5.8562   -0.7379    0.1065 H   0  0  0  0  0  0  0  0  0  0  0  0
    6.8455   -2.9406   -0.2274 H   0  0  0  0  0  0  0  0  0  0  0  0
    6.7907   -2.8775   -2.7507 H   0  0  0  0  0  0  0  0  0  0  0  0
    5.2147   -4.3523   -3.9287 H   0  0  0  0  0  0  0  0  0  0  0  0
    5.0131   -5.2041   -2.4218 H   0  0  0  0  0  0  0  0  0  0  0  0
    2.7652   -3.8484   -3.1362 H   0  0  0  0  0  0  0  0  0  0  0  0
    2.6253   -4.3226   -0.6937 H   0  0  0  0  0  0  0  0  0  0  0  0
    5.2860   -4.9527   -0.2596 H   0  0  0  0  0  0  0  0  0  0  0  0
    3.6776   -4.4773    1.5268 H   0  0  0  0  0  0  0  0  0  0  0  0
    2.0290   -3.0022    1.0755 H   0  0  0  0  0  0  0  0  0  0  0  0
    3.2700   -0.7060    0.0299 H   0  0  0  0  0  0  0  0  0  0  0  0
    2.3118   -2.2927   -1.3128 H   0  0  0  0  0  0  0  0  0  0  0  0
    5.0456   -2.0857   -3.4463 H   0  0  0  0  0  0  0  0  0  0  0  0
    1.8761    0.4812   -4.4959 H   0  0  0  0  0  0  0  0  0  0  0  0
  1  2  1  0
  1 25  1  0
  1 26  1  0
  1 27  1  0
  2  3  1  0
  2  4  1  0
  2 28  1  6
  3 29  1  0
  3 30  1  0
  3 46  1  0
  4 10  1  0
  4 24  1  0
  4  5  1  1
  5  6  1  0
  5 31  1  0
  5 32  1  0
  6 22  1  0
  6  7  1  0
  6 33  1  1
  7 12  1  0
  7  8  1  0
  7 34  1  1
  8 24  1  0
  8  9  1  0
  8 35  1  6
  9 10  1  0
  9 36  1  0
  9 37  1  0
 10 11  1  0
 10 38  1  6
 11 23  1  0
 11 12  1  0
 11 39  1  6
 12 13  1  0
 12 40  1  1
 13 14  1  0
 13 17  1  0
 13 41  1  1
 14 15  2  0
 14 16  1  0
 17 18  1  1
 17 19  1  0
 17 22  1  0
 18 42  1  0
 19 20  2  0
 19 21  1  0
 22 23  1  0
 22 43  1  1
 23 24  1  0
 23 44  1  6
 24 45  1  6
M  CHG  3   3   1  16  -1  21  -1
M  END
>  <i_m_ct_stereo_status>  (189) 
1

>  <s_m_source_file>  (189) 
/var/tmp/pbs.5076255.sched01/tmp9rjncpta/544vc0qzzn.sdf

>  <i_m_source_file_index>  (189) 
32

>  <i_lp_mmshare_version>  (189) 
48012

>  <i_f3d_flags>  (189) 
0

>  <s_epik_input>  (189) 
W0NIM11bQ0BIXShbTkgyXSlbQ0BdMTJbQ0BASF0zW0NASF00W0NASF01W0NAQEhdNltDQEBIXShbQ0gyXTEpW0NASF0oW0NAXShbT0hdKShDKD1PKVtPSF0pW0NAQEhdNUMoPU8pW09IXSlbQ0BIXTRbQ0hdMltDQEBIXTZbQ0gyXTM=

>  <s_epik_cmdline>  (189) 
J2VwaWtfcHl0aG9uJywgJy1waHQnLCAnMi4wJywgJy1waCcsICc3LjAnLCAnLXRuJywgJzgnLCAnLW1hJywgJzIwMCcsICctaW1hZScsICc8aW5maWxlLm1hZT4nLCAnLW9tYWUnLCAnPG91dGZpbGUubWFlPic=

>  <r_lp_tautomer_probability>  (189) 
1

>  <r_epik_Ionization_Penalty>  (189) 
0.00275566

>  <r_epik_Ionization_Penalty_Charging>  (189) 
0.00268204

>  <r_epik_Ionization_Penalty_Neutral>  (189) 
7.3612e-05

>  <r_epik_State_Penalty>  (189) 
-0

>  <r_epik_Charging_Adjusted_Penalty>  (189) 
0.00268204

>  <i_epik_Tot_Q>  (189) 
-1

>  <i_epik_Tot_abs_Q>  (189) 
3

>  <s_lp_Force_Field>  (189) 
OPLS3e

>  <r_lp_Energy>  (189) 
513.829

>  <b_lp_Chiralities_Consistent>  (189) 
1

>  <s_lp_Variant>  (189) 
56:0-1

>  <s_i_glide_gridfile>  (189) 
pfpi4k_grid

>  <i_i_glide_lignum>  (189) 
32

>  <i_i_glide_rotatable_bonds>  (189) 
4

>  <r_i_docking_score>  (189) 
-2.51432

>  <r_i_glide_ligand_efficiency>  (189) 
-0.104763

>  <r_i_glide_ligand_efficiency_sa>  (189) 
-0.30219

>  <r_i_glide_ligand_efficiency_ln>  (189) 
-0.601793

>  <r_i_glide_gscore>  (189) 
-2.51432

>  <r_i_glide_lipo>  (189) 
-0.56035

>  <r_i_glide_hbond>  (189) 
-0.0108569

>  <r_i_glide_metal>  (189) 
-0

>  <r_i_glide_rewards>  (189) 
-1.26602

>  <r_i_glide_evdw>  (189) 
-7.18133

>  <r_i_glide_ecoul>  (189) 
-2.10597

>  <r_i_glide_erotb>  (189) 
0

>  <r_i_glide_esite>  (189) 
-0.00212757

>  <r_i_glide_emodel>  (189) 
-13.6632

>  <r_i_glide_energy>  (189) 
-9.28731

>  <r_i_glide_einternal>  (189) 
0.688549

>  <r_i_glide_intrahb_reward>  (189) 
-0

>  <i_i_glide_confnum>  (189) 
2

>  <i_i_glide_posenum>  (189) 
6

>  <r_i_glide_eff_state_penalty>  (189) 
0

>  <ligand_id>  (189) 
56

>  <original_smiles>  (189) 
CC(N)C12CC3C4C5CC1C1C4C(C(=O)O)C(O)(C(=O)O)C3C1C52

>  <smiles>  (189) 
[H]OC1(C(=O)[O-])C([H])(C(=O)[O-])C2([H])C3([H])C4([H])C([H])([H])C5(C([H])(C([H])([H])[H])[N+]([H])([H])[H])C6([H])C([H])([H])C3([H])C5([H])C([H])(C14[H])C26[H]

$$$$
57:0:0
     RDKit          3D

 25 28  0  0  1  0  0  0  0  0999 V2000
   -2.5543    3.1906    6.3329 C   0  0  0  0  0  0  0  0  0  0  0  0
   -2.3407    2.1418    7.2517 C   0  0  0  0  0  0  0  0  0  0  0  0
   -1.7635    0.9799    6.8785 N   0  0  0  0  0  0  0  0  0  0  0  0
   -1.4022    0.8409    5.5660 C   0  0  0  0  0  0  0  0  0  0  0  0
   -0.7791   -0.3597    5.1523 N   0  0  0  0  0  0  0  0  0  0  0  0
   -1.1376   -1.5303    5.7852 N   0  0  0  0  0  0  0  0  0  0  0  0
   -0.3787   -2.4803    5.2391 C   0  0  0  0  0  0  0  0  0  0  0  0
    0.4885   -1.9923    4.2234 C   0  0  0  0  0  0  0  0  0  0  0  0
    1.4453   -2.5712    3.3637 C   0  0  0  0  0  0  0  0  0  0  0  0
    2.1021   -1.7647    2.4791 N   0  0  0  0  0  0  0  0  0  0  0  0
    1.7628   -0.4384    2.5468 C   0  0  0  0  0  0  0  0  0  0  0  0
    2.3396    0.5565    1.7070 C   0  0  0  0  0  0  0  0  0  0  0  0
    1.6589    1.7407    2.1641 C   0  0  0  0  0  0  0  0  0  0  0  0
    0.8258    1.5096    3.1833 N   0  0  0  0  0  0  0  0  0  0  0  0
    0.9010    0.1847    3.3423 N   0  0  0  0  0  0  0  0  0  0  0  0
    0.1871   -0.6327    4.2322 C   0  0  0  0  0  0  0  0  0  0  0  0
   -1.6954    1.8819    4.6479 C   0  0  0  0  0  0  0  0  0  0  0  0
   -2.2392    3.0582    5.0263 N   0  0  0  0  0  0  0  0  0  0  0  0
   -2.9976    4.1261    6.6290 H   0  0  0  0  0  0  0  0  0  0  0  0
   -2.6364    2.2444    8.2875 H   0  0  0  0  0  0  0  0  0  0  0  0
   -0.4422   -3.5190    5.5391 H   0  0  0  0  0  0  0  0  0  0  0  0
    1.6864   -3.6215    3.3682 H   0  0  0  0  0  0  0  0  0  0  0  0
    3.0754    0.3360    0.9541 H   0  0  0  0  0  0  0  0  0  0  0  0
    1.7460    2.7469    1.7753 H   0  0  0  0  0  0  0  0  0  0  0  0
   -1.5276    1.7673    3.5855 H   0  0  0  0  0  0  0  0  0  0  0  0
  1 18  2  0
  1  2  1  0
  1 19  1  0
  2  3  2  0
  2 20  1  0
  3  4  1  0
  4  5  1  0
  4 17  2  0
  5 16  1  0
  5  6  1  0
  6  7  2  0
  7  8  1  0
  7 21  1  0
  8 16  2  0
  8  9  1  0
  9 10  2  0
  9 22  1  0
 10 11  1  0
 11 15  1  0
 11 12  2  0
 12 13  1  0
 12 23  1  0
 13 14  2  0
 13 24  1  0
 14 15  1  0
 15 16  1  0
 17 18  1  0
 17 25  1  0
M  END
>  <i_m_ct_stereo_status>  (190) 
1

>  <s_m_source_file>  (190) 
/var/tmp/pbs.5076255.sched01/tmp9rjncpta/544vc0qzzn.sdf

>  <i_m_source_file_index>  (190) 
33

>  <i_lp_mmshare_version>  (190) 
48012

>  <i_f3d_flags>  (190) 
0

>  <s_epik_input>  (190) 
W2NIXTFuW2NIXVtjSF1uYzEtbihuW2NIXTIpYyhjMjMpbjRjKG5bY0hdMylbY0hdW2NIXW40

>  <s_epik_cmdline>  (190) 
J2VwaWtfcHl0aG9uJywgJy1waHQnLCAnMi4wJywgJy1waCcsICc3LjAnLCAnLXRuJywgJzgnLCAnLW1hJywgJzIwMCcsICctaW1hZScsICc8aW5maWxlLm1hZT4nLCAnLW9tYWUnLCAnPG91dGZpbGUubWFlPic=

>  <r_lp_tautomer_probability>  (190) 
1

>  <r_epik_Ionization_Penalty>  (190) 
2.77837e-08

>  <r_epik_Ionization_Penalty_Charging>  (190) 
0

>  <r_epik_Ionization_Penalty_Neutral>  (190) 
2.77837e-08

>  <r_epik_State_Penalty>  (190) 
-0

>  <r_epik_Charging_Adjusted_Penalty>  (190) 
0

>  <i_epik_Tot_Q>  (190) 
0

>  <i_epik_Tot_abs_Q>  (190) 
0

>  <s_lp_Force_Field>  (190) 
OPLS3e

>  <r_lp_Energy>  (190) 
30.8984

>  <b_lp_Chiralities_Consistent>  (190) 
1

>  <s_lp_Variant>  (190) 
57:0-1

>  <s_i_glide_gridfile>  (190) 
pfpi4k_grid

>  <i_i_glide_lignum>  (190) 
33

>  <i_i_glide_rotatable_bonds>  (190) 
1

>  <r_i_docking_score>  (190) 
-3.69312

>  <r_i_glide_ligand_efficiency>  (190) 
-0.205173

>  <r_i_glide_ligand_efficiency_sa>  (190) 
-0.537707

>  <r_i_glide_ligand_efficiency_ln>  (190) 
-0.949298

>  <r_i_glide_gscore>  (190) 
-3.69312

>  <r_i_glide_lipo>  (190) 
-0.191109

>  <r_i_glide_hbond>  (190) 
-0.16

>  <r_i_glide_metal>  (190) 
-0

>  <r_i_glide_rewards>  (190) 
-1.79168

>  <r_i_glide_evdw>  (190) 
-21.3133

>  <r_i_glide_ecoul>  (190) 
-4.47554

>  <r_i_glide_erotb>  (190) 
0.306267

>  <r_i_glide_esite>  (190) 
-0.119603

>  <r_i_glide_emodel>  (190) 
-31.73

>  <r_i_glide_energy>  (190) 
-25.7889

>  <r_i_glide_einternal>  (190) 
0.461047

>  <r_i_glide_intrahb_reward>  (190) 
-0

>  <i_i_glide_confnum>  (190) 
5

>  <i_i_glide_posenum>  (190) 
17

>  <r_i_glide_eff_state_penalty>  (190) 
0

>  <ligand_id>  (190) 
57

>  <original_smiles>  (190) 
c1cnc(-n2ncc3cnc4ccnn4c32)cn1

>  <smiles>  (190) 
[H]c1nc([H])c(-n2nc([H])c3c([H])nc4c([H])c([H])nn4c32)nc1[H]

$$$$
57:0:1
     RDKit          3D

 25 28  0  0  1  0  0  0  0  0999 V2000
   -2.5357    3.5906    9.5642 C   0  0  0  0  0  0  0  0  0  0  0  0
   -1.6845    4.5653    9.0072 C   0  0  0  0  0  0  0  0  0  0  0  0
   -1.2629    4.4982    7.7222 N   0  0  0  0  0  0  0  0  0  0  0  0
   -1.7108    3.4535    6.9806 C   0  0  0  0  0  0  0  0  0  0  0  0
   -1.3248    3.3496    5.6237 N   0  0  0  0  0  0  0  0  0  0  0  0
   -1.2393    4.4893    4.8695 N   0  0  0  0  0  0  0  0  0  0  0  0
   -0.8338    4.0853    3.6662 C   0  0  0  0  0  0  0  0  0  0  0  0
   -0.6541    2.6837    3.5541 C   0  0  0  0  0  0  0  0  0  0  0  0
   -0.2557    1.7918    2.5341 C   0  0  0  0  0  0  0  0  0  0  0  0
   -0.1782    0.4651    2.8414 N   0  0  0  0  0  0  0  0  0  0  0  0
   -0.4991    0.1436    4.1332 C   0  0  0  0  0  0  0  0  0  0  0  0
   -0.4615   -1.1819    4.6120 C   0  0  0  0  0  0  0  0  0  0  0  0
   -0.8467   -1.0060    5.9835 C   0  0  0  0  0  0  0  0  0  0  0  0
   -1.0974    0.2665    6.3163 N   0  0  0  0  0  0  0  0  0  0  0  0
   -0.8814    0.9192    5.1525 N   0  0  0  0  0  0  0  0  0  0  0  0
   -0.9814    2.2846    4.8622 C   0  0  0  0  0  0  0  0  0  0  0  0
   -2.5992    2.5094    7.5432 C   0  0  0  0  0  0  0  0  0  0  0  0
   -2.9871    2.5611    8.8312 N   0  0  0  0  0  0  0  0  0  0  0  0
   -2.8594    3.6351   10.5939 H   0  0  0  0  0  0  0  0  0  0  0  0
   -1.3298    5.4008    9.5948 H   0  0  0  0  0  0  0  0  0  0  0  0
   -0.6653    4.7845    2.8664 H   0  0  0  0  0  0  0  0  0  0  0  0
   -0.0051    2.1140    1.5248 H   0  0  0  0  0  0  0  0  0  0  0  0
   -0.1878   -2.0251    3.9980 H   0  0  0  0  0  0  0  0  0  0  0  0
   -0.9616   -1.7580    6.7517 H   0  0  0  0  0  0  0  0  0  0  0  0
   -3.0237    1.7091    6.9575 H   0  0  0  0  0  0  0  0  0  0  0  0
  1 18  2  0
  1  2  1  0
  1 19  1  0
  2  3  2  0
  2 20  1  0
  3  4  1  0
  4  5  1  0
  4 17  2  0
  5 16  1  0
  5  6  1  0
  6  7  2  0
  7  8  1  0
  7 21  1  0
  8 16  2  0
  8  9  1  0
  9 10  2  0
  9 22  1  0
 10 11  1  0
 11 15  1  0
 11 12  2  0
 12 13  1  0
 12 23  1  0
 13 14  2  0
 13 24  1  0
 14 15  1  0
 15 16  1  0
 17 18  1  0
 17 25  1  0
M  END
>  <i_m_ct_stereo_status>  (191) 
1

>  <s_m_source_file>  (191) 
/var/tmp/pbs.5076255.sched01/tmp9rjncpta/544vc0qzzn.sdf

>  <i_m_source_file_index>  (191) 
33

>  <i_lp_mmshare_version>  (191) 
48012

>  <i_f3d_flags>  (191) 
0

>  <s_epik_input>  (191) 
W2NIXTFuW2NIXVtjSF1uYzEtbihuW2NIXTIpYyhjMjMpbjRjKG5bY0hdMylbY0hdW2NIXW40

>  <s_epik_cmdline>  (191) 
J2VwaWtfcHl0aG9uJywgJy1waHQnLCAnMi4wJywgJy1waCcsICc3LjAnLCAnLXRuJywgJzgnLCAnLW1hJywgJzIwMCcsICctaW1hZScsICc8aW5maWxlLm1hZT4nLCAnLW9tYWUnLCAnPG91dGZpbGUubWFlPic=

>  <r_lp_tautomer_probability>  (191) 
1

>  <r_epik_Ionization_Penalty>  (191) 
2.77837e-08

>  <r_epik_Ionization_Penalty_Charging>  (191) 
0

>  <r_epik_Ionization_Penalty_Neutral>  (191) 
2.77837e-08

>  <r_epik_State_Penalty>  (191) 
-0

>  <r_epik_Charging_Adjusted_Penalty>  (191) 
0

>  <i_epik_Tot_Q>  (191) 
0

>  <i_epik_Tot_abs_Q>  (191) 
0

>  <s_lp_Force_Field>  (191) 
OPLS3e

>  <r_lp_Energy>  (191) 
30.8984

>  <b_lp_Chiralities_Consistent>  (191) 
1

>  <s_lp_Variant>  (191) 
57:0-1

>  <s_i_glide_gridfile>  (191) 
pfpi4k_grid

>  <i_i_glide_lignum>  (191) 
33

>  <i_i_glide_rotatable_bonds>  (191) 
1

>  <r_i_docking_score>  (191) 
-3.43045

>  <r_i_glide_ligand_efficiency>  (191) 
-0.19058

>  <r_i_glide_ligand_efficiency_sa>  (191) 
-0.499462

>  <r_i_glide_ligand_efficiency_ln>  (191) 
-0.881779

>  <r_i_glide_gscore>  (191) 
-3.43045

>  <r_i_glide_lipo>  (191) 
-0.0992519

>  <r_i_glide_hbond>  (191) 
-0.0605776

>  <r_i_glide_metal>  (191) 
-0

>  <r_i_glide_rewards>  (191) 
-1.85841

>  <r_i_glide_evdw>  (191) 
-19.6366

>  <r_i_glide_ecoul>  (191) 
-4.52125

>  <r_i_glide_erotb>  (191) 
0.306267

>  <r_i_glide_esite>  (191) 
-0.0584523

>  <r_i_glide_emodel>  (191) 
-30.0451

>  <r_i_glide_energy>  (191) 
-24.1579

>  <r_i_glide_einternal>  (191) 
0.143901

>  <r_i_glide_intrahb_reward>  (191) 
-0

>  <i_i_glide_confnum>  (191) 
3

>  <i_i_glide_posenum>  (191) 
30

>  <r_i_glide_eff_state_penalty>  (191) 
0

>  <ligand_id>  (191) 
57

>  <original_smiles>  (191) 
c1cnc(-n2ncc3cnc4ccnn4c32)cn1

>  <smiles>  (191) 
[H]c1nc([H])c(-n2nc([H])c3c([H])nc4c([H])c([H])nn4c32)nc1[H]

$$$$
57:0:2
     RDKit          3D

 25 28  0  0  1  0  0  0  0  0999 V2000
   -2.5256    2.6829    9.5945 C   0  0  0  0  0  0  0  0  0  0  0  0
   -3.3366    3.3014    8.6217 C   0  0  0  0  0  0  0  0  0  0  0  0
   -2.9813    3.3233    7.3181 N   0  0  0  0  0  0  0  0  0  0  0  0
   -1.8110    2.7420    6.9716 C   0  0  0  0  0  0  0  0  0  0  0  0
   -1.4095    2.7663    5.6157 N   0  0  0  0  0  0  0  0  0  0  0  0
   -1.5645    3.9248    4.8907 N   0  0  0  0  0  0  0  0  0  0  0  0
   -1.1172    3.6324    3.6659 C   0  0  0  0  0  0  0  0  0  0  0  0
   -0.6775    2.2936    3.5187 C   0  0  0  0  0  0  0  0  0  0  0  0
   -0.1597    1.5201    2.4529 C   0  0  0  0  0  0  0  0  0  0  0  0
    0.1716    0.2259    2.7295 N   0  0  0  0  0  0  0  0  0  0  0  0
   -0.0756   -0.1837    4.0159 C   0  0  0  0  0  0  0  0  0  0  0  0
    0.1973   -1.4998    4.4522 C   0  0  0  0  0  0  0  0  0  0  0  0
   -0.2032   -1.4391    5.8333 C   0  0  0  0  0  0  0  0  0  0  0  0
   -0.7258   -0.2557    6.1864 N   0  0  0  0  0  0  0  0  0  0  0  0
   -0.5843    0.4702    5.0605 N   0  0  0  0  0  0  0  0  0  0  0  0
   -0.8939    1.8058    4.8131 C   0  0  0  0  0  0  0  0  0  0  0  0
   -0.9944    2.1474    7.9644 C   0  0  0  0  0  0  0  0  0  0  0  0
   -1.3528    2.1001    9.2676 N   0  0  0  0  0  0  0  0  0  0  0  0
   -2.8248    2.6418   10.6300 H   0  0  0  0  0  0  0  0  0  0  0  0
   -4.2778    3.7591    8.8817 H   0  0  0  0  0  0  0  0  0  0  0  0
   -1.1025    4.3592    2.8695 H   0  0  0  0  0  0  0  0  0  0  0  0
   -0.0187    1.9166    1.4508 H   0  0  0  0  0  0  0  0  0  0  0  0
    0.6129   -2.2437    3.7910 H   0  0  0  0  0  0  0  0  0  0  0  0
   -0.1426   -2.2143    6.5836 H   0  0  0  0  0  0  0  0  0  0  0  0
   -0.0369    1.7209    7.7140 H   0  0  0  0  0  0  0  0  0  0  0  0
  1 18  2  0
  1  2  1  0
  1 19  1  0
  2  3  2  0
  2 20  1  0
  3  4  1  0
  4  5  1  0
  4 17  2  0
  5 16  1  0
  5  6  1  0
  6  7  2  0
  7  8  1  0
  7 21  1  0
  8 16  2  0
  8  9  1  0
  9 10  2  0
  9 22  1  0
 10 11  1  0
 11 15  1  0
 11 12  2  0
 12 13  1  0
 12 23  1  0
 13 14  2  0
 13 24  1  0
 14 15  1  0
 15 16  1  0
 17 18  1  0
 17 25  1  0
M  END
>  <i_m_ct_stereo_status>  (192) 
1

>  <s_m_source_file>  (192) 
/var/tmp/pbs.5076255.sched01/tmp9rjncpta/544vc0qzzn.sdf

>  <i_m_source_file_index>  (192) 
33

>  <i_lp_mmshare_version>  (192) 
48012

>  <i_f3d_flags>  (192) 
0

>  <s_epik_input>  (192) 
W2NIXTFuW2NIXVtjSF1uYzEtbihuW2NIXTIpYyhjMjMpbjRjKG5bY0hdMylbY0hdW2NIXW40

>  <s_epik_cmdline>  (192) 
J2VwaWtfcHl0aG9uJywgJy1waHQnLCAnMi4wJywgJy1waCcsICc3LjAnLCAnLXRuJywgJzgnLCAnLW1hJywgJzIwMCcsICctaW1hZScsICc8aW5maWxlLm1hZT4nLCAnLW9tYWUnLCAnPG91dGZpbGUubWFlPic=

>  <r_lp_tautomer_probability>  (192) 
1

>  <r_epik_Ionization_Penalty>  (192) 
2.77837e-08

>  <r_epik_Ionization_Penalty_Charging>  (192) 
0

>  <r_epik_Ionization_Penalty_Neutral>  (192) 
2.77837e-08

>  <r_epik_State_Penalty>  (192) 
-0

>  <r_epik_Charging_Adjusted_Penalty>  (192) 
0

>  <i_epik_Tot_Q>  (192) 
0

>  <i_epik_Tot_abs_Q>  (192) 
0

>  <s_lp_Force_Field>  (192) 
OPLS3e

>  <r_lp_Energy>  (192) 
30.8984

>  <b_lp_Chiralities_Consistent>  (192) 
1

>  <s_lp_Variant>  (192) 
57:0-1

>  <s_i_glide_gridfile>  (192) 
pfpi4k_grid

>  <i_i_glide_lignum>  (192) 
33

>  <i_i_glide_rotatable_bonds>  (192) 
1

>  <r_i_docking_score>  (192) 
-3.33051

>  <r_i_glide_ligand_efficiency>  (192) 
-0.185028

>  <r_i_glide_ligand_efficiency_sa>  (192) 
-0.484912

>  <r_i_glide_ligand_efficiency_ln>  (192) 
-0.856091

>  <r_i_glide_gscore>  (192) 
-3.33051

>  <r_i_glide_lipo>  (192) 
-0.029413

>  <r_i_glide_hbond>  (192) 
0

>  <r_i_glide_metal>  (192) 
-0

>  <r_i_glide_rewards>  (192) 
-1.88129

>  <r_i_glide_evdw>  (192) 
-21.2165

>  <r_i_glide_ecoul>  (192) 
-4.10035

>  <r_i_glide_erotb>  (192) 
0.306267

>  <r_i_glide_esite>  (192) 
-0.0501988

>  <r_i_glide_emodel>  (192) 
-30.9762

>  <r_i_glide_energy>  (192) 
-25.3168

>  <r_i_glide_einternal>  (192) 
0.279407

>  <r_i_glide_intrahb_reward>  (192) 
-0

>  <i_i_glide_confnum>  (192) 
4

>  <i_i_glide_posenum>  (192) 
6

>  <r_i_glide_eff_state_penalty>  (192) 
0

>  <ligand_id>  (192) 
57

>  <original_smiles>  (192) 
c1cnc(-n2ncc3cnc4ccnn4c32)cn1

>  <smiles>  (192) 
[H]c1nc([H])c(-n2nc([H])c3c([H])nc4c([H])c([H])nn4c32)nc1[H]

$$$$
58:1:0
     RDKit          3D

 81 86  0  0  1  0  0  0  0  0999 V2000
   -1.6677   -0.0265    5.4434 C   0  0  0  0  0  0  0  0  0  0  0  0
   -1.2567    1.0086    6.2083 C   0  0  0  0  0  0  0  0  0  0  0  0
   -0.6910    0.7267    7.5989 C   0  0  0  0  0  0  0  0  0  0  0  0
    0.6069    1.4611    8.0305 C   0  0  2  0  0  0  0  0  0  0  0  0
    0.2245    2.8285    8.6348 C   0  0  0  0  0  0  0  0  0  0  0  0
   -0.0757    3.8806    7.5543 C   0  0  0  0  0  0  0  0  0  0  0  0
   -0.0744    3.3040    6.1019 C   0  0  2  0  0  0  0  0  0  0  0  0
   -1.3818    2.4780    5.7723 C   0  0  0  0  0  0  0  0  0  0  0  0
   -1.7028    2.6388    4.2548 C   0  0  0  0  0  0  0  0  0  0  0  0
   -2.6333    3.0633    6.4701 C   0  0  0  0  0  0  0  0  0  0  0  0
    1.3351    2.6288    5.8291 C   0  0  2  0  0  0  0  0  0  0  0  0
    2.3788    3.7806    5.6817 C   0  0  0  0  0  0  0  0  0  0  0  0
    1.4870    1.7161    4.5916 C   0  0  0  0  0  0  0  0  0  0  0  0
    2.6809    0.7728    4.8726 C   0  0  2  0  0  0  0  0  0  0  0  0
    2.9720   -0.4107    3.8386 C   0  0  1  0  0  0  0  0  0  0  0  0
    2.0020   -0.2958    2.6210 C   0  0  0  0  0  0  0  0  0  0  0  0
    4.4011   -0.1945    3.2946 C   0  0  0  0  0  0  0  0  0  0  0  0
    4.8154   -1.1610    2.1743 C   0  0  1  0  0  0  0  0  0  0  0  0
    6.2120   -1.1040    2.0158 O   0  0  0  0  0  0  0  0  0  0  0  0
    4.3786   -2.6051    2.4071 C   0  0  0  0  0  0  0  0  0  0  0  0
    4.4365   -3.4928    1.3882 C   0  0  0  0  0  0  0  0  0  0  0  0
    4.1500   -4.9407    1.5244 C   0  0  0  0  0  0  0  0  0  0  0  0
    4.1235   -5.7800    0.5685 N   0  0  0  0  0  0  0  0  0  0  0  0
    4.4290   -5.1626   -0.6822 O   0  0  0  0  0  0  0  0  0  0  0  0
    3.8773   -5.4253    2.9395 C   0  0  0  0  0  0  0  0  0  0  0  0
    3.1871   -4.3515    3.7957 C   0  0  0  0  0  0  0  0  0  0  0  0
    3.8931   -2.9620    3.8259 C   0  0  1  0  0  0  0  0  0  0  0  0
    5.1551   -3.1140    4.7158 C   0  0  0  0  0  0  0  0  0  0  0  0
    2.8584   -1.8942    4.3935 C   0  0  1  0  0  0  0  0  0  0  0  0
    2.6330   -2.0413    5.9189 C   0  0  0  0  0  0  0  0  0  0  0  0
    1.8351   -0.8948    6.5292 C   0  0  0  0  0  0  0  0  0  0  0  0
    2.5500    0.4546    6.3817 C   0  0  1  0  0  0  0  0  0  0  0  0
    3.9544    0.3939    7.0412 C   0  0  0  0  0  0  0  0  0  0  0  0
    1.7452    1.6733    6.9796 C   0  0  2  0  0  0  0  0  0  0  0  0
   -2.1064    0.1056    4.4679 H   0  0  0  0  0  0  0  0  0  0  0  0
   -1.5834   -1.0441    5.7882 H   0  0  0  0  0  0  0  0  0  0  0  0
   -1.4773    0.9535    8.3198 H   0  0  0  0  0  0  0  0  0  0  0  0
   -0.5319   -0.3447    7.7007 H   0  0  0  0  0  0  0  0  0  0  0  0
    1.0259    0.8805    8.8537 H   0  0  0  0  0  0  0  0  0  0  0  0
   -0.6274    2.7293    9.3104 H   0  0  0  0  0  0  0  0  0  0  0  0
    1.0388    3.1887    9.2643 H   0  0  0  0  0  0  0  0  0  0  0  0
   -0.9907    4.4149    7.8000 H   0  0  0  0  0  0  0  0  0  0  0  0
    0.6683    4.6673    7.6434 H   0  0  0  0  0  0  0  0  0  0  0  0
   -0.1276    4.1857    5.4621 H   0  0  0  0  0  0  0  0  0  0  0  0
   -1.7864    3.6926    3.9819 H   0  0  0  0  0  0  0  0  0  0  0  0
   -2.6574    2.1823    3.9880 H   0  0  0  0  0  0  0  0  0  0  0  0
   -0.9522    2.2091    3.5938 H   0  0  0  0  0  0  0  0  0  0  0  0
   -2.7423    4.1252    6.2506 H   0  0  0  0  0  0  0  0  0  0  0  0
   -2.6291    2.9366    7.5529 H   0  0  0  0  0  0  0  0  0  0  0  0
   -3.5389    2.5784    6.1151 H   0  0  0  0  0  0  0  0  0  0  0  0
    3.3908    3.4253    5.4984 H   0  0  0  0  0  0  0  0  0  0  0  0
    2.4581    4.4042    6.5711 H   0  0  0  0  0  0  0  0  0  0  0  0
    2.1186    4.4407    4.8525 H   0  0  0  0  0  0  0  0  0  0  0  0
    0.6155    1.0906    4.4644 H   0  0  0  0  0  0  0  0  0  0  0  0
    1.6133    2.2956    3.6771 H   0  0  0  0  0  0  0  0  0  0  0  0
    3.5417    1.4324    4.8053 H   0  0  0  0  0  0  0  0  0  0  0  0
    2.1594   -1.0947    1.8941 H   0  0  0  0  0  0  0  0  0  0  0  0
    2.1277    0.6495    2.0864 H   0  0  0  0  0  0  0  0  0  0  0  0
    0.9565   -0.3871    2.9215 H   0  0  0  0  0  0  0  0  0  0  0  0
    4.4870    0.8186    2.9110 H   0  0  0  0  0  0  0  0  0  0  0  0
    5.1125   -0.2403    4.1167 H   0  0  0  0  0  0  0  0  0  0  0  0
    4.3677   -0.8340    1.2364 H   0  0  0  0  0  0  0  0  0  0  0  0
    6.4890   -0.2048    1.8799 H   0  0  0  0  0  0  0  0  0  0  0  0
    4.7708   -3.1720    0.4099 H   0  0  0  0  0  0  0  0  0  0  0  0
    3.9757   -5.7294   -1.2979 H   0  0  0  0  0  0  0  0  0  0  0  0
    3.2395   -6.3069    2.8976 H   0  0  0  0  0  0  0  0  0  0  0  0
    4.8193   -5.7384    3.3900 H   0  0  0  0  0  0  0  0  0  0  0  0
    2.1792   -4.2373    3.3968 H   0  0  0  0  0  0  0  0  0  0  0  0
    3.0605   -4.7343    4.8088 H   0  0  0  0  0  0  0  0  0  0  0  0
    4.9573   -3.6078    5.6673 H   0  0  0  0  0  0  0  0  0  0  0  0
    5.6454   -2.1671    4.9371 H   0  0  0  0  0  0  0  0  0  0  0  0
    5.8901   -3.7391    4.2136 H   0  0  0  0  0  0  0  0  0  0  0  0
    1.8878   -2.2124    4.0114 H   0  0  0  0  0  0  0  0  0  0  0  0
    2.0734   -2.9578    6.1013 H   0  0  0  0  0  0  0  0  0  0  0  0
    3.5548   -2.1694    6.4795 H   0  0  0  0  0  0  0  0  0  0  0  0
    0.8772   -0.8620    6.0187 H   0  0  0  0  0  0  0  0  0  0  0  0
    1.6376   -1.1089    7.5806 H   0  0  0  0  0  0  0  0  0  0  0  0
    3.8892    0.0687    8.0812 H   0  0  0  0  0  0  0  0  0  0  0  0
    4.4552    1.3635    7.0270 H   0  0  0  0  0  0  0  0  0  0  0  0
    4.6252   -0.2901    6.5210 H   0  0  0  0  0  0  0  0  0  0  0  0
    2.4742    2.2347    7.5639 H   0  0  0  0  0  0  0  0  0  0  0  0
  1  2  2  0
  1 35  1  0
  1 36  1  0
  2  8  1  0
  2  3  1  0
  3  4  1  0
  3 37  1  0
  3 38  1  0
  4 34  1  0
  4  5  1  0
  4 39  1  1
  5  6  1  0
  5 40  1  0
  5 41  1  0
  6  7  1  0
  6 42  1  0
  6 43  1  0
  7  8  1  0
  7 11  1  0
  7 44  1  6
  8  9  1  0
  8 10  1  0
  9 45  1  0
  9 46  1  0
  9 47  1  0
 10 48  1  0
 10 49  1  0
 10 50  1  0
 11 34  1  0
 11 12  1  6
 11 13  1  0
 12 51  1  0
 12 52  1  0
 12 53  1  0
 13 14  1  0
 13 54  1  0
 13 55  1  0
 14 32  1  0
 14 15  1  0
 14 56  1  1
 15 29  1  0
 15 16  1  6
 15 17  1  0
 16 57  1  0
 16 58  1  0
 16 59  1  0
 17 18  1  0
 17 60  1  0
 17 61  1  0
 18 19  1  0
 18 20  1  0
 18 62  1  6
 19 63  1  0
 20 27  1  0
 20 21  2  0
 21 22  1  0
 21 64  1  0
 22 23  2  3
 22 25  1  0
 23 24  1  0
 24 65  1  0
 25 26  1  0
 25 66  1  0
 25 67  1  0
 26 27  1  0
 26 68  1  0
 26 69  1  0
 27 28  1  1
 27 29  1  0
 28 70  1  0
 28 71  1  0
 28 72  1  0
 29 30  1  0
 29 73  1  6
 30 31  1  0
 30 74  1  0
 30 75  1  0
 31 32  1  0
 31 76  1  0
 31 77  1  0
 32 33  1  1
 32 34  1  0
 33 78  1  0
 33 79  1  0
 33 80  1  0
 34 81  1  1
M  END
>  <i_m_ct_stereo_status>  (193) 
1

>  <s_m_source_file>  (193) 
/var/tmp/pbs.5076255.sched01/tmp9rjncpta/544vc0qzzn.sdf

>  <i_m_source_file_index>  (193) 
35

>  <i_lp_mmshare_version>  (193) 
48012

>  <i_f3d_flags>  (193) 
0

>  <s_epik_input>  (193) 
W0NIM11bQ0BAXTEyW0NAQEhdM1tDSDJdW0NIMl1bQ0BASF0oW0NIMl1DKD1bQ0gyXSlDMyhbQ0gzXSlbQ0gzXSlbQ0BIXTJbQ0BdNChbQ0gzXSlbQ0BIXShbQ0gyXTEpW0NAXTUoW0NIM10pW0NASF0oW0NIMl1bQ0gyXTQpW0NAXTYoW0NIM10pQyhbQ0BASF0oW0NIMl01KVtPSF0pPVtDSF0vQyg9Ti9bT0hdKVtDSDJdW0NIMl02

>  <s_epik_cmdline>  (193) 
J2VwaWtfcHl0aG9uJywgJy1waHQnLCAnMi4wJywgJy1waCcsICc3LjAnLCAnLXRuJywgJzgnLCAnLW1hJywgJzIwMCcsICctaW1hZScsICc8aW5maWxlLm1hZT4nLCAnLW9tYWUnLCAnPG91dGZpbGUubWFlPic=

>  <r_lp_tautomer_probability>  (193) 
1

>  <r_epik_Ionization_Penalty>  (193) 
3.07678e-06

>  <r_epik_Ionization_Penalty_Charging>  (193) 
0

>  <r_epik_Ionization_Penalty_Neutral>  (193) 
3.07678e-06

>  <r_epik_State_Penalty>  (193) 
-0

>  <r_epik_Charging_Adjusted_Penalty>  (193) 
0

>  <i_epik_Tot_Q>  (193) 
0

>  <i_epik_Tot_abs_Q>  (193) 
0

>  <s_epik_Chemistry_Notes>  (193) 
This compound has an imine and may undergo hydrolysis.

>  <s_lp_Force_Field>  (193) 
OPLS3e

>  <r_lp_Energy>  (193) 
107.395

>  <b_lp_Chiralities_Consistent>  (193) 
1

>  <s_lp_Variant>  (193) 
58:0-2

>  <s_i_glide_gridfile>  (193) 
pfpi4k_grid

>  <i_i_glide_lignum>  (193) 
35

>  <i_i_glide_rotatable_bonds>  (193) 
2

>  <r_i_docking_score>  (193) 
-3.13913

>  <r_i_glide_ligand_efficiency>  (193) 
-0.0923273

>  <r_i_glide_ligand_efficiency_sa>  (193) 
-0.299105

>  <r_i_glide_ligand_efficiency_ln>  (193) 
-0.693521

>  <r_i_glide_gscore>  (193) 
-3.13913

>  <r_i_glide_lipo>  (193) 
-0.355646

>  <r_i_glide_hbond>  (193) 
-0.577476

>  <r_i_glide_metal>  (193) 
-0

>  <r_i_glide_rewards>  (193) 
-0.260162

>  <r_i_glide_evdw>  (193) 
-23.32

>  <r_i_glide_ecoul>  (193) 
-5.52008

>  <r_i_glide_erotb>  (193) 
0.0929942

>  <r_i_glide_esite>  (193) 
-0.0448245

>  <r_i_glide_emodel>  (193) 
-34.1194

>  <r_i_glide_energy>  (193) 
-28.8401

>  <r_i_glide_einternal>  (193) 
1.16579

>  <r_i_glide_intrahb_reward>  (193) 
-0

>  <i_i_glide_confnum>  (193) 
4

>  <i_i_glide_posenum>  (193) 
39

>  <r_i_glide_eff_state_penalty>  (193) 
0

>  <ligand_id>  (193) 
58

>  <original_smiles>  (193) 
C=C1CC2CCC(C1(C)C)C1(C)CC3C4(C)CC(O)C5=CC(=NO)CCC5(C)C4CCC3(C)C21

>  <smiles>  (193) 
[H]ON=C1C([H])=C2C([H])(O[H])C([H])([H])C3(C([H])([H])[H])C([H])(C([H])([H])C([H])([H])C4(C([H])([H])[H])C3([H])C([H])([H])C3(C([H])([H])[H])C5([H])C([H])([H])C([H])([H])C([H])(C([H])([H])C(=C([H])[H])C5(C([H])([H])[H])C([H])([H])[H])C34[H])C2(C([H])([H])[H])C([H])([H])C1([H])[H]

$$$$
58:1:1
     RDKit          3D

 81 86  0  0  1  0  0  0  0  0999 V2000
   -0.9847    0.8076    7.0562 C   0  0  0  0  0  0  0  0  0  0  0  0
   -0.3624    1.9525    7.4181 C   0  0  0  0  0  0  0  0  0  0  0  0
    0.8226    1.8763    8.3754 C   0  0  0  0  0  0  0  0  0  0  0  0
    2.0948    2.7037    8.0272 C   0  0  2  0  0  0  0  0  0  0  0  0
    1.9300    4.1274    8.5886 C   0  0  0  0  0  0  0  0  0  0  0  0
    1.0442    5.0115    7.6962 C   0  0  0  0  0  0  0  0  0  0  0  0
    0.3957    4.2471    6.5050 C   0  0  2  0  0  0  0  0  0  0  0  0
   -0.8210    3.3415    6.9504 C   0  0  0  0  0  0  0  0  0  0  0  0
   -1.8503    3.2713    5.7802 C   0  0  0  0  0  0  0  0  0  0  0  0
   -1.6428    3.9705    8.1061 C   0  0  0  0  0  0  0  0  0  0  0  0
    1.5463    3.5770    5.6411 C   0  0  2  0  0  0  0  0  0  0  0  0
    2.2755    4.7292    4.8774 C   0  0  0  0  0  0  0  0  0  0  0  0
    1.1627    2.5101    4.5904 C   0  0  0  0  0  0  0  0  0  0  0  0
    2.4270    1.6519    4.3384 C   0  0  2  0  0  0  0  0  0  0  0  0
    2.3014    0.3438    3.4274 C   0  0  1  0  0  0  0  0  0  0  0  0
    0.8484    0.2631    2.8509 C   0  0  0  0  0  0  0  0  0  0  0  0
    3.2426    0.5346    2.2241 C   0  0  0  0  0  0  0  0  0  0  0  0
    3.1665   -0.5822    1.1768 C   0  0  1  0  0  0  0  0  0  0  0  0
    4.2987   -0.5107    0.3394 O   0  0  0  0  0  0  0  0  0  0  0  0
    3.0319   -1.9764    1.7394 C   0  0  0  0  0  0  0  0  0  0  0  0
    2.6727   -2.9905    0.9194 C   0  0  0  0  0  0  0  0  0  0  0  0
    2.6549   -4.4272    1.3343 C   0  0  0  0  0  0  0  0  0  0  0  0
    2.2761   -5.4060    0.6035 N   0  0  0  0  0  0  0  0  0  0  0  0
    1.8054   -4.9180   -0.6462 O   0  0  0  0  0  0  0  0  0  0  0  0
    3.1232   -4.7153    2.7418 C   0  0  0  0  0  0  0  0  0  0  0  0
    2.8361   -3.5514    3.7046 C   0  0  0  0  0  0  0  0  0  0  0  0
    3.3338   -2.1567    3.2343 C   0  0  1  0  0  0  0  0  0  0  0  0
    4.8825   -2.1394    3.3742 C   0  0  0  0  0  0  0  0  0  0  0  0
    2.5992   -1.0529    4.1206 C   0  0  1  0  0  0  0  0  0  0  0  0
    3.1678   -0.9884    5.5579 C   0  0  0  0  0  0  0  0  0  0  0  0
    2.6571    0.2002    6.3679 C   0  0  0  0  0  0  0  0  0  0  0  0
    3.0714    1.5408    5.7426 C   0  0  1  0  0  0  0  0  0  0  0  0
    4.6192    1.6108    5.6354 C   0  0  0  0  0  0  0  0  0  0  0  0
    2.5462    2.8012    6.5316 C   0  0  2  0  0  0  0  0  0  0  0  0
   -1.8421    0.7915    6.4116 H   0  0  0  0  0  0  0  0  0  0  0  0
   -0.6252   -0.1354    7.4288 H   0  0  0  0  0  0  0  0  0  0  0  0
    0.4688    2.1512    9.3704 H   0  0  0  0  0  0  0  0  0  0  0  0
    1.1101    0.8322    8.4969 H   0  0  0  0  0  0  0  0  0  0  0  0
    2.9154    2.2521    8.5873 H   0  0  0  0  0  0  0  0  0  0  0  0
    1.5274    4.0946    9.6019 H   0  0  0  0  0  0  0  0  0  0  0  0
    2.9100    4.5942    8.6890 H   0  0  0  0  0  0  0  0  0  0  0  0
    0.3162    5.5449    8.3031 H   0  0  0  0  0  0  0  0  0  0  0  0
    1.6582    5.8257    7.3215 H   0  0  0  0  0  0  0  0  0  0  0  0
   -0.0460    5.0280    5.8852 H   0  0  0  0  0  0  0  0  0  0  0  0
   -2.1494    4.2674    5.4610 H   0  0  0  0  0  0  0  0  0  0  0  0
   -2.7726    2.7645    6.0710 H   0  0  0  0  0  0  0  0  0  0  0  0
   -1.4810    2.7731    4.8865 H   0  0  0  0  0  0  0  0  0  0  0  0
   -1.9450    4.9905    7.8719 H   0  0  0  0  0  0  0  0  0  0  0  0
   -1.1004    3.9940    9.0518 H   0  0  0  0  0  0  0  0  0  0  0  0
   -2.5578    3.4072    8.2995 H   0  0  0  0  0  0  0  0  0  0  0  0
    3.0995    4.3861    4.2534 H   0  0  0  0  0  0  0  0  0  0  0  0
    2.7173    5.4765    5.5357 H   0  0  0  0  0  0  0  0  0  0  0  0
    1.5873    5.2609    4.2166 H   0  0  0  0  0  0  0  0  0  0  0  0
    0.4102    1.8454    4.9808 H   0  0  0  0  0  0  0  0  0  0  0  0
    0.7794    2.9634    3.6760 H   0  0  0  0  0  0  0  0  0  0  0  0
    3.0858    2.3182    3.7876 H   0  0  0  0  0  0  0  0  0  0  0  0
    0.7076   -0.6234    2.2264 H   0  0  0  0  0  0  0  0  0  0  0  0
    0.6066    1.1252    2.2218 H   0  0  0  0  0  0  0  0  0  0  0  0
    0.0912    0.1825    3.6321 H   0  0  0  0  0  0  0  0  0  0  0  0
    3.0474    1.4813    1.7322 H   0  0  0  0  0  0  0  0  0  0  0  0
    4.2589    0.6047    2.5992 H   0  0  0  0  0  0  0  0  0  0  0  0
    2.2976   -0.3749    0.5511 H   0  0  0  0  0  0  0  0  0  0  0  0
    4.0517   -0.8711   -0.4971 H   0  0  0  0  0  0  0  0  0  0  0  0
    2.4479   -2.8012   -0.1225 H   0  0  0  0  0  0  0  0  0  0  0  0
    2.3716   -5.3748   -1.2857 H   0  0  0  0  0  0  0  0  0  0  0  0
    2.6262   -5.6152    3.1082 H   0  0  0  0  0  0  0  0  0  0  0  0
    4.1904   -4.9361    2.7035 H   0  0  0  0  0  0  0  0  0  0  0  0
    1.7544   -3.5271    3.8394 H   0  0  0  0  0  0  0  0  0  0  0  0
    3.2523   -3.7952    4.6837 H   0  0  0  0  0  0  0  0  0  0  0  0
    5.2215   -2.5080    4.3416 H   0  0  0  0  0  0  0  0  0  0  0  0
    5.3199   -1.1531    3.2323 H   0  0  0  0  0  0  0  0  0  0  0  0
    5.3533   -2.7858    2.6305 H   0  0  0  0  0  0  0  0  0  0  0  0
    1.6055   -1.4500    4.3019 H   0  0  0  0  0  0  0  0  0  0  0  0
    2.8489   -1.8873    6.0904 H   0  0  0  0  0  0  0  0  0  0  0  0
    4.2501   -1.0177    5.6068 H   0  0  0  0  0  0  0  0  0  0  0  0
    1.5728    0.1351    6.3956 H   0  0  0  0  0  0  0  0  0  0  0  0
    3.0167    0.1286    7.3938 H   0  0  0  0  0  0  0  0  0  0  0  0
    5.1017    1.4243    6.5967 H   0  0  0  0  0  0  0  0  0  0  0  0
    4.9547    2.5875    5.2842 H   0  0  0  0  0  0  0  0  0  0  0  0
    5.0180    0.8919    4.9181 H   0  0  0  0  0  0  0  0  0  0  0  0
    3.4135    3.4579    6.6163 H   0  0  0  0  0  0  0  0  0  0  0  0
  1  2  2  0
  1 35  1  0
  1 36  1  0
  2  8  1  0
  2  3  1  0
  3  4  1  0
  3 37  1  0
  3 38  1  0
  4 34  1  0
  4  5  1  0
  4 39  1  1
  5  6  1  0
  5 40  1  0
  5 41  1  0
  6  7  1  0
  6 42  1  0
  6 43  1  0
  7  8  1  0
  7 11  1  0
  7 44  1  6
  8  9  1  0
  8 10  1  0
  9 45  1  0
  9 46  1  0
  9 47  1  0
 10 48  1  0
 10 49  1  0
 10 50  1  0
 11 34  1  0
 11 12  1  6
 11 13  1  0
 12 51  1  0
 12 52  1  0
 12 53  1  0
 13 14  1  0
 13 54  1  0
 13 55  1  0
 14 32  1  0
 14 15  1  0
 14 56  1  6
 15 29  1  0
 15 16  1  6
 15 17  1  0
 16 57  1  0
 16 58  1  0
 16 59  1  0
 17 18  1  0
 17 60  1  0
 17 61  1  0
 18 19  1  0
 18 20  1  0
 18 62  1  6
 19 63  1  0
 20 27  1  0
 20 21  2  0
 21 22  1  0
 21 64  1  0
 22 23  2  3
 22 25  1  0
 23 24  1  0
 24 65  1  0
 25 26  1  0
 25 66  1  0
 25 67  1  0
 26 27  1  0
 26 68  1  0
 26 69  1  0
 27 28  1  6
 27 29  1  0
 28 70  1  0
 28 71  1  0
 28 72  1  0
 29 30  1  0
 29 73  1  1
 30 31  1  0
 30 74  1  0
 30 75  1  0
 31 32  1  0
 31 76  1  0
 31 77  1  0
 32 33  1  6
 32 34  1  0
 33 78  1  0
 33 79  1  0
 33 80  1  0
 34 81  1  1
M  END
>  <i_m_ct_stereo_status>  (194) 
1

>  <s_m_source_file>  (194) 
/var/tmp/pbs.5076255.sched01/tmp9rjncpta/544vc0qzzn.sdf

>  <i_m_source_file_index>  (194) 
35

>  <i_lp_mmshare_version>  (194) 
48012

>  <i_f3d_flags>  (194) 
0

>  <s_epik_input>  (194) 
W0NIM11bQ0BAXTEyW0NAQEhdM1tDSDJdW0NIMl1bQ0BASF0oW0NIMl1DKD1bQ0gyXSlDMyhbQ0gzXSlbQ0gzXSlbQ0BIXTJbQ0BdNChbQ0gzXSlbQ0BIXShbQ0gyXTEpW0NAXTUoW0NIM10pW0NASF0oW0NIMl1bQ0gyXTQpW0NAXTYoW0NIM10pQyhbQ0BASF0oW0NIMl01KVtPSF0pPVtDSF0vQyg9Ti9bT0hdKVtDSDJdW0NIMl02

>  <s_epik_cmdline>  (194) 
J2VwaWtfcHl0aG9uJywgJy1waHQnLCAnMi4wJywgJy1waCcsICc3LjAnLCAnLXRuJywgJzgnLCAnLW1hJywgJzIwMCcsICctaW1hZScsICc8aW5maWxlLm1hZT4nLCAnLW9tYWUnLCAnPG91dGZpbGUubWFlPic=

>  <r_lp_tautomer_probability>  (194) 
1

>  <r_epik_Ionization_Penalty>  (194) 
3.07678e-06

>  <r_epik_Ionization_Penalty_Charging>  (194) 
0

>  <r_epik_Ionization_Penalty_Neutral>  (194) 
3.07678e-06

>  <r_epik_State_Penalty>  (194) 
-0

>  <r_epik_Charging_Adjusted_Penalty>  (194) 
0

>  <i_epik_Tot_Q>  (194) 
0

>  <i_epik_Tot_abs_Q>  (194) 
0

>  <s_epik_Chemistry_Notes>  (194) 
This compound has an imine and may undergo hydrolysis.

>  <s_lp_Force_Field>  (194) 
OPLS3e

>  <r_lp_Energy>  (194) 
107.395

>  <b_lp_Chiralities_Consistent>  (194) 
1

>  <s_lp_Variant>  (194) 
58:0-2

>  <s_i_glide_gridfile>  (194) 
pfpi4k_grid

>  <i_i_glide_lignum>  (194) 
35

>  <i_i_glide_rotatable_bonds>  (194) 
2

>  <r_i_docking_score>  (194) 
-3.00096

>  <r_i_glide_ligand_efficiency>  (194) 
-0.0882634

>  <r_i_glide_ligand_efficiency_sa>  (194) 
-0.285939

>  <r_i_glide_ligand_efficiency_ln>  (194) 
-0.662995

>  <r_i_glide_gscore>  (194) 
-3.00096

>  <r_i_glide_lipo>  (194) 
-0.151208

>  <r_i_glide_hbond>  (194) 
-0.32

>  <r_i_glide_metal>  (194) 
-0

>  <r_i_glide_rewards>  (194) 
-0.233793

>  <r_i_glide_evdw>  (194) 
-23.3338

>  <r_i_glide_ecoul>  (194) 
-7.03954

>  <r_i_glide_erotb>  (194) 
0.0929942

>  <r_i_glide_esite>  (194) 
-0.166329

>  <r_i_glide_emodel>  (194) 
-34.7282

>  <r_i_glide_energy>  (194) 
-30.3733

>  <r_i_glide_einternal>  (194) 
2.12893

>  <r_i_glide_intrahb_reward>  (194) 
-0

>  <i_i_glide_confnum>  (194) 
1

>  <i_i_glide_posenum>  (194) 
21

>  <r_i_glide_eff_state_penalty>  (194) 
0

>  <ligand_id>  (194) 
58

>  <original_smiles>  (194) 
C=C1CC2CCC(C1(C)C)C1(C)CC3C4(C)CC(O)C5=CC(=NO)CCC5(C)C4CCC3(C)C21

>  <smiles>  (194) 
[H]ON=C1C([H])=C2C([H])(O[H])C([H])([H])C3(C([H])([H])[H])C([H])(C([H])([H])C([H])([H])C4(C([H])([H])[H])C3([H])C([H])([H])C3(C([H])([H])[H])C5([H])C([H])([H])C([H])([H])C([H])(C([H])([H])C(=C([H])[H])C5(C([H])([H])[H])C([H])([H])[H])C34[H])C2(C([H])([H])[H])C([H])([H])C1([H])[H]

$$$$
58:1:2
     RDKit          3D

 81 86  0  0  1  0  0  0  0  0999 V2000
   -1.8852    0.4447    6.1529 C   0  0  0  0  0  0  0  0  0  0  0  0
   -1.4139    1.4078    6.9587 C   0  0  0  0  0  0  0  0  0  0  0  0
   -0.6757    1.0371    8.2475 C   0  0  0  0  0  0  0  0  0  0  0  0
    0.6636    1.7573    8.5594 C   0  0  2  0  0  0  0  0  0  0  0  0
    0.3664    3.0703    9.3114 C   0  0  0  0  0  0  0  0  0  0  0  0
   -0.0848    4.1943    8.3690 C   0  0  0  0  0  0  0  0  0  0  0  0
   -0.2804    3.7308    6.8931 C   0  0  2  0  0  0  0  0  0  0  0  0
   -1.6096    2.9082    6.6819 C   0  0  0  0  0  0  0  0  0  0  0  0
   -2.1335    3.1791    5.2393 C   0  0  0  0  0  0  0  0  0  0  0  0
   -2.7655    3.3913    7.5909 C   0  0  0  0  0  0  0  0  0  0  0  0
    1.0733    3.0916    6.3723 C   0  0  2  0  0  0  0  0  0  0  0  0
    2.0832    4.2628    6.1714 C   0  0  0  0  0  0  0  0  0  0  0  0
    1.0599    2.2766    5.0573 C   0  0  0  0  0  0  0  0  0  0  0  0
    2.2841    1.3303    5.1003 C   0  0  2  0  0  0  0  0  0  0  0  0
    2.4424    0.2280    3.9561 C   0  0  1  0  0  0  0  0  0  0  0  0
    1.3102    0.4239    2.8998 C   0  0  0  0  0  0  0  0  0  0  0  0
    3.7648    0.5152    3.2324 C   0  0  0  0  0  0  0  0  0  0  0  0
    4.0363   -0.3593    2.0061 C   0  0  1  0  0  0  0  0  0  0  0  0
    5.3980   -0.2648    1.6714 O   0  0  0  0  0  0  0  0  0  0  0  0
    3.6469   -1.8204    2.1882 C   0  0  0  0  0  0  0  0  0  0  0  0
    3.5599   -2.6111    1.1010 C   0  0  0  0  0  0  0  0  0  0  0  0
    3.3060   -4.0794    1.1680 C   0  0  0  0  0  0  0  0  0  0  0  0
    3.1522   -4.8301    0.1614 N   0  0  0  0  0  0  0  0  0  0  0  0
    3.2528   -4.0731   -1.0568 O   0  0  0  0  0  0  0  0  0  0  0  0
    3.2319   -4.6734    2.5653 C   0  0  0  0  0  0  0  0  0  0  0  0
    2.6627   -3.6826    3.5872 C   0  0  0  0  0  0  0  0  0  0  0  0
    3.3618   -2.2907    3.6225 C   0  0  1  0  0  0  0  0  0  0  0  0
    4.7441   -2.4878    4.3033 C   0  0  0  0  0  0  0  0  0  0  0  0
    2.4029   -1.2952    4.4025 C   0  0  1  0  0  0  0  0  0  0  0  0
    2.4059   -1.5472    5.9246 C   0  0  0  0  0  0  0  0  0  0  0  0
    1.6908   -0.4675    6.7301 C   0  0  0  0  0  0  0  0  0  0  0  0
    2.3603    0.9054    6.5835 C   0  0  1  0  0  0  0  0  0  0  0  0
    3.8428    0.8167    7.0403 C   0  0  0  0  0  0  0  0  0  0  0  0
    1.6402    2.0622    7.3773 C   0  0  2  0  0  0  0  0  0  0  0  0
   -2.4551    0.6483    5.2581 H   0  0  0  0  0  0  0  0  0  0  0  0
   -1.7320   -0.5998    6.3724 H   0  0  0  0  0  0  0  0  0  0  0  0
   -1.3603    1.1888    9.0820 H   0  0  0  0  0  0  0  0  0  0  0  0
   -0.4974   -0.0343    8.2481 H   0  0  0  0  0  0  0  0  0  0  0  0
    1.1983    1.1229    9.2700 H   0  0  0  0  0  0  0  0  0  0  0  0
   -0.3823    2.9057   10.0855 H   0  0  0  0  0  0  0  0  0  0  0  0
    1.2584    3.3927    9.8472 H   0  0  0  0  0  0  0  0  0  0  0  0
   -0.9604    4.6929    8.7739 H   0  0  0  0  0  0  0  0  0  0  0  0
    0.6593    4.9820    8.4118 H   0  0  0  0  0  0  0  0  0  0  0  0
   -0.4262    4.6563    6.3334 H   0  0  0  0  0  0  0  0  0  0  0  0
   -2.2479    4.2468    5.0590 H   0  0  0  0  0  0  0  0  0  0  0  0
   -3.1178    2.7440    5.0706 H   0  0  0  0  0  0  0  0  0  0  0  0
   -1.4862    2.8031    4.4501 H   0  0  0  0  0  0  0  0  0  0  0  0
   -2.9184    4.4658    7.4923 H   0  0  0  0  0  0  0  0  0  0  0  0
   -2.6100    3.1856    8.6505 H   0  0  0  0  0  0  0  0  0  0  0  0
   -3.7088    2.9140    7.3196 H   0  0  0  0  0  0  0  0  0  0  0  0
    3.0627    3.9371    5.8253 H   0  0  0  0  0  0  0  0  0  0  0  0
    2.2825    4.8216    7.0851 H   0  0  0  0  0  0  0  0  0  0  0  0
    1.7128    4.9804    5.4372 H   0  0  0  0  0  0  0  0  0  0  0  0
    0.1880    1.6456    5.0037 H   0  0  0  0  0  0  0  0  0  0  0  0
    1.0620    2.9221    4.1800 H   0  0  0  0  0  0  0  0  0  0  0  0
    3.1284    1.9996    4.9710 H   0  0  0  0  0  0  0  0  0  0  0  0
    1.3679   -0.3126    2.0952 H   0  0  0  0  0  0  0  0  0  0  0  0
    1.3593    1.4102    2.4240 H   0  0  0  0  0  0  0  0  0  0  0  0
    0.3134    0.2987    3.3299 H   0  0  0  0  0  0  0  0  0  0  0  0
    3.7440    1.5495    2.9094 H   0  0  0  0  0  0  0  0  0  0  0  0
    4.5873    0.4377    3.9345 H   0  0  0  0  0  0  0  0  0  0  0  0
    3.4640    0.0181    1.1634 H   0  0  0  0  0  0  0  0  0  0  0  0
    5.5279   -0.6828    0.8318 H   0  0  0  0  0  0  0  0  0  0  0  0
    3.7452   -2.2182    0.1049 H   0  0  0  0  0  0  0  0  0  0  0  0
    3.1568   -4.7646   -1.7060 H   0  0  0  0  0  0  0  0  0  0  0  0
    2.6052   -5.5648    2.5342 H   0  0  0  0  0  0  0  0  0  0  0  0
    4.2300   -5.0030    2.8539 H   0  0  0  0  0  0  0  0  0  0  0  0
    1.6111   -3.5591    3.3357 H   0  0  0  0  0  0  0  0  0  0  0  0
    2.6817   -4.1416    4.5728 H   0  0  0  0  0  0  0  0  0  0  0  0
    4.6834   -3.0572    5.2272 H   0  0  0  0  0  0  0  0  0  0  0  0
    5.2463   -1.5491    4.5303 H   0  0  0  0  0  0  0  0  0  0  0  0
    5.4237   -3.0449    3.6574 H   0  0  0  0  0  0  0  0  0  0  0  0
    1.3890   -1.5961    4.1313 H   0  0  0  0  0  0  0  0  0  0  0  0
    1.8735   -2.4774    6.1146 H   0  0  0  0  0  0  0  0  0  0  0  0
    3.3971   -1.7085    6.3391 H   0  0  0  0  0  0  0  0  0  0  0  0
    0.6727   -0.4125    6.3569 H   0  0  0  0  0  0  0  0  0  0  0  0
    1.6409   -0.7598    7.7818 H   0  0  0  0  0  0  0  0  0  0  0  0
    3.9241    0.4166    8.0547 H   0  0  0  0  0  0  0  0  0  0  0  0
    4.3332    1.7925    7.0275 H   0  0  0  0  0  0  0  0  0  0  0  0
    4.4400    0.1818    6.3833 H   0  0  0  0  0  0  0  0  0  0  0  0
    2.4423    2.5869    7.8936 H   0  0  0  0  0  0  0  0  0  0  0  0
  1  2  2  0
  1 35  1  0
  1 36  1  0
  2  8  1  0
  2  3  1  0
  3  4  1  0
  3 37  1  0
  3 38  1  0
  4 34  1  0
  4  5  1  0
  4 39  1  1
  5  6  1  0
  5 40  1  0
  5 41  1  0
  6  7  1  0
  6 42  1  0
  6 43  1  0
  7  8  1  0
  7 11  1  0
  7 44  1  6
  8  9  1  0
  8 10  1  0
  9 45  1  0
  9 46  1  0
  9 47  1  0
 10 48  1  0
 10 49  1  0
 10 50  1  0
 11 34  1  0
 11 12  1  6
 11 13  1  0
 12 51  1  0
 12 52  1  0
 12 53  1  0
 13 14  1  0
 13 54  1  0
 13 55  1  0
 14 32  1  0
 14 15  1  0
 14 56  1  6
 15 29  1  0
 15 16  1  6
 15 17  1  0
 16 57  1  0
 16 58  1  0
 16 59  1  0
 17 18  1  0
 17 60  1  0
 17 61  1  0
 18 19  1  0
 18 20  1  0
 18 62  1  6
 19 63  1  0
 20 27  1  0
 20 21  2  0
 21 22  1  0
 21 64  1  0
 22 23  2  3
 22 25  1  0
 23 24  1  0
 24 65  1  0
 25 26  1  0
 25 66  1  0
 25 67  1  0
 26 27  1  0
 26 68  1  0
 26 69  1  0
 27 28  1  1
 27 29  1  0
 28 70  1  0
 28 71  1  0
 28 72  1  0
 29 30  1  0
 29 73  1  6
 30 31  1  0
 30 74  1  0
 30 75  1  0
 31 32  1  0
 31 76  1  0
 31 77  1  0
 32 33  1  1
 32 34  1  0
 33 78  1  0
 33 79  1  0
 33 80  1  0
 34 81  1  1
M  END
>  <i_m_ct_stereo_status>  (195) 
1

>  <s_m_source_file>  (195) 
/var/tmp/pbs.5076255.sched01/tmp9rjncpta/544vc0qzzn.sdf

>  <i_m_source_file_index>  (195) 
35

>  <i_lp_mmshare_version>  (195) 
48012

>  <i_f3d_flags>  (195) 
0

>  <s_epik_input>  (195) 
W0NIM11bQ0BAXTEyW0NAQEhdM1tDSDJdW0NIMl1bQ0BASF0oW0NIMl1DKD1bQ0gyXSlDMyhbQ0gzXSlbQ0gzXSlbQ0BIXTJbQ0BdNChbQ0gzXSlbQ0BIXShbQ0gyXTEpW0NAXTUoW0NIM10pW0NASF0oW0NIMl1bQ0gyXTQpW0NAXTYoW0NIM10pQyhbQ0BASF0oW0NIMl01KVtPSF0pPVtDSF0vQyg9Ti9bT0hdKVtDSDJdW0NIMl02

>  <s_epik_cmdline>  (195) 
J2VwaWtfcHl0aG9uJywgJy1waHQnLCAnMi4wJywgJy1waCcsICc3LjAnLCAnLXRuJywgJzgnLCAnLW1hJywgJzIwMCcsICctaW1hZScsICc8aW5maWxlLm1hZT4nLCAnLW9tYWUnLCAnPG91dGZpbGUubWFlPic=

>  <r_lp_tautomer_probability>  (195) 
1

>  <r_epik_Ionization_Penalty>  (195) 
3.07678e-06

>  <r_epik_Ionization_Penalty_Charging>  (195) 
0

>  <r_epik_Ionization_Penalty_Neutral>  (195) 
3.07678e-06

>  <r_epik_State_Penalty>  (195) 
-0

>  <r_epik_Charging_Adjusted_Penalty>  (195) 
0

>  <i_epik_Tot_Q>  (195) 
0

>  <i_epik_Tot_abs_Q>  (195) 
0

>  <s_epik_Chemistry_Notes>  (195) 
This compound has an imine and may undergo hydrolysis.

>  <s_lp_Force_Field>  (195) 
OPLS3e

>  <r_lp_Energy>  (195) 
107.395

>  <b_lp_Chiralities_Consistent>  (195) 
1

>  <s_lp_Variant>  (195) 
58:0-2

>  <s_i_glide_gridfile>  (195) 
pfpi4k_grid

>  <i_i_glide_lignum>  (195) 
35

>  <i_i_glide_rotatable_bonds>  (195) 
2

>  <r_i_docking_score>  (195) 
-2.99622

>  <r_i_glide_ligand_efficiency>  (195) 
-0.0881241

>  <r_i_glide_ligand_efficiency_sa>  (195) 
-0.285488

>  <r_i_glide_ligand_efficiency_ln>  (195) 
-0.661949

>  <r_i_glide_gscore>  (195) 
-2.99622

>  <r_i_glide_lipo>  (195) 
-0.275635

>  <r_i_glide_hbond>  (195) 
-0.505954

>  <r_i_glide_metal>  (195) 
-0

>  <r_i_glide_rewards>  (195) 
-0.233793

>  <r_i_glide_evdw>  (195) 
-22.4328

>  <r_i_glide_ecoul>  (195) 
-6.01985

>  <r_i_glide_erotb>  (195) 
0.0929942

>  <r_i_glide_esite>  (195) 
-0.0492144

>  <r_i_glide_emodel>  (195) 
-34.0105

>  <r_i_glide_energy>  (195) 
-28.4526

>  <r_i_glide_einternal>  (195) 
0.360723

>  <r_i_glide_intrahb_reward>  (195) 
-0

>  <i_i_glide_confnum>  (195) 
2

>  <i_i_glide_posenum>  (195) 
19

>  <r_i_glide_eff_state_penalty>  (195) 
0

>  <ligand_id>  (195) 
58

>  <original_smiles>  (195) 
C=C1CC2CCC(C1(C)C)C1(C)CC3C4(C)CC(O)C5=CC(=NO)CCC5(C)C4CCC3(C)C21

>  <smiles>  (195) 
[H]ON=C1C([H])=C2C([H])(O[H])C([H])([H])C3(C([H])([H])[H])C([H])(C([H])([H])C([H])([H])C4(C([H])([H])[H])C3([H])C([H])([H])C3(C([H])([H])[H])C5([H])C([H])([H])C([H])([H])C([H])(C([H])([H])C(=C([H])[H])C5(C([H])([H])[H])C([H])([H])[H])C34[H])C2(C([H])([H])[H])C([H])([H])C1([H])[H]

$$$$
59:0:0
     RDKit          3D

 66 72  0  0  1  0  0  0  0  0999 V2000
   -0.4146   -9.0231    6.3790 C   0  0  0  0  0  0  0  0  0  0  0  0
    1.0537   -9.1312    5.9102 C   0  0  0  0  0  0  0  0  0  0  0  0
    1.8521   -9.3011    7.2422 C   0  0  0  0  0  0  0  0  0  0  0  0
    1.1078  -10.5719    5.1701 C   0  0  1  0  0  0  0  0  0  0  0  0
    0.2256  -10.8089    4.1043 O   0  0  0  0  0  0  0  0  0  0  0  0
    2.3363  -11.5481    5.0550 C   0  0  0  0  0  0  0  0  0  0  0  0
    3.2705  -11.6433    3.7785 C   0  0  0  0  0  0  0  0  0  0  0  0
    4.4359  -10.6057    3.6893 C   0  0  2  0  0  0  0  0  0  0  0  0
    5.3715  -10.9280    4.8606 C   0  0  0  0  0  0  0  0  0  0  0  0
    6.1690   -9.6977    4.8774 C   0  0  2  0  0  0  0  0  0  0  0  0
    5.8879   -8.6759    5.8368 O   0  0  0  0  0  0  0  0  0  0  0  0
    5.2465   -8.5059    4.5354 C   0  0  2  0  0  0  0  0  0  0  0  0
    3.9429   -9.2038    4.0742 C   0  0  1  0  0  0  0  0  0  0  0  0
    2.9014   -8.5054    3.0726 C   0  0  2  0  0  0  0  0  0  0  0  0
    2.3402   -9.3996    1.9283 C   0  0  0  0  0  0  0  0  0  0  0  0
    3.5544   -7.2059    2.6118 C   0  0  1  0  0  0  0  0  0  0  0  0
    4.1417   -7.4235    1.3198 O   0  0  0  0  0  0  0  0  0  0  0  0
    5.3527   -8.0703    1.2876 C   0  0  0  0  0  0  0  0  0  0  0  0
    6.4340   -7.4843    1.3645 O   0  0  0  0  0  0  0  0  0  0  0  0
    5.2904   -9.6165    1.1259 C   0  0  0  0  0  0  0  0  0  0  0  0
    5.4526  -10.5706    2.3925 C   0  0  1  0  0  0  0  0  0  0  0  0
    6.8525  -10.3534    2.7106 O   0  0  0  0  0  0  0  0  0  0  0  0
    7.2788   -9.7670    3.8612 C   0  0  0  0  0  0  0  0  0  0  0  0
    8.4289   -9.3722    4.0578 O   0  0  0  0  0  0  0  0  0  0  0  0
    2.3066   -6.4541    2.8610 C   0  0  1  0  0  0  0  0  0  0  0  0
    1.6723   -5.9219    1.6922 O   0  0  0  0  0  0  0  0  0  0  0  0
    1.6598   -7.6667    3.6264 C   0  0  1  0  0  0  0  0  0  0  0  0
    0.2351   -7.8573    3.0226 C   0  0  0  0  0  0  0  0  0  0  0  0
    1.5220   -7.7302    5.1939 C   0  0  1  0  0  0  0  0  0  0  0  0
    0.8789   -6.4520    5.7479 C   0  0  0  0  0  0  0  0  0  0  0  0
   -0.6049   -6.1867    5.6332 C   0  0  0  0  0  0  0  0  0  0  0  0
    0.3384   -5.3021    4.9014 C   0  0  0  0  0  0  0  0  0  0  0  0
   -0.7466   -9.9026    6.9178 H   0  0  0  0  0  0  0  0  0  0  0  0
   -1.0810   -8.7628    5.5569 H   0  0  0  0  0  0  0  0  0  0  0  0
   -0.5128   -8.2287    7.1159 H   0  0  0  0  0  0  0  0  0  0  0  0
    2.9351   -9.3529    7.1208 H   0  0  0  0  0  0  0  0  0  0  0  0
    1.5667  -10.2103    7.7703 H   0  0  0  0  0  0  0  0  0  0  0  0
    1.6577   -8.4881    7.9388 H   0  0  0  0  0  0  0  0  0  0  0  0
    0.5534  -11.1726    5.8815 H   0  0  0  0  0  0  0  0  0  0  0  0
   -0.6615  -10.8022    4.4493 H   0  0  0  0  0  0  0  0  0  0  0  0
    2.9065  -11.5074    5.9805 H   0  0  0  0  0  0  0  0  0  0  0  0
    1.9012  -12.5550    5.1070 H   0  0  0  0  0  0  0  0  0  0  0  0
    3.7375  -12.6308    3.8108 H   0  0  0  0  0  0  0  0  0  0  0  0
    2.6386  -11.7226    2.8999 H   0  0  0  0  0  0  0  0  0  0  0  0
    4.8920  -11.0203    5.8486 H   0  0  0  0  0  0  0  0  0  0  0  0
    5.9665  -11.8280    4.7106 H   0  0  0  0  0  0  0  0  0  0  0  0
    5.7298   -7.7226    3.9467 H   0  0  0  0  0  0  0  0  0  0  0  0
    3.4439   -9.3551    5.0139 H   0  0  0  0  0  0  0  0  0  0  0  0
    2.0810   -8.8166    1.0435 H   0  0  0  0  0  0  0  0  0  0  0  0
    1.4300   -9.9075    2.2119 H   0  0  0  0  0  0  0  0  0  0  0  0
    2.9489  -10.2167    1.5698 H   0  0  0  0  0  0  0  0  0  0  0  0
    4.2939   -6.7168    3.2330 H   0  0  0  0  0  0  0  0  0  0  0  0
    4.4658   -9.9069    0.4750 H   0  0  0  0  0  0  0  0  0  0  0  0
    6.1516   -9.8441    0.4885 H   0  0  0  0  0  0  0  0  0  0  0  0
    5.4123  -11.5839    2.0047 H   0  0  0  0  0  0  0  0  0  0  0  0
    2.5274   -5.6037    3.5310 H   0  0  0  0  0  0  0  0  0  0  0  0
    1.7180   -6.5990    1.0505 H   0  0  0  0  0  0  0  0  0  0  0  0
   -0.3595   -6.9680    3.1540 H   0  0  0  0  0  0  0  0  0  0  0  0
   -0.3353   -8.6390    3.4842 H   0  0  0  0  0  0  0  0  0  0  0  0
    0.2061   -8.0788    1.9612 H   0  0  0  0  0  0  0  0  0  0  0  0
    2.5413   -7.5738    5.5378 H   0  0  0  0  0  0  0  0  0  0  0  0
    1.3421   -6.1430    6.7037 H   0  0  0  0  0  0  0  0  0  0  0  0
   -1.1832   -6.9435    5.1062 H   0  0  0  0  0  0  0  0  0  0  0  0
   -1.0990   -5.7566    6.4950 H   0  0  0  0  0  0  0  0  0  0  0  0
    0.4806   -4.3088    5.2841 H   0  0  0  0  0  0  0  0  0  0  0  0
    0.3814   -5.3955    3.8111 H   0  0  0  0  0  0  0  0  0  0  0  0
  1  2  1  0
  1 33  1  0
  1 34  1  0
  1 35  1  0
  2 29  1  0
  2  3  1  0
  2  4  1  0
  3 36  1  0
  3 37  1  0
  3 38  1  0
  4  5  1  0
  4  6  1  0
  4 39  1  1
  5 40  1  0
  6  7  1  0
  6 41  1  0
  6 42  1  0
  8  7  1  6
  7 43  1  0
  7 44  1  0
  8 13  1  0
  8 21  1  0
  8  9  1  0
  9 10  1  0
  9 45  1  0
  9 46  1  0
 10 12  1  0
 10 23  1  0
 10 11  1  1
 11 12  1  0
 12 13  1  0
 12 47  1  6
 13 14  1  0
 13 48  1  1
 14 27  1  0
 14 15  1  6
 14 16  1  0
 15 49  1  0
 15 50  1  0
 15 51  1  0
 16 17  1  0
 16 25  1  0
 16 52  1  1
 17 18  1  0
 18 19  2  0
 18 20  1  0
 20 21  1  0
 20 53  1  0
 20 54  1  0
 21 22  1  0
 21 55  1  6
 22 23  1  0
 23 24  2  0
 25 26  1  0
 25 27  1  0
 25 56  1  1
 26 57  1  0
 27 28  1  6
 27 29  1  0
 28 58  1  0
 28 59  1  0
 28 60  1  0
 29 30  1  0
 29 61  1  1
 30 32  1  0
 30 31  1  0
 30 62  1  0
 31 32  1  0
 31 63  1  0
 31 64  1  0
 32 65  1  0
 32 66  1  0
M  END
>  <i_m_ct_stereo_status>  (196) 
1

>  <s_m_source_file>  (196) 
/var/tmp/pbs.5076255.sched01/tmp9rjncpta/544vc0qzzn.sdf

>  <i_m_source_file_index>  (196) 
36

>  <i_lp_mmshare_version>  (196) 
48012

>  <i_f3d_flags>  (196) 
2

>  <s_epik_input>  (196) 
W0NIMl0xW0NIMl1bQ0BIXShbT0hdKUMoW0NIM10pKFtDSDNdKVtDQEhdKFtDSF0yW0NIMl1bQ0gyXTIpW0NAQF0oW0NIM10pKFtDQEBIXTNbT0hdKVtDQEBdNChbQ0gzXSlbQ0BASF0zT0MoPU8pW0NIMl1bQ0BIXTVPQyg9TylbQ0BdKE82KShbQ0gyXTcpW0NAQEhdNltDQEBIXTRbQ0BAXTE1Nw==

>  <s_epik_cmdline>  (196) 
J2VwaWtfcHl0aG9uJywgJy1waHQnLCAnMi4wJywgJy1waCcsICc3LjAnLCAnLXRuJywgJzgnLCAnLW1hJywgJzIwMCcsICctaW1hZScsICc8aW5maWxlLm1hZT4nLCAnLW9tYWUnLCAnPG91dGZpbGUubWFlPic=

>  <r_lp_tautomer_probability>  (196) 
1

>  <r_epik_Ionization_Penalty>  (196) 
1.38107e-06

>  <r_epik_Ionization_Penalty_Charging>  (196) 
0

>  <r_epik_Ionization_Penalty_Neutral>  (196) 
1.38107e-06

>  <r_epik_State_Penalty>  (196) 
-0

>  <r_epik_Charging_Adjusted_Penalty>  (196) 
0

>  <i_epik_Tot_Q>  (196) 
0

>  <i_epik_Tot_abs_Q>  (196) 
0

>  <s_epik_Chemistry_Notes>  (196) 
This compound has an ester and may undergo hydrolysis at high or low pH.

>  <s_lp_Force_Field>  (196) 
OPLS3e

>  <r_lp_Energy>  (196) 
179.373

>  <b_lp_Chiralities_Consistent>  (196) 
0

>  <s_lp_Variant>  (196) 
59:0-1

>  <s_i_glide_gridfile>  (196) 
pfpi4k_grid

>  <i_i_glide_lignum>  (196) 
36

>  <i_i_glide_rotatable_bonds>  (196) 
3

>  <r_i_docking_score>  (196) 
-2.50373

>  <r_i_glide_ligand_efficiency>  (196) 
-0.0782415

>  <r_i_glide_ligand_efficiency_sa>  (196) 
-0.248401

>  <r_i_glide_ligand_efficiency_ln>  (196) 
-0.560653

>  <r_i_glide_gscore>  (196) 
-2.50373

>  <r_i_glide_lipo>  (196) 
-0.0459534

>  <r_i_glide_hbond>  (196) 
-0.16

>  <r_i_glide_metal>  (196) 
-0

>  <r_i_glide_rewards>  (196) 
-0.497736

>  <r_i_glide_evdw>  (196) 
-20.7989

>  <r_i_glide_ecoul>  (196) 
-5.73656

>  <r_i_glide_erotb>  (196) 
0.100391

>  <r_i_glide_esite>  (196) 
0

>  <r_i_glide_emodel>  (196) 
-19.5931

>  <r_i_glide_energy>  (196) 
-26.5355

>  <r_i_glide_einternal>  (196) 
18.4158

>  <r_i_glide_intrahb_reward>  (196) 
-0

>  <i_i_glide_confnum>  (196) 
2

>  <i_i_glide_posenum>  (196) 
21

>  <r_i_glide_eff_state_penalty>  (196) 
0

>  <ligand_id>  (196) 
59

>  <original_smiles>  (196) 
CC1(C)C(O)CCC23CC45OC4C2C2(C)C(OC(=O)CC3OC5=O)C(O)C2(C)C1C1CC1

>  <smiles>  (196) 
[H]OC1([H])C([H])([H])C([H])([H])C23C([H])([H])C45OC4([H])C2([H])C2(C([H])([H])[H])C([H])(OC(=O)C([H])([H])C3([H])OC5=O)C([H])(O[H])C2(C([H])([H])[H])C([H])(C2([H])C([H])([H])C2([H])[H])C1(C([H])([H])[H])C([H])([H])[H]

$$$$
59:0:1
     RDKit          3D

 66 72  0  0  1  0  0  0  0  0999 V2000
   -0.1125   -9.5277    6.7381 C   0  0  0  0  0  0  0  0  0  0  0  0
    1.2668   -9.2819    6.0339 C   0  0  0  0  0  0  0  0  0  0  0  0
    2.2757   -9.2708    7.2277 C   0  0  0  0  0  0  0  0  0  0  0  0
    1.5839  -10.6546    5.2107 C   0  0  1  0  0  0  0  0  0  0  0  0
    0.6640  -11.1220    4.2575 O   0  0  0  0  0  0  0  0  0  0  0  0
    2.9898  -11.3053    4.9059 C   0  0  0  0  0  0  0  0  0  0  0  0
    3.6947  -11.1599    3.4949 C   0  0  0  0  0  0  0  0  0  0  0  0
    4.5255   -9.8542    3.2568 C   0  0  2  0  0  0  0  0  0  0  0  0
    5.6834   -9.9193    4.2617 C   0  0  0  0  0  0  0  0  0  0  0  0
    6.1263   -8.5049    4.1931 C   0  0  2  0  0  0  0  0  0  0  0  0
    5.7561   -7.6038    5.2196 O   0  0  0  0  0  0  0  0  0  0  0  0
    4.8997   -7.6119    4.0642 C   0  0  2  0  0  0  0  0  0  0  0  0
    3.7454   -8.6353    3.7793 C   0  0  1  0  0  0  0  0  0  0  0  0
    2.4060   -8.2174    2.9873 C   0  0  2  0  0  0  0  0  0  0  0  0
    1.9279   -9.2324    1.9079 C   0  0  0  0  0  0  0  0  0  0  0  0
    2.6256   -6.7965    2.4594 C   0  0  1  0  0  0  0  0  0  0  0  0
    3.0454   -6.8411    1.1014 O   0  0  0  0  0  0  0  0  0  0  0  0
    4.3453   -7.1486    0.8645 C   0  0  0  0  0  0  0  0  0  0  0  0
    5.2454   -6.3054    0.7925 O   0  0  0  0  0  0  0  0  0  0  0  0
    4.6431   -8.6528    0.6563 C   0  0  0  0  0  0  0  0  0  0  0  0
    5.2488   -9.5488    1.8243 C   0  0  1  0  0  0  0  0  0  0  0  0
    6.5874   -8.9777    1.9221 O   0  0  0  0  0  0  0  0  0  0  0  0
    7.0221   -8.2928    3.0226 C   0  0  0  0  0  0  0  0  0  0  0  0
    8.0376   -7.5980    3.0551 O   0  0  0  0  0  0  0  0  0  0  0  0
    1.2658   -6.3910    2.9137 C   0  0  1  0  0  0  0  0  0  0  0  0
    0.3329   -6.1600    1.8478 O   0  0  0  0  0  0  0  0  0  0  0  0
    1.1140   -7.7232    3.7561 C   0  0  1  0  0  0  0  0  0  0  0  0
   -0.3107   -8.2938    3.4290 C   0  0  0  0  0  0  0  0  0  0  0  0
    1.2664   -7.8007    5.3304 C   0  0  1  0  0  0  0  0  0  0  0  0
    0.4113   -6.7298    6.0529 C   0  0  0  0  0  0  0  0  0  0  0  0
   -0.5658   -5.8344    5.2984 C   0  0  0  0  0  0  0  0  0  0  0  0
    0.6846   -5.2556    5.8750 C   0  0  0  0  0  0  0  0  0  0  0  0
   -0.1788  -10.5103    7.2105 H   0  0  0  0  0  0  0  0  0  0  0  0
   -0.9421   -9.4536    6.0434 H   0  0  0  0  0  0  0  0  0  0  0  0
   -0.3135   -8.8302    7.5492 H   0  0  0  0  0  0  0  0  0  0  0  0
    3.3011   -9.0414    6.9370 H   0  0  0  0  0  0  0  0  0  0  0  0
    2.3241  -10.2358    7.7398 H   0  0  0  0  0  0  0  0  0  0  0  0
    2.0030   -8.5433    7.9916 H   0  0  0  0  0  0  0  0  0  0  0  0
    1.2859  -11.3595    5.9649 H   0  0  0  0  0  0  0  0  0  0  0  0
    0.6525  -12.0680    4.2846 H   0  0  0  0  0  0  0  0  0  0  0  0
    3.6681  -11.1215    5.7336 H   0  0  0  0  0  0  0  0  0  0  0  0
    2.8341  -12.3846    4.9898 H   0  0  0  0  0  0  0  0  0  0  0  0
    4.4008  -11.9846    3.4018 H   0  0  0  0  0  0  0  0  0  0  0  0
    2.9729  -11.3947    2.7177 H   0  0  0  0  0  0  0  0  0  0  0  0
    5.4123  -10.1200    5.2930 H   0  0  0  0  0  0  0  0  0  0  0  0
    6.4630  -10.6251    3.9747 H   0  0  0  0  0  0  0  0  0  0  0  0
    5.0314   -6.7245    3.4433 H   0  0  0  0  0  0  0  0  0  0  0  0
    3.4706   -8.9071    4.7762 H   0  0  0  0  0  0  0  0  0  0  0  0
    1.4080   -8.7115    1.1032 H   0  0  0  0  0  0  0  0  0  0  0  0
    1.2171   -9.9514    2.2916 H   0  0  0  0  0  0  0  0  0  0  0  0
    2.6575   -9.8661    1.4179 H   0  0  0  0  0  0  0  0  0  0  0  0
    3.2751   -6.1464    3.0141 H   0  0  0  0  0  0  0  0  0  0  0  0
    3.8272   -9.1235    0.1110 H   0  0  0  0  0  0  0  0  0  0  0  0
    5.4139   -8.5590   -0.0948 H   0  0  0  0  0  0  0  0  0  0  0  0
    5.4149  -10.5364    1.3874 H   0  0  0  0  0  0  0  0  0  0  0  0
    1.4237   -5.5072    3.4876 H   0  0  0  0  0  0  0  0  0  0  0  0
    0.2806   -6.9541    1.3052 H   0  0  0  0  0  0  0  0  0  0  0  0
   -1.0702   -7.6179    3.7458 H   0  0  0  0  0  0  0  0  0  0  0  0
   -0.5618   -9.2284    3.8962 H   0  0  0  0  0  0  0  0  0  0  0  0
   -0.4947   -8.4992    2.3697 H   0  0  0  0  0  0  0  0  0  0  0  0
    2.2678   -7.4279    5.5287 H   0  0  0  0  0  0  0  0  0  0  0  0
    0.2432   -6.9805    7.1026 H   0  0  0  0  0  0  0  0  0  0  0  0
   -0.6621   -5.9151    4.2253 H   0  0  0  0  0  0  0  0  0  0  0  0
   -1.5038   -5.7165    5.8336 H   0  0  0  0  0  0  0  0  0  0  0  0
    0.5366   -4.5868    6.7316 H   0  0  0  0  0  0  0  0  0  0  0  0
    1.5412   -5.0369    5.2760 H   0  0  0  0  0  0  0  0  0  0  0  0
  1  2  1  0
  1 33  1  0
  1 34  1  0
  1 35  1  0
  2 29  1  0
  2  3  1  0
  2  4  1  0
  3 36  1  0
  3 37  1  0
  3 38  1  0
  4  5  1  0
  4  6  1  0
  4 39  1  1
  5 40  1  0
  6  7  1  0
  6 41  1  0
  6 42  1  0
  8  7  1  6
  7 43  1  0
  7 44  1  0
  8 13  1  0
  8 21  1  0
  8  9  1  0
  9 10  1  0
  9 45  1  0
  9 46  1  0
 10 12  1  0
 10 23  1  0
 10 11  1  1
 11 12  1  0
 12 13  1  0
 12 47  1  6
 13 14  1  0
 13 48  1  1
 14 27  1  0
 14 15  1  6
 14 16  1  0
 15 49  1  0
 15 50  1  0
 15 51  1  0
 16 17  1  0
 16 25  1  0
 16 52  1  1
 17 18  1  0
 18 19  2  0
 18 20  1  0
 20 21  1  0
 20 53  1  0
 20 54  1  0
 21 22  1  0
 21 55  1  6
 22 23  1  0
 23 24  2  0
 25 26  1  0
 25 27  1  0
 25 56  1  1
 26 57  1  0
 27 28  1  6
 27 29  1  0
 28 58  1  0
 28 59  1  0
 28 60  1  0
 29 30  1  0
 29 61  1  6
 30 32  1  0
 30 31  1  0
 30 62  1  0
 31 32  1  0
 31 63  1  0
 31 64  1  0
 32 65  1  0
 32 66  1  0
M  END
>  <i_m_ct_stereo_status>  (197) 
1

>  <s_m_source_file>  (197) 
/var/tmp/pbs.5076255.sched01/tmp9rjncpta/544vc0qzzn.sdf

>  <i_m_source_file_index>  (197) 
36

>  <i_lp_mmshare_version>  (197) 
48012

>  <i_f3d_flags>  (197) 
2

>  <s_epik_input>  (197) 
W0NIMl0xW0NIMl1bQ0BIXShbT0hdKUMoW0NIM10pKFtDSDNdKVtDQEhdKFtDSF0yW0NIMl1bQ0gyXTIpW0NAQF0oW0NIM10pKFtDQEBIXTNbT0hdKVtDQEBdNChbQ0gzXSlbQ0BASF0zT0MoPU8pW0NIMl1bQ0BIXTVPQyg9TylbQ0BdKE82KShbQ0gyXTcpW0NAQEhdNltDQEBIXTRbQ0BAXTE1Nw==

>  <s_epik_cmdline>  (197) 
J2VwaWtfcHl0aG9uJywgJy1waHQnLCAnMi4wJywgJy1waCcsICc3LjAnLCAnLXRuJywgJzgnLCAnLW1hJywgJzIwMCcsICctaW1hZScsICc8aW5maWxlLm1hZT4nLCAnLW9tYWUnLCAnPG91dGZpbGUubWFlPic=

>  <r_lp_tautomer_probability>  (197) 
1

>  <r_epik_Ionization_Penalty>  (197) 
1.38107e-06

>  <r_epik_Ionization_Penalty_Charging>  (197) 
0

>  <r_epik_Ionization_Penalty_Neutral>  (197) 
1.38107e-06

>  <r_epik_State_Penalty>  (197) 
-0

>  <r_epik_Charging_Adjusted_Penalty>  (197) 
0

>  <i_epik_Tot_Q>  (197) 
0

>  <i_epik_Tot_abs_Q>  (197) 
0

>  <s_epik_Chemistry_Notes>  (197) 
This compound has an ester and may undergo hydrolysis at high or low pH.

>  <s_lp_Force_Field>  (197) 
OPLS3e

>  <r_lp_Energy>  (197) 
179.373

>  <b_lp_Chiralities_Consistent>  (197) 
0

>  <s_lp_Variant>  (197) 
59:0-1

>  <s_i_glide_gridfile>  (197) 
pfpi4k_grid

>  <i_i_glide_lignum>  (197) 
36

>  <i_i_glide_rotatable_bonds>  (197) 
3

>  <r_i_docking_score>  (197) 
-2.157

>  <r_i_glide_ligand_efficiency>  (197) 
-0.0674062

>  <r_i_glide_ligand_efficiency_sa>  (197) 
-0.214001

>  <r_i_glide_ligand_efficiency_ln>  (197) 
-0.48301

>  <r_i_glide_gscore>  (197) 
-2.157

>  <r_i_glide_lipo>  (197) 
-0.070619

>  <r_i_glide_hbond>  (197) 
0

>  <r_i_glide_metal>  (197) 
-0

>  <r_i_glide_rewards>  (197) 
-0.589171

>  <r_i_glide_evdw>  (197) 
-19.1787

>  <r_i_glide_ecoul>  (197) 
-4.25774

>  <r_i_glide_erotb>  (197) 
0.100391

>  <r_i_glide_esite>  (197) 
0

>  <r_i_glide_emodel>  (197) 
-17.2029

>  <r_i_glide_energy>  (197) 
-23.4365

>  <r_i_glide_einternal>  (197) 
17.163

>  <r_i_glide_intrahb_reward>  (197) 
-0

>  <i_i_glide_confnum>  (197) 
2

>  <i_i_glide_posenum>  (197) 
1

>  <r_i_glide_eff_state_penalty>  (197) 
0

>  <ligand_id>  (197) 
59

>  <original_smiles>  (197) 
CC1(C)C(O)CCC23CC45OC4C2C2(C)C(OC(=O)CC3OC5=O)C(O)C2(C)C1C1CC1

>  <smiles>  (197) 
[H]OC1([H])C([H])([H])C([H])([H])C23C([H])([H])C45OC4([H])C2([H])C2(C([H])([H])[H])C([H])(OC(=O)C([H])([H])C3([H])OC5=O)C([H])(O[H])C2(C([H])([H])[H])C([H])(C2([H])C([H])([H])C2([H])[H])C1(C([H])([H])[H])C([H])([H])[H]

$$$$
59:0:2
     RDKit          3D

 66 72  0  0  1  0  0  0  0  0999 V2000
    0.2245   -9.8279    5.6069 C   0  0  0  0  0  0  0  0  0  0  0  0
    1.7067   -9.3887    5.3750 C   0  0  0  0  0  0  0  0  0  0  0  0
    2.2733   -9.2462    6.8241 C   0  0  0  0  0  0  0  0  0  0  0  0
    2.4358  -10.7165    4.7696 C   0  0  1  0  0  0  0  0  0  0  0  0
    1.9143  -11.2566    3.5818 O   0  0  0  0  0  0  0  0  0  0  0  0
    3.9565  -11.1162    4.8927 C   0  0  0  0  0  0  0  0  0  0  0  0
    5.0290  -10.8332    3.7610 C   0  0  0  0  0  0  0  0  0  0  0  0
    5.7011   -9.4239    3.7628 C   0  0  2  0  0  0  0  0  0  0  0  0
    6.4913   -9.3358    5.0733 C   0  0  0  0  0  0  0  0  0  0  0  0
    6.7289   -7.8756    5.1163 C   0  0  2  0  0  0  0  0  0  0  0  0
    5.9381   -7.0531    5.9434 O   0  0  0  0  0  0  0  0  0  0  0  0
    5.4955   -7.1642    4.5816 C   0  0  2  0  0  0  0  0  0  0  0  0
    4.6453   -8.3349    3.9819 C   0  0  1  0  0  0  0  0  0  0  0  0
    3.5832   -8.1023    2.7856 C   0  0  2  0  0  0  0  0  0  0  0  0
    3.6003   -9.1620    1.6474 C   0  0  0  0  0  0  0  0  0  0  0  0
    3.7502   -6.6545    2.3127 C   0  0  1  0  0  0  0  0  0  0  0  0
    4.5870   -6.6373    1.1396 O   0  0  0  0  0  0  0  0  0  0  0  0
    5.9199   -6.7366    1.3397 C   0  0  0  0  0  0  0  0  0  0  0  0
    6.6465   -5.7609    1.5340 O   0  0  0  0  0  0  0  0  0  0  0  0
    6.4849   -8.1788    1.2762 C   0  0  0  0  0  0  0  0  0  0  0  0
    6.7877   -8.9898    2.6154 C   0  0  1  0  0  0  0  0  0  0  0  0
    7.9378   -8.2392    3.1138 O   0  0  0  0  0  0  0  0  0  0  0  0
    7.9075   -7.5092    4.2842 C   0  0  0  0  0  0  0  0  0  0  0  0
    8.7499   -6.6944    4.6101 O   0  0  0  0  0  0  0  0  0  0  0  0
    2.2575   -6.4398    2.3263 C   0  0  1  0  0  0  0  0  0  0  0  0
    1.6657   -6.2744    1.0198 O   0  0  0  0  0  0  0  0  0  0  0  0
    2.0490   -7.8087    3.1000 C   0  0  1  0  0  0  0  0  0  0  0  0
    0.8870   -8.5804    2.3636 C   0  0  0  0  0  0  0  0  0  0  0  0
    1.7183   -7.9042    4.6500 C   0  0  1  0  0  0  0  0  0  0  0  0
    0.5387   -6.9721    5.0425 C   0  0  0  0  0  0  0  0  0  0  0  0
   -0.2858   -6.2247    4.0013 C   0  0  0  0  0  0  0  0  0  0  0  0
    0.6421   -5.4687    4.9379 C   0  0  0  0  0  0  0  0  0  0  0  0
    0.1401  -10.8184    6.0610 H   0  0  0  0  0  0  0  0  0  0  0  0
   -0.3329   -9.8485    4.6762 H   0  0  0  0  0  0  0  0  0  0  0  0
   -0.3298   -9.1911    6.2978 H   0  0  0  0  0  0  0  0  0  0  0  0
    3.2956   -8.8677    6.8562 H   0  0  0  0  0  0  0  0  0  0  0  0
    2.2941  -10.2051    7.3484 H   0  0  0  0  0  0  0  0  0  0  0  0
    1.6728   -8.5772    7.4413 H   0  0  0  0  0  0  0  0  0  0  0  0
    2.0459  -11.4783    5.4503 H   0  0  0  0  0  0  0  0  0  0  0  0
    2.1106  -12.1807    3.5315 H   0  0  0  0  0  0  0  0  0  0  0  0
    4.3142  -10.8517    5.8807 H   0  0  0  0  0  0  0  0  0  0  0  0
    3.9469  -12.2108    4.9456 H   0  0  0  0  0  0  0  0  0  0  0  0
    5.8423  -11.5457    3.9151 H   0  0  0  0  0  0  0  0  0  0  0  0
    4.6311  -11.1552    2.8065 H   0  0  0  0  0  0  0  0  0  0  0  0
    5.9413   -9.5934    5.9789 H   0  0  0  0  0  0  0  0  0  0  0  0
    7.4152   -9.9242    5.0735 H   0  0  0  0  0  0  0  0  0  0  0  0
    5.6828   -6.2609    4.0185 H   0  0  0  0  0  0  0  0  0  0  0  0
    4.1077   -8.6700    4.8472 H   0  0  0  0  0  0  0  0  0  0  0  0
    3.2746   -8.7278    0.7062 H   0  0  0  0  0  0  0  0  0  0  0  0
    2.9166   -9.9854    1.8247 H   0  0  0  0  0  0  0  0  0  0  0  0
    4.5272   -9.6645    1.4293 H   0  0  0  0  0  0  0  0  0  0  0  0
    4.0885   -5.9244    3.0396 H   0  0  0  0  0  0  0  0  0  0  0  0
    5.9301   -8.7411    0.5403 H   0  0  0  0  0  0  0  0  0  0  0  0
    7.4526   -8.0466    0.8000 H   0  0  0  0  0  0  0  0  0  0  0  0
    7.2177   -9.9326    2.2858 H   0  0  0  0  0  0  0  0  0  0  0  0
    2.1287   -5.5605    2.9020 H   0  0  0  0  0  0  0  0  0  0  0  0
    2.0044   -6.9657    0.4361 H   0  0  0  0  0  0  0  0  0  0  0  0
   -0.0235   -8.0321    2.4084 H   0  0  0  0  0  0  0  0  0  0  0  0
    0.6483   -9.5574    2.7637 H   0  0  0  0  0  0  0  0  0  0  0  0
    1.0920   -8.7551    1.3063 H   0  0  0  0  0  0  0  0  0  0  0  0
    2.5352   -7.3924    5.1528 H   0  0  0  0  0  0  0  0  0  0  0  0
    0.0700   -7.2527    5.9959 H   0  0  0  0  0  0  0  0  0  0  0  0
   -0.0323   -6.2721    2.9491 H   0  0  0  0  0  0  0  0  0  0  0  0
   -1.3622   -6.2652    4.2271 H   0  0  0  0  0  0  0  0  0  0  0  0
    0.1120   -4.8316    5.6764 H   0  0  0  0  0  0  0  0  0  0  0  0
    1.6088   -5.1220    4.6177 H   0  0  0  0  0  0  0  0  0  0  0  0
  1  2  1  0
  1 33  1  0
  1 34  1  0
  1 35  1  0
  2 29  1  0
  2  3  1  0
  2  4  1  0
  3 36  1  0
  3 37  1  0
  3 38  1  0
  4  5  1  0
  4  6  1  0
  4 39  1  1
  5 40  1  0
  6  7  1  0
  6 41  1  0
  6 42  1  0
  8  7  1  6
  7 43  1  0
  7 44  1  0
  8 13  1  0
  8 21  1  0
  8  9  1  0
  9 10  1  0
  9 45  1  0
  9 46  1  0
 10 12  1  0
 10 23  1  0
 10 11  1  1
 11 12  1  0
 12 13  1  0
 12 47  1  6
 13 14  1  0
 13 48  1  1
 14 27  1  0
 14 15  1  6
 14 16  1  0
 15 49  1  0
 15 50  1  0
 15 51  1  0
 16 17  1  0
 16 25  1  0
 16 52  1  1
 17 18  1  0
 18 19  2  0
 18 20  1  0
 20 21  1  0
 20 53  1  0
 20 54  1  0
 21 22  1  0
 21 55  1  6
 22 23  1  0
 23 24  2  0
 25 26  1  0
 25 27  1  0
 25 56  1  1
 26 57  1  0
 27 28  1  6
 27 29  1  0
 28 58  1  0
 28 59  1  0
 28 60  1  0
 29 30  1  0
 29 61  1  1
 30 32  1  0
 30 31  1  0
 30 62  1  0
 31 32  1  0
 31 63  1  0
 31 64  1  0
 32 65  1  0
 32 66  1  0
M  END
>  <i_m_ct_stereo_status>  (198) 
1

>  <s_m_source_file>  (198) 
/var/tmp/pbs.5076255.sched01/tmp9rjncpta/544vc0qzzn.sdf

>  <i_m_source_file_index>  (198) 
36

>  <i_lp_mmshare_version>  (198) 
48012

>  <i_f3d_flags>  (198) 
2

>  <s_epik_input>  (198) 
W0NIMl0xW0NIMl1bQ0BIXShbT0hdKUMoW0NIM10pKFtDSDNdKVtDQEhdKFtDSF0yW0NIMl1bQ0gyXTIpW0NAQF0oW0NIM10pKFtDQEBIXTNbT0hdKVtDQEBdNChbQ0gzXSlbQ0BASF0zT0MoPU8pW0NIMl1bQ0BIXTVPQyg9TylbQ0BdKE82KShbQ0gyXTcpW0NAQEhdNltDQEBIXTRbQ0BAXTE1Nw==

>  <s_epik_cmdline>  (198) 
J2VwaWtfcHl0aG9uJywgJy1waHQnLCAnMi4wJywgJy1waCcsICc3LjAnLCAnLXRuJywgJzgnLCAnLW1hJywgJzIwMCcsICctaW1hZScsICc8aW5maWxlLm1hZT4nLCAnLW9tYWUnLCAnPG91dGZpbGUubWFlPic=

>  <r_lp_tautomer_probability>  (198) 
1

>  <r_epik_Ionization_Penalty>  (198) 
1.38107e-06

>  <r_epik_Ionization_Penalty_Charging>  (198) 
0

>  <r_epik_Ionization_Penalty_Neutral>  (198) 
1.38107e-06

>  <r_epik_State_Penalty>  (198) 
-0

>  <r_epik_Charging_Adjusted_Penalty>  (198) 
0

>  <i_epik_Tot_Q>  (198) 
0

>  <i_epik_Tot_abs_Q>  (198) 
0

>  <s_epik_Chemistry_Notes>  (198) 
This compound has an ester and may undergo hydrolysis at high or low pH.

>  <s_lp_Force_Field>  (198) 
OPLS3e

>  <r_lp_Energy>  (198) 
179.373

>  <b_lp_Chiralities_Consistent>  (198) 
0

>  <s_lp_Variant>  (198) 
59:0-1

>  <s_i_glide_gridfile>  (198) 
pfpi4k_grid

>  <i_i_glide_lignum>  (198) 
36

>  <i_i_glide_rotatable_bonds>  (198) 
3

>  <r_i_docking_score>  (198) 
-1.97538

>  <r_i_glide_ligand_efficiency>  (198) 
-0.0617306

>  <r_i_glide_ligand_efficiency_sa>  (198) 
-0.195982

>  <r_i_glide_ligand_efficiency_ln>  (198) 
-0.442341

>  <r_i_glide_gscore>  (198) 
-1.97538

>  <r_i_glide_lipo>  (198) 
-0.188657

>  <r_i_glide_hbond>  (198) 
0

>  <r_i_glide_metal>  (198) 
-0

>  <r_i_glide_rewards>  (198) 
-0.497833

>  <r_i_glide_evdw>  (198) 
-22.2248

>  <r_i_glide_ecoul>  (198) 
-1.8472

>  <r_i_glide_erotb>  (198) 
0.100391

>  <r_i_glide_esite>  (198) 
-0.000959931

>  <r_i_glide_emodel>  (198) 
-16.9025

>  <r_i_glide_energy>  (198) 
-24.072

>  <r_i_glide_einternal>  (198) 
18.1569

>  <r_i_glide_intrahb_reward>  (198) 
-0

>  <i_i_glide_confnum>  (198) 
4

>  <i_i_glide_posenum>  (198) 
28

>  <r_i_glide_eff_state_penalty>  (198) 
0

>  <ligand_id>  (198) 
59

>  <original_smiles>  (198) 
CC1(C)C(O)CCC23CC45OC4C2C2(C)C(OC(=O)CC3OC5=O)C(O)C2(C)C1C1CC1

>  <smiles>  (198) 
[H]OC1([H])C([H])([H])C([H])([H])C23C([H])([H])C45OC4([H])C2([H])C2(C([H])([H])[H])C([H])(OC(=O)C([H])([H])C3([H])OC5=O)C([H])(O[H])C2(C([H])([H])[H])C([H])(C2([H])C([H])([H])C2([H])[H])C1(C([H])([H])[H])C([H])([H])[H]

$$$$
60:1:0
     RDKit          3D

 41 43  0  0  1  0  0  0  0  0999 V2000
    1.5534   -2.7135   -4.3095 C   0  0  0  0  0  0  0  0  0  0  0  0
    2.9150   -2.3595   -3.8695 N   0  0  2  0  0  0  0  0  0  0  0  0
    3.6032   -3.5461   -3.2649 C   0  0  0  0  0  0  0  0  0  0  0  0
    5.0429   -3.2476   -2.8205 C   0  0  0  0  0  0  0  0  0  0  0  0
    4.9777   -2.1172   -1.7563 C   0  0  2  0  0  0  0  0  0  0  0  0
    4.3200   -0.8769   -2.4314 C   0  0  0  0  0  0  0  0  0  0  0  0
    2.9175   -1.1876   -2.9597 C   0  0  0  0  0  0  0  0  0  0  0  0
    6.2798   -1.7893   -1.3657 O   0  0  0  0  0  0  0  0  0  0  0  0
    6.1759   -1.2060   -0.1042 C   0  0  1  0  0  0  0  0  0  0  0  0
    4.9253   -1.4581    0.4503 O   0  0  0  0  0  0  0  0  0  0  0  0
    4.3708   -2.4503   -0.3656 C   0  0  2  0  0  0  0  0  0  0  0  0
    4.6691   -3.8532    0.2181 C   0  0  0  0  0  0  0  0  0  0  0  0
    5.7539   -3.9306    1.2119 N   0  0  1  0  0  0  0  0  0  0  0  0
    5.8592   -5.3075    1.7053 C   0  0  0  0  0  0  0  0  0  0  0  0
    7.0651   -3.4136    0.7449 C   0  0  0  0  0  0  0  0  0  0  0  0
    7.1979   -1.8719    0.8075 C   0  0  1  0  0  0  0  0  0  0  0  0
    8.4940   -1.4458    0.4994 O   0  0  0  0  0  0  0  0  0  0  0  0
    1.0290   -3.0420   -3.4379 H   0  0  0  0  0  0  0  0  0  0  0  0
    1.5490   -3.5543   -5.0276 H   0  0  0  0  0  0  0  0  0  0  0  0
    0.9807   -1.8753   -4.7188 H   0  0  0  0  0  0  0  0  0  0  0  0
    3.0265   -3.8517   -2.3913 H   0  0  0  0  0  0  0  0  0  0  0  0
    3.6073   -4.3630   -3.9801 H   0  0  0  0  0  0  0  0  0  0  0  0
    5.5659   -4.1538   -2.5082 H   0  0  0  0  0  0  0  0  0  0  0  0
    5.6156   -2.9325   -3.6887 H   0  0  0  0  0  0  0  0  0  0  0  0
    4.2788   -0.0082   -1.7640 H   0  0  0  0  0  0  0  0  0  0  0  0
    4.9251   -0.5540   -3.2755 H   0  0  0  0  0  0  0  0  0  0  0  0
    2.5209   -0.2925   -3.4436 H   0  0  0  0  0  0  0  0  0  0  0  0
    2.2440   -1.4328   -2.1437 H   0  0  0  0  0  0  0  0  0  0  0  0
    6.3001   -0.1229   -0.1527 H   0  0  0  0  0  0  0  0  0  0  0  0
    3.2955   -2.3492   -0.3155 H   0  0  0  0  0  0  0  0  0  0  0  0
    3.7476   -4.1184    0.7402 H   0  0  0  0  0  0  0  0  0  0  0  0
    4.7611   -4.6215   -0.5416 H   0  0  0  0  0  0  0  0  0  0  0  0
    6.2049   -5.9757    0.9138 H   0  0  0  0  0  0  0  0  0  0  0  0
    4.8866   -5.6833    2.0321 H   0  0  0  0  0  0  0  0  0  0  0  0
    6.5491   -5.3951    2.5464 H   0  0  0  0  0  0  0  0  0  0  0  0
    7.8250   -3.7817    1.4382 H   0  0  0  0  0  0  0  0  0  0  0  0
    7.3487   -3.8013   -0.2363 H   0  0  0  0  0  0  0  0  0  0  0  0
    6.9846   -1.5032    1.8000 H   0  0  0  0  0  0  0  0  0  0  0  0
    8.6367   -0.6009    0.8562 H   0  0  0  0  0  0  0  0  0  0  0  0
    3.4525   -2.0773   -4.6749 H   0  0  0  0  0  0  0  0  0  0  0  0
    5.4620   -3.3362    1.9953 H   0  0  0  0  0  0  0  0  0  0  0  0
  1  2  1  0
  1 18  1  0
  1 19  1  0
  1 20  1  0
  2  7  1  0
  2  3  1  0
  2 40  1  6
  3  4  1  0
  3 21  1  0
  3 22  1  0
  4  5  1  0
  4 23  1  0
  4 24  1  0
  5 11  1  0
  5  6  1  0
  5  8  1  1
  6  7  1  0
  6 25  1  0
  6 26  1  0
  7 27  1  0
  7 28  1  0
  8  9  1  0
  9 16  1  0
  9 10  1  0
  9 29  1  6
 10 11  1  0
 11 12  1  0
 11 30  1  6
 12 13  1  0
 12 31  1  0
 12 32  1  0
 13 14  1  0
 13 15  1  0
 13 41  1  1
 14 33  1  0
 14 34  1  0
 14 35  1  0
 15 16  1  0
 15 36  1  0
 15 37  1  0
 16 17  1  0
 16 38  1  1
 17 39  1  0
M  CHG  2   2   1  13   1
M  END
>  <i_m_ct_stereo_status>  (199) 
1

>  <s_m_source_file>  (199) 
/var/tmp/pbs.5076255.sched01/tmp9rjncpta/544vc0qzzn.sdf

>  <i_m_source_file_index>  (199) 
38

>  <i_lp_mmshare_version>  (199) 
48012

>  <i_f3d_flags>  (199) 
0

>  <s_epik_input>  (199) 
W0NIMl0xW0NIMl1OKFtDSDNdKVtDSDJdW0NIMl1DMTJbQ0BASF0zT1tDQEhdKE8yKVtDQEhdKFtPSF0pW0NIMl1OKFtDSDJdMylbQ0gzXQ==

>  <s_epik_cmdline>  (199) 
J2VwaWtfcHl0aG9uJywgJy1waHQnLCAnMi4wJywgJy1waCcsICc3LjAnLCAnLXRuJywgJzgnLCAnLW1hJywgJzIwMCcsICctaW1hZScsICc8aW5maWxlLm1hZT4nLCAnLW9tYWUnLCAnPG91dGZpbGUubWFlPic=

>  <r_epik_Ionization_Penalty>  (199) 
0.269001

>  <r_epik_Ionization_Penalty_Charging>  (199) 
0.268981

>  <r_epik_Ionization_Penalty_Neutral>  (199) 
1.98842e-05

>  <r_epik_State_Penalty>  (199) 
0.260338

>  <r_epik_Charging_Adjusted_Penalty>  (199) 
0.529319

>  <i_epik_Tot_Q>  (199) 
2

>  <i_epik_Tot_abs_Q>  (199) 
2

>  <s_epik_Chemistry_Notes>  (199) 
This compound contains an acetal/aminal-like group ( X-CH(R)-Y where X, Y are N, S, or O) that may be acid/base labile, releasing an aldehyde.

>  <s_lp_Force_Field>  (199) 
OPLS3e

>  <r_lp_Energy>  (199) 
46.3046

>  <b_lp_Chiralities_Consistent>  (199) 
1

>  <s_lp_Variant>  (199) 
60:0-2

>  <s_i_glide_gridfile>  (199) 
pfpi4k_grid

>  <i_i_glide_lignum>  (199) 
38

>  <i_i_glide_rotatable_bonds>  (199) 
1

>  <r_i_docking_score>  (199) 
-4.11558

>  <r_i_glide_ligand_efficiency>  (199) 
-0.242093

>  <r_i_glide_ligand_efficiency_sa>  (199) 
-0.62249

>  <r_i_glide_ligand_efficiency_ln>  (199) 
-1.07366

>  <r_i_glide_gscore>  (199) 
-4.11558

>  <r_i_glide_lipo>  (199) 
-0.466096

>  <r_i_glide_hbond>  (199) 
-0.145517

>  <r_i_glide_metal>  (199) 
-0

>  <r_i_glide_rewards>  (199) 
-1.7432

>  <r_i_glide_evdw>  (199) 
-10.5086

>  <r_i_glide_ecoul>  (199) 
-8.07961

>  <r_i_glide_erotb>  (199) 
0

>  <r_i_glide_esite>  (199) 
-0.0233986

>  <r_i_glide_emodel>  (199) 
-22.8025

>  <r_i_glide_energy>  (199) 
-18.5882

>  <r_i_glide_einternal>  (199) 
0.630624

>  <r_i_glide_intrahb_reward>  (199) 
-0

>  <i_i_glide_confnum>  (199) 
1

>  <i_i_glide_posenum>  (199) 
12

>  <r_i_glide_eff_state_penalty>  (199) 
0

>  <ligand_id>  (199) 
60

>  <original_smiles>  (199) 
CN1CCC2(CC1)OC1OC2CN(C)CC1O

>  <smiles>  (199) 
[H]OC1([H])C2([H])OC([H])(C3(O2)C([H])([H])C([H])([H])[N+]([H])(C([H])([H])[H])C([H])([H])C3([H])[H])C([H])([H])[N+]([H])(C([H])([H])[H])C1([H])[H]

$$$$
60:1:1
     RDKit          3D

 41 43  0  0  1  0  0  0  0  0999 V2000
    1.8962   -2.7500   -4.1364 C   0  0  0  0  0  0  0  0  0  0  0  0
    2.6182   -3.4580   -3.0862 N   0  0  2  0  0  0  0  0  0  0  0  0
    2.1303   -3.1409   -1.7268 C   0  0  0  0  0  0  0  0  0  0  0  0
    2.8277   -3.9994   -0.6568 C   0  0  0  0  0  0  0  0  0  0  0  0
    4.3554   -3.7590   -0.7786 C   0  0  2  0  0  0  0  0  0  0  0  0
    4.8614   -4.0887   -2.2115 C   0  0  0  0  0  0  0  0  0  0  0  0
    4.0812   -3.3059   -3.2735 C   0  0  0  0  0  0  0  0  0  0  0  0
    5.0309   -4.5908    0.1265 O   0  0  0  0  0  0  0  0  0  0  0  0
    6.2325   -3.9435    0.3995 C   0  0  1  0  0  0  0  0  0  0  0  0
    6.2100   -2.6406   -0.1010 O   0  0  0  0  0  0  0  0  0  0  0  0
    4.8542   -2.3654   -0.3519 C   0  0  2  0  0  0  0  0  0  0  0  0
    4.1726   -1.6765    0.8475 C   0  0  0  0  0  0  0  0  0  0  0  0
    4.8759   -1.7845    2.1434 N   0  0  1  0  0  0  0  0  0  0  0  0
    4.1171   -1.0351    3.1693 C   0  0  0  0  0  0  0  0  0  0  0  0
    5.1617   -3.1775    2.5872 C   0  0  0  0  0  0  0  0  0  0  0  0
    6.3817   -3.8314    1.9028 C   0  0  1  0  0  0  0  0  0  0  0  0
    6.6860   -5.0806    2.4738 O   0  0  0  0  0  0  0  0  0  0  0  0
    2.0645   -1.6678   -4.1257 H   0  0  0  0  0  0  0  0  0  0  0  0
    0.8305   -2.9371   -4.1599 H   0  0  0  0  0  0  0  0  0  0  0  0
    2.3361   -3.1837   -5.0278 H   0  0  0  0  0  0  0  0  0  0  0  0
    2.3593   -2.0943   -1.5447 H   0  0  0  0  0  0  0  0  0  0  0  0
    1.0476   -3.2715   -1.6844 H   0  0  0  0  0  0  0  0  0  0  0  0
    2.4242   -3.7994    0.3365 H   0  0  0  0  0  0  0  0  0  0  0  0
    2.5795   -5.0566   -0.7439 H   0  0  0  0  0  0  0  0  0  0  0  0
    5.9354   -3.9307   -2.3440 H   0  0  0  0  0  0  0  0  0  0  0  0
    4.7600   -5.1467   -2.3904 H   0  0  0  0  0  0  0  0  0  0  0  0
    4.3714   -3.6819   -4.2607 H   0  0  0  0  0  0  0  0  0  0  0  0
    4.3597   -2.2443   -3.2615 H   0  0  0  0  0  0  0  0  0  0  0  0
    7.0766   -4.4803   -0.0594 H   0  0  0  0  0  0  0  0  0  0  0  0
    4.8014   -1.6515   -1.1670 H   0  0  0  0  0  0  0  0  0  0  0  0
    4.1541   -0.6171    0.5854 H   0  0  0  0  0  0  0  0  0  0  0  0
    3.1238   -1.9399    0.9484 H   0  0  0  0  0  0  0  0  0  0  0  0
    3.1648   -1.5269    3.3658 H   0  0  0  0  0  0  0  0  0  0  0  0
    3.8983   -0.0224    2.8266 H   0  0  0  0  0  0  0  0  0  0  0  0
    4.6674   -0.9643    4.1035 H   0  0  0  0  0  0  0  0  0  0  0  0
    5.4311   -3.1240    3.6420 H   0  0  0  0  0  0  0  0  0  0  0  0
    4.2791   -3.8190    2.5255 H   0  0  0  0  0  0  0  0  0  0  0  0
    7.2495   -3.1932    2.0105 H   0  0  0  0  0  0  0  0  0  0  0  0
    5.9679   -5.6810    2.3140 H   0  0  0  0  0  0  0  0  0  0  0  0
    2.4105   -4.4578   -3.2009 H   0  0  0  0  0  0  0  0  0  0  0  0
    5.7708   -1.3161    2.0248 H   0  0  0  0  0  0  0  0  0  0  0  0
  1  2  1  0
  1 18  1  0
  1 19  1  0
  1 20  1  0
  2  7  1  0
  2  3  1  0
  2 40  1  6
  3  4  1  0
  3 21  1  0
  3 22  1  0
  4  5  1  0
  4 23  1  0
  4 24  1  0
  5 11  1  0
  5  6  1  0
  5  8  1  1
  6  7  1  0
  6 25  1  0
  6 26  1  0
  7 27  1  0
  7 28  1  0
  8  9  1  0
  9 16  1  0
  9 10  1  0
  9 29  1  6
 10 11  1  0
 11 12  1  0
 11 30  1  6
 12 13  1  0
 12 31  1  0
 12 32  1  0
 13 14  1  0
 13 15  1  0
 13 41  1  6
 14 33  1  0
 14 34  1  0
 14 35  1  0
 15 16  1  0
 15 36  1  0
 15 37  1  0
 16 17  1  0
 16 38  1  6
 17 39  1  0
M  CHG  2   2   1  13   1
M  END
>  <i_m_ct_stereo_status>  (200) 
1

>  <s_m_source_file>  (200) 
/var/tmp/pbs.5076255.sched01/tmp9rjncpta/544vc0qzzn.sdf

>  <i_m_source_file_index>  (200) 
38

>  <i_lp_mmshare_version>  (200) 
48012

>  <i_f3d_flags>  (200) 
0

>  <s_epik_input>  (200) 
W0NIMl0xW0NIMl1OKFtDSDNdKVtDSDJdW0NIMl1DMTJbQ0BASF0zT1tDQEhdKE8yKVtDQEhdKFtPSF0pW0NIMl1OKFtDSDJdMylbQ0gzXQ==

>  <s_epik_cmdline>  (200) 
J2VwaWtfcHl0aG9uJywgJy1waHQnLCAnMi4wJywgJy1waCcsICc3LjAnLCAnLXRuJywgJzgnLCAnLW1hJywgJzIwMCcsICctaW1hZScsICc8aW5maWxlLm1hZT4nLCAnLW9tYWUnLCAnPG91dGZpbGUubWFlPic=

>  <r_epik_Ionization_Penalty>  (200) 
0.269001

>  <r_epik_Ionization_Penalty_Charging>  (200) 
0.268981

>  <r_epik_Ionization_Penalty_Neutral>  (200) 
1.98842e-05

>  <r_epik_State_Penalty>  (200) 
0.260338

>  <r_epik_Charging_Adjusted_Penalty>  (200) 
0.529319

>  <i_epik_Tot_Q>  (200) 
2

>  <i_epik_Tot_abs_Q>  (200) 
2

>  <s_epik_Chemistry_Notes>  (200) 
This compound contains an acetal/aminal-like group ( X-CH(R)-Y where X, Y are N, S, or O) that may be acid/base labile, releasing an aldehyde.

>  <s_lp_Force_Field>  (200) 
OPLS3e

>  <r_lp_Energy>  (200) 
46.3046

>  <b_lp_Chiralities_Consistent>  (200) 
1

>  <s_lp_Variant>  (200) 
60:0-2

>  <s_i_glide_gridfile>  (200) 
pfpi4k_grid

>  <i_i_glide_lignum>  (200) 
38

>  <i_i_glide_rotatable_bonds>  (200) 
1

>  <r_i_docking_score>  (200) 
-3.65288

>  <r_i_glide_ligand_efficiency>  (200) 
-0.214875

>  <r_i_glide_ligand_efficiency_sa>  (200) 
-0.552504

>  <r_i_glide_ligand_efficiency_ln>  (200) 
-0.952954

>  <r_i_glide_gscore>  (200) 
-3.65288

>  <r_i_glide_lipo>  (200) 
-0.369352

>  <r_i_glide_hbond>  (200) 
0

>  <r_i_glide_metal>  (200) 
-0

>  <r_i_glide_rewards>  (200) 
-1.87191

>  <r_i_glide_evdw>  (200) 
-3.86681

>  <r_i_glide_ecoul>  (200) 
-8.1218

>  <r_i_glide_erotb>  (200) 
0

>  <r_i_glide_esite>  (200) 
0

>  <r_i_glide_emodel>  (200) 
-15.6684

>  <r_i_glide_energy>  (200) 
-11.9886

>  <r_i_glide_einternal>  (200) 
0.0033475

>  <r_i_glide_intrahb_reward>  (200) 
-0

>  <i_i_glide_confnum>  (200) 
2

>  <i_i_glide_posenum>  (200) 
1

>  <r_i_glide_eff_state_penalty>  (200) 
0

>  <ligand_id>  (200) 
60

>  <original_smiles>  (200) 
CN1CCC2(CC1)OC1OC2CN(C)CC1O

>  <smiles>  (200) 
[H]OC1([H])C2([H])OC([H])(C3(O2)C([H])([H])C([H])([H])[N+]([H])(C([H])([H])[H])C([H])([H])C3([H])[H])C([H])([H])[N+]([H])(C([H])([H])[H])C1([H])[H]

$$$$
60:3:0
     RDKit          3D

 40 42  0  0  1  0  0  0  0  0999 V2000
    1.6546   -2.8840   -3.8755 C   0  0  0  0  0  0  0  0  0  0  0  0
    2.7370   -3.4578   -3.0699 N   0  0  2  0  0  0  0  0  0  0  0  0
    2.6924   -2.9797   -1.6640 C   0  0  0  0  0  0  0  0  0  0  0  0
    3.7736   -3.6939   -0.8329 C   0  0  0  0  0  0  0  0  0  0  0  0
    5.1523   -3.3905   -1.4686 C   0  0  2  0  0  0  0  0  0  0  0  0
    5.1792   -3.8937   -2.9245 C   0  0  0  0  0  0  0  0  0  0  0  0
    4.0421   -3.2706   -3.7427 C   0  0  0  0  0  0  0  0  0  0  0  0
    6.1027   -4.1219   -0.7381 O   0  0  0  0  0  0  0  0  0  0  0  0
    7.2828   -3.3809   -0.8198 C   0  0  1  0  0  0  0  0  0  0  0  0
    7.0610   -2.1512   -1.4224 O   0  0  0  0  0  0  0  0  0  0  0  0
    5.6751   -1.9309   -1.3601 C   0  0  2  0  0  0  0  0  0  0  0  0
    5.2409   -1.1349   -0.1090 C   0  0  0  0  0  0  0  0  0  0  0  0
    6.1471   -1.1734    1.0476 N   0  0  0  0  0  0  0  0  0  0  0  0
    5.4501   -0.5420    2.1485 C   0  0  0  0  0  0  0  0  0  0  0  0
    6.5511   -2.5331    1.4305 C   0  0  0  0  0  0  0  0  0  0  0  0
    7.7497   -3.0987    0.6049 C   0  0  1  0  0  0  0  0  0  0  0  0
    8.3290   -4.2541    1.1703 O   0  0  0  0  0  0  0  0  0  0  0  0
    1.8427   -1.8244   -4.1077 H   0  0  0  0  0  0  0  0  0  0  0  0
    0.7316   -3.0478   -3.3294 H   0  0  0  0  0  0  0  0  0  0  0  0
    1.5787   -3.4748   -4.7897 H   0  0  0  0  0  0  0  0  0  0  0  0
    2.8559   -1.9034   -1.6237 H   0  0  0  0  0  0  0  0  0  0  0  0
    1.7122   -3.1509   -1.2251 H   0  0  0  0  0  0  0  0  0  0  0  0
    3.6958   -3.4452    0.2352 H   0  0  0  0  0  0  0  0  0  0  0  0
    3.5855   -4.7700   -0.8476 H   0  0  0  0  0  0  0  0  0  0  0  0
    6.1429   -3.7236   -3.4235 H   0  0  0  0  0  0  0  0  0  0  0  0
    5.0425   -4.9723   -2.9312 H   0  0  0  0  0  0  0  0  0  0  0  0
    4.0178   -3.7733   -4.7127 H   0  0  0  0  0  0  0  0  0  0  0  0
    4.2374   -2.2092   -3.9355 H   0  0  0  0  0  0  0  0  0  0  0  0
    8.0515   -3.9182   -1.3975 H   0  0  0  0  0  0  0  0  0  0  0  0
    5.4752   -1.2830   -2.2206 H   0  0  0  0  0  0  0  0  0  0  0  0
    5.2640   -0.1047   -0.4559 H   0  0  0  0  0  0  0  0  0  0  0  0
    4.2041   -1.3009    0.1756 H   0  0  0  0  0  0  0  0  0  0  0  0
    6.1144   -0.4604    3.0142 H   0  0  0  0  0  0  0  0  0  0  0  0
    4.5764   -1.1360    2.4247 H   0  0  0  0  0  0  0  0  0  0  0  0
    5.1073    0.4586    1.8789 H   0  0  0  0  0  0  0  0  0  0  0  0
    6.8492   -2.5011    2.4770 H   0  0  0  0  0  0  0  0  0  0  0  0
    5.6731   -3.2007    1.3930 H   0  0  0  0  0  0  0  0  0  0  0  0
    8.5382   -2.3491    0.5124 H   0  0  0  0  0  0  0  0  0  0  0  0
    7.6413   -4.8888    1.3011 H   0  0  0  0  0  0  0  0  0  0  0  0
    2.5696   -4.4524   -3.0306 H   0  0  0  0  0  0  0  0  0  0  0  0
  1  2  1  0
  1 18  1  0
  1 19  1  0
  1 20  1  0
  2  7  1  0
  2  3  1  0
  2 40  1  1
  3  4  1  0
  3 21  1  0
  3 22  1  0
  4  5  1  0
  4 23  1  0
  4 24  1  0
  5 11  1  0
  5  6  1  0
  5  8  1  1
  6  7  1  0
  6 25  1  0
  6 26  1  0
  7 27  1  0
  7 28  1  0
  8  9  1  0
  9 16  1  0
  9 10  1  0
  9 29  1  6
 10 11  1  0
 11 12  1  0
 11 30  1  6
 12 13  1  0
 12 31  1  0
 12 32  1  0
 13 14  1  0
 13 15  1  0
 14 33  1  0
 14 34  1  0
 14 35  1  0
 15 16  1  0
 15 36  1  0
 15 37  1  0
 16 17  1  0
 16 38  1  6
 17 39  1  0
M  CHG  1   2   1
M  END
>  <i_m_ct_stereo_status>  (201) 
1

>  <s_m_source_file>  (201) 
/var/tmp/pbs.5076255.sched01/tmp9rjncpta/544vc0qzzn.sdf

>  <i_m_source_file_index>  (201) 
40

>  <i_lp_mmshare_version>  (201) 
48012

>  <i_f3d_flags>  (201) 
0

>  <s_epik_input>  (201) 
W0NIMl0xW0NIMl1OKFtDSDNdKVtDSDJdW0NIMl1DMTJbQ0BASF0zT1tDQEhdKE8yKVtDQEhdKFtPSF0pW0NIMl1OKFtDSDJdMylbQ0gzXQ==

>  <s_epik_cmdline>  (201) 
J2VwaWtfcHl0aG9uJywgJy1waHQnLCAnMi4wJywgJy1waCcsICc3LjAnLCAnLXRuJywgJzgnLCAnLW1hJywgJzIwMCcsICctaW1hZScsICc8aW5maWxlLm1hZT4nLCAnLW9tYWUnLCAnPG91dGZpbGUubWFlPic=

>  <r_epik_Ionization_Penalty>  (201) 
0.666863

>  <r_epik_Ionization_Penalty_Charging>  (201) 
0.0129281

>  <r_epik_Ionization_Penalty_Neutral>  (201) 
0.653935

>  <r_epik_State_Penalty>  (201) 
0.668471

>  <r_epik_Charging_Adjusted_Penalty>  (201) 
0.681399

>  <i_epik_Tot_Q>  (201) 
1

>  <i_epik_Tot_abs_Q>  (201) 
1

>  <s_epik_Chemistry_Notes>  (201) 
This compound contains an acetal/aminal-like group ( X-CH(R)-Y where X, Y are N, S, or O) that may be acid/base labile, releasing an aldehyde.

>  <s_lp_Force_Field>  (201) 
OPLS3e

>  <r_lp_Energy>  (201) 
36.4351

>  <b_lp_Chiralities_Consistent>  (201) 
1

>  <s_lp_Variant>  (201) 
60:0-4

>  <s_i_glide_gridfile>  (201) 
pfpi4k_grid

>  <i_i_glide_lignum>  (201) 
40

>  <i_i_glide_rotatable_bonds>  (201) 
1

>  <r_i_docking_score>  (201) 
-4.59416

>  <r_i_glide_ligand_efficiency>  (201) 
-0.270245

>  <r_i_glide_ligand_efficiency_sa>  (201) 
-0.694875

>  <r_i_glide_ligand_efficiency_ln>  (201) 
-1.19851

>  <r_i_glide_gscore>  (201) 
-4.59416

>  <r_i_glide_lipo>  (201) 
-0.698341

>  <r_i_glide_hbond>  (201) 
-0.16

>  <r_i_glide_metal>  (201) 
-0

>  <r_i_glide_rewards>  (201) 
-1.96671

>  <r_i_glide_evdw>  (201) 
-10.3711

>  <r_i_glide_ecoul>  (201) 
-8.33705

>  <r_i_glide_erotb>  (201) 
0

>  <r_i_glide_esite>  (201) 
0

>  <r_i_glide_emodel>  (201) 
-26.0985

>  <r_i_glide_energy>  (201) 
-18.7082

>  <r_i_glide_einternal>  (201) 
0.0542831

>  <r_i_glide_intrahb_reward>  (201) 
-0

>  <i_i_glide_confnum>  (201) 
2

>  <i_i_glide_posenum>  (201) 
37

>  <r_i_glide_eff_state_penalty>  (201) 
0

>  <ligand_id>  (201) 
60

>  <original_smiles>  (201) 
CN1CCC2(CC1)OC1OC2CN(C)CC1O

>  <smiles>  (201) 
[H]OC1([H])C2([H])OC([H])(C([H])([H])N(C([H])([H])[H])C1([H])[H])C1(O2)C([H])([H])C([H])([H])[N+]([H])(C([H])([H])[H])C([H])([H])C1([H])[H]

$$$$
60:3:1
     RDKit          3D

 40 42  0  0  1  0  0  0  0  0999 V2000
    1.7779    0.7639    3.4891 C   0  0  0  0  0  0  0  0  0  0  0  0
    3.0360    0.4879    2.7307 N   0  0  2  0  0  0  0  0  0  0  0  0
    2.7638    0.1848    1.3001 C   0  0  0  0  0  0  0  0  0  0  0  0
    4.0791   -0.0189    0.5194 C   0  0  0  0  0  0  0  0  0  0  0  0
    4.8872   -1.1700    1.1367 C   0  0  2  0  0  0  0  0  0  0  0  0
    5.1602   -0.8349    2.6176 C   0  0  0  0  0  0  0  0  0  0  0  0
    3.8492   -0.5687    3.3912 C   0  0  0  0  0  0  0  0  0  0  0  0
    6.1173   -1.2757    0.4700 O   0  0  0  0  0  0  0  0  0  0  0  0
    6.4485   -2.6242    0.4471 C   0  0  1  0  0  0  0  0  0  0  0  0
    5.4264   -3.3779    0.9990 O   0  0  0  0  0  0  0  0  0  0  0  0
    4.2742   -2.5771    0.9169 C   0  0  2  0  0  0  0  0  0  0  0  0
    3.4744   -2.8185   -0.3923 C   0  0  0  0  0  0  0  0  0  0  0  0
    4.1678   -3.3349   -1.5753 N   0  0  0  0  0  0  0  0  0  0  0  0
    3.2500   -3.3020   -2.7052 C   0  0  0  0  0  0  0  0  0  0  0  0
    5.4284   -2.6602   -1.8981 C   0  0  0  0  0  0  0  0  0  0  0  0
    6.6074   -3.0855   -1.0007 C   0  0  1  0  0  0  0  0  0  0  0  0
    7.8375   -2.6448   -1.5372 O   0  0  0  0  0  0  0  0  0  0  0  0
    1.1083   -0.0920    3.4474 H   0  0  0  0  0  0  0  0  0  0  0  0
    1.2551    1.6252    3.0792 H   0  0  0  0  0  0  0  0  0  0  0  0
    1.9918    0.9718    4.5357 H   0  0  0  0  0  0  0  0  0  0  0  0
    2.1499   -0.7121    1.2184 H   0  0  0  0  0  0  0  0  0  0  0  0
    2.1744    0.9932    0.8857 H   0  0  0  0  0  0  0  0  0  0  0  0
    3.9417   -0.2524   -0.5349 H   0  0  0  0  0  0  0  0  0  0  0  0
    4.6529    0.9033    0.5435 H   0  0  0  0  0  0  0  0  0  0  0  0
    5.7356   -1.6274    3.1004 H   0  0  0  0  0  0  0  0  0  0  0  0
    5.7887    0.0507    2.6762 H   0  0  0  0  0  0  0  0  0  0  0  0
    4.0946   -0.2799    4.4177 H   0  0  0  0  0  0  0  0  0  0  0  0
    3.2657   -1.4926    3.4648 H   0  0  0  0  0  0  0  0  0  0  0  0
    7.3514   -2.7922    1.0287 H   0  0  0  0  0  0  0  0  0  0  0  0
    3.6152   -2.8776    1.7356 H   0  0  0  0  0  0  0  0  0  0  0  0
    2.7483   -3.5899   -0.1150 H   0  0  0  0  0  0  0  0  0  0  0  0
    2.8323   -1.9732   -0.6543 H   0  0  0  0  0  0  0  0  0  0  0  0
    3.6928   -3.7728   -3.5756 H   0  0  0  0  0  0  0  0  0  0  0  0
    2.9930   -2.2735   -2.9533 H   0  0  0  0  0  0  0  0  0  0  0  0
    2.3270   -3.8325   -2.4722 H   0  0  0  0  0  0  0  0  0  0  0  0
    5.7019   -2.9209   -2.9142 H   0  0  0  0  0  0  0  0  0  0  0  0
    5.2846   -1.5727   -1.8882 H   0  0  0  0  0  0  0  0  0  0  0  0
    6.6362   -4.1744   -0.9608 H   0  0  0  0  0  0  0  0  0  0  0  0
    7.9882   -3.0534   -2.3776 H   0  0  0  0  0  0  0  0  0  0  0  0
    3.5818    1.3316    2.7425 H   0  0  0  0  0  0  0  0  0  0  0  0
  1  2  1  0
  1 18  1  0
  1 19  1  0
  1 20  1  0
  2  7  1  0
  2  3  1  0
  2 40  1  6
  3  4  1  0
  3 21  1  0
  3 22  1  0
  4  5  1  0
  4 23  1  0
  4 24  1  0
  5 11  1  0
  5  6  1  0
  5  8  1  6
  6  7  1  0
  6 25  1  0
  6 26  1  0
  7 27  1  0
  7 28  1  0
  8  9  1  0
  9 16  1  0
  9 10  1  0
  9 29  1  1
 10 11  1  0
 11 12  1  0
 11 30  1  1
 12 13  1  0
 12 31  1  0
 12 32  1  0
 13 14  1  0
 13 15  1  0
 14 33  1  0
 14 34  1  0
 14 35  1  0
 15 16  1  0
 15 36  1  0
 15 37  1  0
 16 17  1  0
 16 38  1  1
 17 39  1  0
M  CHG  1   2   1
M  END
>  <i_m_ct_stereo_status>  (202) 
1

>  <s_m_source_file>  (202) 
/var/tmp/pbs.5076255.sched01/tmp9rjncpta/544vc0qzzn.sdf

>  <i_m_source_file_index>  (202) 
40

>  <i_lp_mmshare_version>  (202) 
48012

>  <i_f3d_flags>  (202) 
0

>  <s_epik_input>  (202) 
W0NIMl0xW0NIMl1OKFtDSDNdKVtDSDJdW0NIMl1DMTJbQ0BASF0zT1tDQEhdKE8yKVtDQEhdKFtPSF0pW0NIMl1OKFtDSDJdMylbQ0gzXQ==

>  <s_epik_cmdline>  (202) 
J2VwaWtfcHl0aG9uJywgJy1waHQnLCAnMi4wJywgJy1waCcsICc3LjAnLCAnLXRuJywgJzgnLCAnLW1hJywgJzIwMCcsICctaW1hZScsICc8aW5maWxlLm1hZT4nLCAnLW9tYWUnLCAnPG91dGZpbGUubWFlPic=

>  <r_epik_Ionization_Penalty>  (202) 
0.666863

>  <r_epik_Ionization_Penalty_Charging>  (202) 
0.0129281

>  <r_epik_Ionization_Penalty_Neutral>  (202) 
0.653935

>  <r_epik_State_Penalty>  (202) 
0.668471

>  <r_epik_Charging_Adjusted_Penalty>  (202) 
0.681399

>  <i_epik_Tot_Q>  (202) 
1

>  <i_epik_Tot_abs_Q>  (202) 
1

>  <s_epik_Chemistry_Notes>  (202) 
This compound contains an acetal/aminal-like group ( X-CH(R)-Y where X, Y are N, S, or O) that may be acid/base labile, releasing an aldehyde.

>  <s_lp_Force_Field>  (202) 
OPLS3e

>  <r_lp_Energy>  (202) 
36.4351

>  <b_lp_Chiralities_Consistent>  (202) 
1

>  <s_lp_Variant>  (202) 
60:0-4

>  <s_i_glide_gridfile>  (202) 
pfpi4k_grid

>  <i_i_glide_lignum>  (202) 
40

>  <i_i_glide_rotatable_bonds>  (202) 
1

>  <r_i_docking_score>  (202) 
-4.05803

>  <r_i_glide_ligand_efficiency>  (202) 
-0.238708

>  <r_i_glide_ligand_efficiency_sa>  (202) 
-0.613784

>  <r_i_glide_ligand_efficiency_ln>  (202) 
-1.05865

>  <r_i_glide_gscore>  (202) 
-4.05803

>  <r_i_glide_lipo>  (202) 
-0.37446

>  <r_i_glide_hbond>  (202) 
0

>  <r_i_glide_metal>  (202) 
-0

>  <r_i_glide_rewards>  (202) 
-1.8668

>  <r_i_glide_evdw>  (202) 
-16.2988

>  <r_i_glide_ecoul>  (202) 
-6.67886

>  <r_i_glide_erotb>  (202) 
0

>  <r_i_glide_esite>  (202) 
0

>  <r_i_glide_emodel>  (202) 
-29.5458

>  <r_i_glide_energy>  (202) 
-22.9776

>  <r_i_glide_einternal>  (202) 
0.362337

>  <r_i_glide_intrahb_reward>  (202) 
-0

>  <i_i_glide_confnum>  (202) 
1

>  <i_i_glide_posenum>  (202) 
1

>  <r_i_glide_eff_state_penalty>  (202) 
0

>  <ligand_id>  (202) 
60

>  <original_smiles>  (202) 
CN1CCC2(CC1)OC1OC2CN(C)CC1O

>  <smiles>  (202) 
[H]OC1([H])C2([H])OC([H])(C([H])([H])N(C([H])([H])[H])C1([H])[H])C1(O2)C([H])([H])C([H])([H])[N+]([H])(C([H])([H])[H])C([H])([H])C1([H])[H]

$$$$
60:3:2
     RDKit          3D

 40 42  0  0  1  0  0  0  0  0999 V2000
    3.6030    0.1995    1.2694 C   0  0  0  0  0  0  0  0  0  0  0  0
    2.7061    0.1392    2.4491 N   0  0  2  0  0  0  0  0  0  0  0  0
    1.2796    0.3976    2.0861 C   0  0  0  0  0  0  0  0  0  0  0  0
    0.3664    0.2206    3.3108 C   0  0  0  0  0  0  0  0  0  0  0  0
    0.7964    1.2140    4.4256 C   0  0  2  0  0  0  0  0  0  0  0  0
    2.2747    0.9263    4.7853 C   0  0  0  0  0  0  0  0  0  0  0  0
    3.1838    1.0254    3.5452 C   0  0  0  0  0  0  0  0  0  0  0  0
    0.0199    1.0027    5.5869 O   0  0  0  0  0  0  0  0  0  0  0  0
   -0.1473    2.2273    6.2162 C   0  0  1  0  0  0  0  0  0  0  0  0
    0.4371    3.2215    5.4464 O   0  0  0  0  0  0  0  0  0  0  0  0
    0.5313    2.7126    4.1417 C   0  0  2  0  0  0  0  0  0  0  0  0
   -0.7086    3.0817    3.2960 C   0  0  0  0  0  0  0  0  0  0  0  0
   -1.9890    3.3525    3.9340 N   0  0  0  0  0  0  0  0  0  0  0  0
   -3.0077    3.4490    2.8924 C   0  0  0  0  0  0  0  0  0  0  0  0
   -2.3602    2.3839    4.9634 C   0  0  0  0  0  0  0  0  0  0  0  0
   -1.6351    2.5542    6.3119 C   0  0  1  0  0  0  0  0  0  0  0  0
   -2.2600    1.8035    7.3340 O   0  0  0  0  0  0  0  0  0  0  0  0
    3.5605    1.2060    0.8766 H   0  0  0  0  0  0  0  0  0  0  0  0
    3.3063   -0.5106    0.5019 H   0  0  0  0  0  0  0  0  0  0  0  0
    4.6353    0.0034    1.5376 H   0  0  0  0  0  0  0  0  0  0  0  0
    1.1646    1.4076    1.6903 H   0  0  0  0  0  0  0  0  0  0  0  0
    0.9569   -0.2744    1.2966 H   0  0  0  0  0  0  0  0  0  0  0  0
   -0.6930    0.3351    3.0483 H   0  0  0  0  0  0  0  0  0  0  0  0
    0.4391   -0.8018    3.6846 H   0  0  0  0  0  0  0  0  0  0  0  0
    2.6272    1.5822    5.5727 H   0  0  0  0  0  0  0  0  0  0  0  0
    2.3478   -0.0775    5.1942 H   0  0  0  0  0  0  0  0  0  0  0  0
    4.2049    0.7467    3.8340 H   0  0  0  0  0  0  0  0  0  0  0  0
    3.2363    2.0663    3.2032 H   0  0  0  0  0  0  0  0  0  0  0  0
    0.3489    2.2125    7.1814 H   0  0  0  0  0  0  0  0  0  0  0  0
    1.3816    3.2025    3.6669 H   0  0  0  0  0  0  0  0  0  0  0  0
   -0.4124    4.0434    2.8786 H   0  0  0  0  0  0  0  0  0  0  0  0
   -0.8327    2.4049    2.4419 H   0  0  0  0  0  0  0  0  0  0  0  0
   -3.9802    3.7473    3.2773 H   0  0  0  0  0  0  0  0  0  0  0  0
   -3.0998    2.4933    2.3795 H   0  0  0  0  0  0  0  0  0  0  0  0
   -2.7329    4.1994    2.1531 H   0  0  0  0  0  0  0  0  0  0  0  0
   -3.3998    2.5405    5.1803 H   0  0  0  0  0  0  0  0  0  0  0  0
   -2.2527    1.3712    4.5651 H   0  0  0  0  0  0  0  0  0  0  0  0
   -1.7096    3.5973    6.6092 H   0  0  0  0  0  0  0  0  0  0  0  0
   -1.9729    2.1576    8.1697 H   0  0  0  0  0  0  0  0  0  0  0  0
    2.7384   -0.8063    2.7954 H   0  0  0  0  0  0  0  0  0  0  0  0
  1  2  1  0
  1 18  1  0
  1 19  1  0
  1 20  1  0
  2  7  1  0
  2  3  1  0
  2 40  1  1
  3  4  1  0
  3 21  1  0
  3 22  1  0
  4  5  1  0
  4 23  1  0
  4 24  1  0
  5 11  1  0
  5  6  1  0
  5  8  1  1
  6  7  1  0
  6 25  1  0
  6 26  1  0
  7 27  1  0
  7 28  1  0
  8  9  1  0
  9 16  1  0
  9 10  1  0
  9 29  1  1
 10 11  1  0
 11 12  1  0
 11 30  1  6
 12 13  1  0
 12 31  1  0
 12 32  1  0
 13 14  1  0
 13 15  1  0
 14 33  1  0
 14 34  1  0
 14 35  1  0
 15 16  1  0
 15 36  1  0
 15 37  1  0
 16 17  1  0
 16 38  1  1
 17 39  1  0
M  CHG  1   2   1
M  END
>  <i_m_ct_stereo_status>  (203) 
1

>  <s_m_source_file>  (203) 
/var/tmp/pbs.5076255.sched01/tmp9rjncpta/544vc0qzzn.sdf

>  <i_m_source_file_index>  (203) 
40

>  <i_lp_mmshare_version>  (203) 
48012

>  <i_f3d_flags>  (203) 
0

>  <s_epik_input>  (203) 
W0NIMl0xW0NIMl1OKFtDSDNdKVtDSDJdW0NIMl1DMTJbQ0BASF0zT1tDQEhdKE8yKVtDQEhdKFtPSF0pW0NIMl1OKFtDSDJdMylbQ0gzXQ==

>  <s_epik_cmdline>  (203) 
J2VwaWtfcHl0aG9uJywgJy1waHQnLCAnMi4wJywgJy1waCcsICc3LjAnLCAnLXRuJywgJzgnLCAnLW1hJywgJzIwMCcsICctaW1hZScsICc8aW5maWxlLm1hZT4nLCAnLW9tYWUnLCAnPG91dGZpbGUubWFlPic=

>  <r_epik_Ionization_Penalty>  (203) 
0.666863

>  <r_epik_Ionization_Penalty_Charging>  (203) 
0.0129281

>  <r_epik_Ionization_Penalty_Neutral>  (203) 
0.653935

>  <r_epik_State_Penalty>  (203) 
0.668471

>  <r_epik_Charging_Adjusted_Penalty>  (203) 
0.681399

>  <i_epik_Tot_Q>  (203) 
1

>  <i_epik_Tot_abs_Q>  (203) 
1

>  <s_epik_Chemistry_Notes>  (203) 
This compound contains an acetal/aminal-like group ( X-CH(R)-Y where X, Y are N, S, or O) that may be acid/base labile, releasing an aldehyde.

>  <s_lp_Force_Field>  (203) 
OPLS3e

>  <r_lp_Energy>  (203) 
36.4351

>  <b_lp_Chiralities_Consistent>  (203) 
1

>  <s_lp_Variant>  (203) 
60:0-4

>  <s_i_glide_gridfile>  (203) 
pfpi4k_grid

>  <i_i_glide_lignum>  (203) 
40

>  <i_i_glide_rotatable_bonds>  (203) 
1

>  <r_i_docking_score>  (203) 
-3.48384

>  <r_i_glide_ligand_efficiency>  (203) 
-0.204932

>  <r_i_glide_ligand_efficiency_sa>  (203) 
-0.526938

>  <r_i_glide_ligand_efficiency_ln>  (203) 
-0.908857

>  <r_i_glide_gscore>  (203) 
-3.48384

>  <r_i_glide_lipo>  (203) 
-0.0748446

>  <r_i_glide_hbond>  (203) 
0

>  <r_i_glide_metal>  (203) 
-0

>  <r_i_glide_rewards>  (203) 
-1.75007

>  <r_i_glide_evdw>  (203) 
-13.1975

>  <r_i_glide_ecoul>  (203) 
-6.63656

>  <r_i_glide_erotb>  (203) 
0

>  <r_i_glide_esite>  (203) 
-0.0035669

>  <r_i_glide_emodel>  (203) 
-25.3146

>  <r_i_glide_energy>  (203) 
-19.834

>  <r_i_glide_einternal>  (203) 
0.523759

>  <r_i_glide_intrahb_reward>  (203) 
-0

>  <i_i_glide_confnum>  (203) 
2

>  <i_i_glide_posenum>  (203) 
15

>  <r_i_glide_eff_state_penalty>  (203) 
0

>  <ligand_id>  (203) 
60

>  <original_smiles>  (203) 
CN1CCC2(CC1)OC1OC2CN(C)CC1O

>  <smiles>  (203) 
[H]OC1([H])C2([H])OC([H])(C([H])([H])N(C([H])([H])[H])C1([H])[H])C1(O2)C([H])([H])C([H])([H])[N+]([H])(C([H])([H])[H])C([H])([H])C1([H])[H]

$$$$
60:4:0
     RDKit          3D

 40 42  0  0  1  0  0  0  0  0999 V2000
    1.7196   -2.7094   -4.1471 C   0  0  0  0  0  0  0  0  0  0  0  0
    3.0608   -2.3175   -3.7525 N   0  0  0  0  0  0  0  0  0  0  0  0
    2.9481   -1.2029   -2.8218 C   0  0  0  0  0  0  0  0  0  0  0  0
    4.3279   -0.8280   -2.2693 C   0  0  0  0  0  0  0  0  0  0  0  0
    4.9943   -2.0321   -1.5740 C   0  0  0  0  0  0  0  0  0  0  0  0
    5.0590   -3.1761   -2.6108 C   0  0  0  0  0  0  0  0  0  0  0  0
    3.6387   -3.4771   -3.0851 C   0  0  0  0  0  0  0  0  0  0  0  0
    6.2949   -1.6492   -1.2431 O   0  0  0  0  0  0  0  0  0  0  0  0
    6.2362   -1.1002    0.0269 C   0  0  1  0  0  0  0  0  0  0  0  0
    4.9979   -1.3300    0.6143 O   0  0  0  0  0  0  0  0  0  0  0  0
    4.4109   -2.3318   -0.1757 C   0  0  2  0  0  0  0  0  0  0  0  0
    4.6756   -3.7152    0.4524 C   0  0  0  0  0  0  0  0  0  0  0  0
    5.8300   -3.8180    1.3897 N   0  0  1  0  0  0  0  0  0  0  0  0
    5.9379   -5.2000    1.9113 C   0  0  0  0  0  0  0  0  0  0  0  0
    7.1212   -3.3395    0.8390 C   0  0  0  0  0  0  0  0  0  0  0  0
    7.2661   -1.7980    0.8625 C   0  0  1  0  0  0  0  0  0  0  0  0
    8.5690   -1.4640    0.4723 O   0  0  0  0  0  0  0  0  0  0  0  0
    1.2021   -1.8851   -4.6294 H   0  0  0  0  0  0  0  0  0  0  0  0
    1.1128   -3.0504   -3.3006 H   0  0  0  0  0  0  0  0  0  0  0  0
    1.7762   -3.5108   -4.8810 H   0  0  0  0  0  0  0  0  0  0  0  0
    2.5112   -0.3384   -3.3212 H   0  0  0  0  0  0  0  0  0  0  0  0
    2.2799   -1.5103   -2.0233 H   0  0  0  0  0  0  0  0  0  0  0  0
    4.9407   -0.5009   -3.1107 H   0  0  0  0  0  0  0  0  0  0  0  0
    4.2497    0.0367   -1.6051 H   0  0  0  0  0  0  0  0  0  0  0  0
    5.6459   -2.8527   -3.4765 H   0  0  0  0  0  0  0  0  0  0  0  0
    5.5652   -4.0823   -2.2691 H   0  0  0  0  0  0  0  0  0  0  0  0
    3.0014   -3.7931   -2.2563 H   0  0  0  0  0  0  0  0  0  0  0  0
    3.6722   -4.2722   -3.8197 H   0  0  0  0  0  0  0  0  0  0  0  0
    6.3964   -0.0199    0.0154 H   0  0  0  0  0  0  0  0  0  0  0  0
    3.3371   -2.1715   -0.1535 H   0  0  0  0  0  0  0  0  0  0  0  0
    3.7902   -3.9366    1.0479 H   0  0  0  0  0  0  0  0  0  0  0  0
    4.7104   -4.5131   -0.2913 H   0  0  0  0  0  0  0  0  0  0  0  0
    6.2239   -5.8811    1.1126 H   0  0  0  0  0  0  0  0  0  0  0  0
    4.9848   -5.5411    2.2999 H   0  0  0  0  0  0  0  0  0  0  0  0
    6.6753   -5.2811    2.7054 H   0  0  0  0  0  0  0  0  0  0  0  0
    7.9084   -3.7225    1.4836 H   0  0  0  0  0  0  0  0  0  0  0  0
    7.3442   -3.7614   -0.1483 H   0  0  0  0  0  0  0  0  0  0  0  0
    7.0599   -1.3923    1.8527 H   0  0  0  0  0  0  0  0  0  0  0  0
    8.7785   -0.5882    0.7871 H   0  0  0  0  0  0  0  0  0  0  0  0
    5.6117   -3.2109    2.1788 H   0  0  0  0  0  0  0  0  0  0  0  0
  1  2  1  0
  1 18  1  0
  1 19  1  0
  1 20  1  0
  2  7  1  0
  2  3  1  0
  3  4  1  0
  3 21  1  0
  3 22  1  0
  4  5  1  0
  4 23  1  0
  4 24  1  0
  5 11  1  0
  5  6  1  0
  5  8  1  0
  6  7  1  0
  6 25  1  0
  6 26  1  0
  7 27  1  0
  7 28  1  0
  8  9  1  0
  9 16  1  0
  9 10  1  0
  9 29  1  6
 10 11  1  0
 11 12  1  0
 11 30  1  6
 12 13  1  0
 12 31  1  0
 12 32  1  0
 13 14  1  0
 13 15  1  0
 13 40  1  1
 14 33  1  0
 14 34  1  0
 14 35  1  0
 15 16  1  0
 15 36  1  0
 15 37  1  0
 16 17  1  0
 16 38  1  1
 17 39  1  0
M  CHG  1  13   1
M  END
>  <i_m_ct_stereo_status>  (204) 
1

>  <s_m_source_file>  (204) 
/var/tmp/pbs.5076255.sched01/tmp9rjncpta/544vc0qzzn.sdf

>  <i_m_source_file_index>  (204) 
41

>  <i_lp_mmshare_version>  (204) 
48012

>  <i_f3d_flags>  (204) 
0

>  <s_epik_input>  (204) 
W0NIMl0xW0NIMl1OKFtDSDNdKVtDSDJdW0NIMl1DMTJbQ0BASF0zT1tDQEhdKE8yKVtDQEhdKFtPSF0pW0NIMl1OKFtDSDJdMylbQ0gzXQ==

>  <s_epik_cmdline>  (204) 
J2VwaWtfcHl0aG9uJywgJy1waHQnLCAnMi4wJywgJy1waCcsICc3LjAnLCAnLXRuJywgJzgnLCAnLW1hJywgJzIwMCcsICctaW1hZScsICc8aW5maWxlLm1hZT4nLCAnLW9tYWUnLCAnPG91dGZpbGUubWFlPic=

>  <r_epik_Ionization_Penalty>  (204) 
1.91478

>  <r_epik_Ionization_Penalty_Charging>  (204) 
0.137218

>  <r_epik_Ionization_Penalty_Neutral>  (204) 
1.77756

>  <r_epik_State_Penalty>  (204) 
2.15977

>  <r_epik_Charging_Adjusted_Penalty>  (204) 
2.29699

>  <i_epik_Tot_Q>  (204) 
1

>  <i_epik_Tot_abs_Q>  (204) 
1

>  <s_epik_Chemistry_Notes>  (204) 
This compound contains an acetal/aminal-like group ( X-CH(R)-Y where X, Y are N, S, or O) that may be acid/base labile, releasing an aldehyde.

>  <s_lp_Force_Field>  (204) 
OPLS3e

>  <r_lp_Energy>  (204) 
28.7008

>  <b_lp_Chiralities_Consistent>  (204) 
1

>  <s_lp_Variant>  (204) 
60:0-5

>  <s_i_glide_gridfile>  (204) 
pfpi4k_grid

>  <i_i_glide_lignum>  (204) 
41

>  <i_i_glide_rotatable_bonds>  (204) 
1

>  <r_i_docking_score>  (204) 
-4.27748

>  <r_i_glide_ligand_efficiency>  (204) 
-0.251616

>  <r_i_glide_ligand_efficiency_sa>  (204) 
-0.646977

>  <r_i_glide_ligand_efficiency_ln>  (204) 
-1.1159

>  <r_i_glide_gscore>  (204) 
-4.27748

>  <r_i_glide_lipo>  (204) 
-0.435935

>  <r_i_glide_hbond>  (204) 
-0.137001

>  <r_i_glide_metal>  (204) 
-0

>  <r_i_glide_rewards>  (204) 
-1.75007

>  <r_i_glide_evdw>  (204) 
-14.0092

>  <r_i_glide_ecoul>  (204) 
-8.27002

>  <r_i_glide_erotb>  (204) 
0

>  <r_i_glide_esite>  (204) 
-0.0135076

>  <r_i_glide_emodel>  (204) 
-25.5934

>  <r_i_glide_energy>  (204) 
-22.2792

>  <r_i_glide_einternal>  (204) 
0.565671

>  <r_i_glide_intrahb_reward>  (204) 
-0

>  <i_i_glide_confnum>  (204) 
3

>  <i_i_glide_posenum>  (204) 
28

>  <r_i_glide_eff_state_penalty>  (204) 
0

>  <ligand_id>  (204) 
60

>  <original_smiles>  (204) 
CN1CCC2(CC1)OC1OC2CN(C)CC1O

>  <smiles>  (204) 
[H]OC1([H])C2([H])OC([H])(C3(O2)C([H])([H])C([H])([H])N(C([H])([H])[H])C([H])([H])C3([H])[H])C([H])([H])[N+]([H])(C([H])([H])[H])C1([H])[H]

$$$$
62:0:0
     RDKit          3D

 86 91  0  0  1  0  0  0  0  0999 V2000
   -2.9590    3.1184    4.2042 C   0  0  0  0  0  0  0  0  0  0  0  0
   -1.4836    3.1618    4.2515 N   0  0  0  0  0  0  0  0  0  0  0  0
   -0.8729    4.2518    3.6774 C   0  0  0  0  0  0  0  0  0  0  0  0
   -1.5411    5.1285    3.1353 O   0  0  0  0  0  0  0  0  0  0  0  0
    0.5659    4.3460    3.7988 C   0  0  0  0  0  0  0  0  0  0  0  0
    1.3234    3.3511    4.2825 C   0  0  0  0  0  0  0  0  0  0  0  0
    0.7627    2.0693    4.8363 C   0  0  2  0  0  0  0  0  0  0  0  0
    1.3774    1.9112    6.0913 O   0  0  0  0  0  0  0  0  0  0  0  0
    1.0295    0.8300    3.8991 C   0  0  1  0  0  0  0  0  0  0  0  0
    0.6807    1.1948    2.4246 C   0  0  0  0  0  0  0  0  0  0  0  0
    2.4888    0.2104    3.8813 C   0  0  2  0  0  0  0  0  0  0  0  0
    2.6742   -1.0339    2.9795 C   0  0  0  0  0  0  0  0  0  0  0  0
    3.8491   -1.8712    3.5492 C   0  0  2  0  0  0  0  0  0  0  0  0
    3.8869   -3.3899    3.1315 C   0  0  2  0  0  0  0  0  0  0  0  0
    2.5697   -3.9829    2.5890 C   0  0  0  0  0  0  0  0  0  0  0  0
    2.7235   -5.4374    2.1334 C   0  0  0  0  0  0  0  0  0  0  0  0
    3.2572   -6.4145    3.2196 C   0  0  1  0  0  0  0  0  0  0  0  0
    3.3765   -7.8922    2.6674 C   0  0  0  0  0  0  0  0  0  0  0  0
    3.4768   -8.9448    3.8023 C   0  0  0  0  0  0  0  0  0  0  0  0
    2.1105   -8.2901    1.8544 C   0  0  0  0  0  0  0  0  0  0  0  0
    4.6256   -8.0141    1.7609 C   0  0  0  0  0  0  0  0  0  0  0  0
    4.5970   -8.5908    0.6836 O   0  0  0  0  0  0  0  0  0  0  0  0
    5.9287   -7.4153    2.2850 C   0  0  0  0  0  0  0  0  0  0  0  0
    5.7308   -5.9781    2.8026 C   0  0  0  0  0  0  0  0  0  0  0  0
    4.5827   -5.8276    3.8472 C   0  0  2  0  0  0  0  0  0  0  0  0
    5.0310   -6.5727    5.1373 C   0  0  0  0  0  0  0  0  0  0  0  0
    4.4147   -4.3149    4.2542 C   0  0  2  0  0  0  0  0  0  0  0  0
    3.5997   -4.1045    5.5731 C   0  0  0  0  0  0  0  0  0  0  0  0
    2.9979   -2.6945    5.7528 C   0  0  0  0  0  0  0  0  0  0  0  0
    3.8277   -1.5871    5.0716 C   0  0  1  0  0  0  0  0  0  0  0  0
    5.2240   -1.4603    5.7289 C   0  0  0  0  0  0  0  0  0  0  0  0
    3.1256   -0.2194    5.2194 C   0  0  0  0  0  0  0  0  0  0  0  0
   -0.0324   -0.1559    4.4036 C   0  0  0  0  0  0  0  0  0  0  0  0
   -1.2635    0.6887    4.7429 C   0  0  0  0  0  0  0  0  0  0  0  0
   -0.7985    2.1404    5.0876 C   0  0  2  0  0  0  0  0  0  0  0  0
   -1.1975    2.4582    6.5734 C   0  0  0  0  0  0  0  0  0  0  0  0
   -0.7384    3.7250    6.9910 O   0  0  0  0  0  0  0  0  0  0  0  0
   -3.3857    3.6670    3.3667 H   0  0  0  0  0  0  0  0  0  0  0  0
   -3.3754    3.5260    5.1268 H   0  0  0  0  0  0  0  0  0  0  0  0
   -3.3815    2.1370    4.0737 H   0  0  0  0  0  0  0  0  0  0  0  0
    1.0551    5.2561    3.4592 H   0  0  0  0  0  0  0  0  0  0  0  0
    2.3905    3.4694    4.3544 H   0  0  0  0  0  0  0  0  0  0  0  0
    2.2966    1.7410    5.9435 H   0  0  0  0  0  0  0  0  0  0  0  0
    0.6500    0.3211    1.7731 H   0  0  0  0  0  0  0  0  0  0  0  0
    1.4094    1.8828    1.9950 H   0  0  0  0  0  0  0  0  0  0  0  0
   -0.2917    1.6766    2.3250 H   0  0  0  0  0  0  0  0  0  0  0  0
    3.1468    0.9760    3.4673 H   0  0  0  0  0  0  0  0  0  0  0  0
    1.7491   -1.6076    3.0050 H   0  0  0  0  0  0  0  0  0  0  0  0
    2.8421   -0.7623    1.9324 H   0  0  0  0  0  0  0  0  0  0  0  0
    4.7630   -1.4104    3.1732 H   0  0  0  0  0  0  0  0  0  0  0  0
    4.5889   -3.4278    2.3015 H   0  0  0  0  0  0  0  0  0  0  0  0
    1.7770   -3.9291    3.3369 H   0  0  0  0  0  0  0  0  0  0  0  0
    2.2352   -3.4025    1.7294 H   0  0  0  0  0  0  0  0  0  0  0  0
    1.7338   -5.7455    1.8036 H   0  0  0  0  0  0  0  0  0  0  0  0
    3.3526   -5.4644    1.2455 H   0  0  0  0  0  0  0  0  0  0  0  0
    2.4995   -6.4323    4.0044 H   0  0  0  0  0  0  0  0  0  0  0  0
    2.9097   -8.6450    4.6851 H   0  0  0  0  0  0  0  0  0  0  0  0
    4.5005   -9.1386    4.1128 H   0  0  0  0  0  0  0  0  0  0  0  0
    3.0927   -9.9199    3.4968 H   0  0  0  0  0  0  0  0  0  0  0  0
    1.1954   -8.0907    2.4170 H   0  0  0  0  0  0  0  0  0  0  0  0
    2.1070   -9.3509    1.5924 H   0  0  0  0  0  0  0  0  0  0  0  0
    2.0456   -7.7545    0.9065 H   0  0  0  0  0  0  0  0  0  0  0  0
    6.3236   -8.0652    3.0619 H   0  0  0  0  0  0  0  0  0  0  0  0
    6.6672   -7.4261    1.4833 H   0  0  0  0  0  0  0  0  0  0  0  0
    6.6752   -5.6047    3.2108 H   0  0  0  0  0  0  0  0  0  0  0  0
    5.5272   -5.3609    1.9286 H   0  0  0  0  0  0  0  0  0  0  0  0
    5.7473   -5.9768    5.7113 H   0  0  0  0  0  0  0  0  0  0  0  0
    5.5470   -7.5107    4.9475 H   0  0  0  0  0  0  0  0  0  0  0  0
    4.1882   -6.7964    5.7951 H   0  0  0  0  0  0  0  0  0  0  0  0
    5.4302   -3.9778    4.4582 H   0  0  0  0  0  0  0  0  0  0  0  0
    2.8077   -4.8486    5.6797 H   0  0  0  0  0  0  0  0  0  0  0  0
    4.2720   -4.2648    6.4158 H   0  0  0  0  0  0  0  0  0  0  0  0
    2.0031   -2.6885    5.3099 H   0  0  0  0  0  0  0  0  0  0  0  0
    2.8480   -2.4773    6.8132 H   0  0  0  0  0  0  0  0  0  0  0  0
    5.1229   -1.1480    6.7699 H   0  0  0  0  0  0  0  0  0  0  0  0
    5.8335   -0.7096    5.2225 H   0  0  0  0  0  0  0  0  0  0  0  0
    5.7950   -2.3848    5.7467 H   0  0  0  0  0  0  0  0  0  0  0  0
    3.8466    0.5510    5.5023 H   0  0  0  0  0  0  0  0  0  0  0  0
    2.4165   -0.3044    6.0359 H   0  0  0  0  0  0  0  0  0  0  0  0
   -0.2948   -0.9109    3.6624 H   0  0  0  0  0  0  0  0  0  0  0  0
    0.3186   -0.6821    5.2901 H   0  0  0  0  0  0  0  0  0  0  0  0
   -1.9115    0.6610    3.8705 H   0  0  0  0  0  0  0  0  0  0  0  0
   -1.8201    0.2238    5.5584 H   0  0  0  0  0  0  0  0  0  0  0  0
   -2.2801    2.4184    6.7136 H   0  0  0  0  0  0  0  0  0  0  0  0
   -0.8020    1.7111    7.2635 H   0  0  0  0  0  0  0  0  0  0  0  0
    0.2182    3.6977    6.9528 H   0  0  0  0  0  0  0  0  0  0  0  0
  1  2  1  0
  1 38  1  0
  1 39  1  0
  1 40  1  0
  2 35  1  0
  2  3  1  0
  3  4  2  0
  3  5  1  0
  5  6  2  0
  5 41  1  0
  6  7  1  0
  6 42  1  0
  7 35  1  0
  7  8  1  1
  7  9  1  0
  8 43  1  0
  9 10  1  6
  9 11  1  0
  9 33  1  0
 10 44  1  0
 10 45  1  0
 10 46  1  0
 11 32  1  0
 11 12  1  0
 11 47  1  6
 12 13  1  0
 12 48  1  0
 12 49  1  0
 13 30  1  0
 13 14  1  0
 13 50  1  6
 14 27  1  0
 14 15  1  0
 14 51  1  6
 15 16  1  0
 15 52  1  0
 15 53  1  0
 16 17  1  0
 16 54  1  0
 16 55  1  0
 17 25  1  0
 17 18  1  0
 17 56  1  1
 18 19  1  0
 18 20  1  0
 18 21  1  0
 19 57  1  0
 19 58  1  0
 19 59  1  0
 20 60  1  0
 20 61  1  0
 20 62  1  0
 21 22  2  0
 21 23  1  0
 23 24  1  0
 23 63  1  0
 23 64  1  0
 24 25  1  0
 24 65  1  0
 24 66  1  0
 25 26  1  1
 25 27  1  0
 26 67  1  0
 26 68  1  0
 26 69  1  0
 27 28  1  0
 27 70  1  1
 28 29  1  0
 28 71  1  0
 28 72  1  0
 29 30  1  0
 29 73  1  0
 29 74  1  0
 30 31  1  1
 30 32  1  0
 31 75  1  0
 31 76  1  0
 31 77  1  0
 32 78  1  0
 32 79  1  0
 33 34  1  0
 33 80  1  0
 33 81  1  0
 34 35  1  0
 34 82  1  0
 34 83  1  0
 35 36  1  1
 36 37  1  0
 36 84  1  0
 36 85  1  0
 37 86  1  0
M  END
>  <i_m_ct_stereo_status>  (205) 
1

>  <s_m_source_file>  (205) 
/var/tmp/pbs.5076255.sched01/tmp9rjncpta/544vc0qzzn.sdf

>  <i_m_source_file_index>  (205) 
44

>  <i_lp_mmshare_version>  (205) 
48012

>  <i_f3d_flags>  (205) 
0

>  <s_epik_input>  (205) 
W0NIXTE9W0NIXUMoPU8pTihbQ0gzXSlbQ0BAXShbQ0BdMTJbT0hdKShbQ0gyXVtPSF0pW0NIMl1bQ0gyXVtDQF0yKFtDSDNdKVtDQEhdKFtDSDJdMylbQ0gyXVtDQEBdKFtDSDNdKShbQ0gyXVtDSDJdW0NASF00NSlbQ0BIXTNbQ0BASF00W0NIMl1bQ0gyXVtDQEhdKFtDQF01NltDSDNdKUMoW0NIM10pKFtDSDNdKUMoPU8pW0NIMl1bQ0gyXTY=

>  <s_epik_cmdline>  (205) 
J2VwaWtfcHl0aG9uJywgJy1waHQnLCAnMi4wJywgJy1waCcsICc3LjAnLCAnLXRuJywgJzgnLCAnLW1hJywgJzIwMCcsICctaW1hZScsICc8aW5maWxlLm1hZT4nLCAnLW9tYWUnLCAnPG91dGZpbGUubWFlPic=

>  <r_lp_tautomer_probability>  (205) 
1

>  <r_epik_Ionization_Penalty>  (205) 
1.09813e-06

>  <r_epik_Ionization_Penalty_Charging>  (205) 
0

>  <r_epik_Ionization_Penalty_Neutral>  (205) 
1.09813e-06

>  <r_epik_State_Penalty>  (205) 
-0

>  <r_epik_Charging_Adjusted_Penalty>  (205) 
0

>  <i_epik_Tot_Q>  (205) 
0

>  <i_epik_Tot_abs_Q>  (205) 
0

>  <s_lp_Force_Field>  (205) 
OPLS3e

>  <r_lp_Energy>  (205) 
84.1685

>  <b_lp_Chiralities_Consistent>  (205) 
1

>  <s_lp_Variant>  (205) 
62:0-1

>  <s_i_glide_gridfile>  (205) 
pfpi4k_grid

>  <i_i_glide_lignum>  (205) 
44

>  <i_i_glide_rotatable_bonds>  (205) 
4

>  <r_i_docking_score>  (205) 
-2.63436

>  <r_i_glide_ligand_efficiency>  (205) 
-0.071199

>  <r_i_glide_ligand_efficiency_sa>  (205) 
-0.237251

>  <r_i_glide_ligand_efficiency_ln>  (205) 
-0.571332

>  <r_i_glide_gscore>  (205) 
-2.63436

>  <r_i_glide_lipo>  (205) 
-0.0649898

>  <r_i_glide_hbond>  (205) 
-0.16

>  <r_i_glide_metal>  (205) 
-0

>  <r_i_glide_rewards>  (205) 
-0.527097

>  <r_i_glide_evdw>  (205) 
-21.6686

>  <r_i_glide_ecoul>  (205) 
-5.45465

>  <r_i_glide_erotb>  (205) 
0.156526

>  <r_i_glide_esite>  (205) 
-0.137174

>  <r_i_glide_emodel>  (205) 
-35.4666

>  <r_i_glide_energy>  (205) 
-27.1233

>  <r_i_glide_einternal>  (205) 
3.59428

>  <r_i_glide_intrahb_reward>  (205) 
-0.5

>  <i_i_glide_confnum>  (205) 
4

>  <i_i_glide_posenum>  (205) 
16

>  <r_i_glide_eff_state_penalty>  (205) 
0

>  <ligand_id>  (205) 
62

>  <original_smiles>  (205) 
CN1C(=O)C=CC2(O)C(C)(C3CC4C5CCC6C(C)(C)C(=O)CCC6(C)C5CCC4(C)C3)CCC12CO

>  <smiles>  (205) 
[H]OC([H])([H])C12N(C([H])([H])[H])C(=O)C([H])=C([H])C1(O[H])C(C([H])([H])[H])(C1([H])C([H])([H])C3([H])C4([H])C([H])([H])C([H])([H])C5([H])C(C([H])([H])[H])(C([H])([H])[H])C(=O)C([H])([H])C([H])([H])C5(C([H])([H])[H])C4([H])C([H])([H])C([H])([H])C3(C([H])([H])[H])C1([H])[H])C([H])([H])C2([H])[H]

$$$$
62:0:1
     RDKit          3D

 86 91  0  0  1  0  0  0  0  0999 V2000
   -0.1223  -10.2815    2.5368 C   0  0  0  0  0  0  0  0  0  0  0  0
    0.2428   -9.0315    3.2354 N   0  0  0  0  0  0  0  0  0  0  0  0
   -0.7825   -8.2174    3.6318 C   0  0  0  0  0  0  0  0  0  0  0  0
   -1.9568   -8.4187    3.3210 O   0  0  0  0  0  0  0  0  0  0  0  0
   -0.4206   -7.0669    4.4406 C   0  0  0  0  0  0  0  0  0  0  0  0
    0.8510   -6.6698    4.6141 C   0  0  0  0  0  0  0  0  0  0  0  0
    2.0539   -7.3840    4.0502 C   0  0  2  0  0  0  0  0  0  0  0  0
    3.0434   -7.4005    5.0699 O   0  0  0  0  0  0  0  0  0  0  0  0
    2.6781   -6.6496    2.8034 C   0  0  1  0  0  0  0  0  0  0  0  0
    1.5850   -6.2481    1.7748 C   0  0  0  0  0  0  0  0  0  0  0  0
    3.5912   -5.3961    3.1463 C   0  0  2  0  0  0  0  0  0  0  0  0
    2.9248   -4.3129    4.0154 C   0  0  0  0  0  0  0  0  0  0  0  0
    3.5608   -2.9485    3.6775 C   0  0  2  0  0  0  0  0  0  0  0  0
    2.6897   -1.6892    4.0584 C   0  0  2  0  0  0  0  0  0  0  0  0
    1.1806   -1.9302    4.2844 C   0  0  0  0  0  0  0  0  0  0  0  0
    0.4340   -0.6670    4.7278 C   0  0  0  0  0  0  0  0  0  0  0  0
    0.5680    0.5451    3.7596 C   0  0  1  0  0  0  0  0  0  0  0  0
   -0.2384    1.8038    4.2884 C   0  0  0  0  0  0  0  0  0  0  0  0
   -0.4897    2.8556    3.1757 C   0  0  0  0  0  0  0  0  0  0  0  0
   -1.6493    1.3947    4.8014 C   0  0  0  0  0  0  0  0  0  0  0  0
    0.5463    2.4849    5.4307 C   0  0  0  0  0  0  0  0  0  0  0  0
   -0.0077    2.8666    6.4636 O   0  0  0  0  0  0  0  0  0  0  0  0
    2.0425    2.7111    5.2291 C   0  0  0  0  0  0  0  0  0  0  0  0
    2.7491    1.4391    4.7203 C   0  0  0  0  0  0  0  0  0  0  0  0
    2.0951    0.8095    3.4530 C   0  0  2  0  0  0  0  0  0  0  0  0
    2.3132    1.7967    2.2714 C   0  0  0  0  0  0  0  0  0  0  0  0
    2.8469   -0.5206    3.0554 C   0  0  2  0  0  0  0  0  0  0  0  0
    2.5581   -1.0067    1.5984 C   0  0  0  0  0  0  0  0  0  0  0  0
    2.8444   -2.5027    1.3264 C   0  0  0  0  0  0  0  0  0  0  0  0
    3.9889   -3.0770    2.1901 C   0  0  1  0  0  0  0  0  0  0  0  0
    5.3300   -2.3754    1.8602 C   0  0  0  0  0  0  0  0  0  0  0  0
    4.1870   -4.6055    1.9535 C   0  0  0  0  0  0  0  0  0  0  0  0
    3.4919   -7.8095    2.2019 C   0  0  0  0  0  0  0  0  0  0  0  0
    2.6306   -9.0721    2.3795 C   0  0  0  0  0  0  0  0  0  0  0  0
    1.6879   -8.8645    3.6103 C   0  0  2  0  0  0  0  0  0  0  0  0
    1.9924   -9.9618    4.6994 C   0  0  0  0  0  0  0  0  0  0  0  0
    1.2897   -9.7687    5.9144 O   0  0  0  0  0  0  0  0  0  0  0  0
   -1.0962  -10.2486    2.0503 H   0  0  0  0  0  0  0  0  0  0  0  0
   -0.1919  -11.0741    3.2797 H   0  0  0  0  0  0  0  0  0  0  0  0
    0.5769  -10.5988    1.7652 H   0  0  0  0  0  0  0  0  0  0  0  0
   -1.2097   -6.4905    4.8995 H   0  0  0  0  0  0  0  0  0  0  0  0
    1.0460   -5.8149    5.2348 H   0  0  0  0  0  0  0  0  0  0  0  0
    3.6463   -8.1090    4.8955 H   0  0  0  0  0  0  0  0  0  0  0  0
    2.0021   -5.9693    0.8108 H   0  0  0  0  0  0  0  0  0  0  0  0
    0.9901   -5.4109    2.1246 H   0  0  0  0  0  0  0  0  0  0  0  0
    0.8986   -7.0622    1.5605 H   0  0  0  0  0  0  0  0  0  0  0  0
    4.4556   -5.7468    3.7188 H   0  0  0  0  0  0  0  0  0  0  0  0
    1.8700   -4.2895    3.7642 H   0  0  0  0  0  0  0  0  0  0  0  0
    3.0039   -4.5413    5.0811 H   0  0  0  0  0  0  0  0  0  0  0  0
    4.4827   -2.8882    4.2582 H   0  0  0  0  0  0  0  0  0  0  0  0
    3.0770   -1.3652    5.0226 H   0  0  0  0  0  0  0  0  0  0  0  0
    0.7011   -2.3200    3.3856 H   0  0  0  0  0  0  0  0  0  0  0  0
    1.0397   -2.6764    5.0655 H   0  0  0  0  0  0  0  0  0  0  0  0
   -0.6112   -0.9597    4.8268 H   0  0  0  0  0  0  0  0  0  0  0  0
    0.7615   -0.3963    5.7287 H   0  0  0  0  0  0  0  0  0  0  0  0
    0.0929    0.2366    2.8271 H   0  0  0  0  0  0  0  0  0  0  0  0
   -0.6178    2.3880    2.1983 H   0  0  0  0  0  0  0  0  0  0  0  0
    0.3130    3.5866    3.0865 H   0  0  0  0  0  0  0  0  0  0  0  0
   -1.3853    3.4491    3.3613 H   0  0  0  0  0  0  0  0  0  0  0  0
   -2.1789    0.7907    4.0653 H   0  0  0  0  0  0  0  0  0  0  0  0
   -2.2710    2.2652    5.0179 H   0  0  0  0  0  0  0  0  0  0  0  0
   -1.5975    0.8270    5.7315 H   0  0  0  0  0  0  0  0  0  0  0  0
    2.1761    3.5404    4.5379 H   0  0  0  0  0  0  0  0  0  0  0  0
    2.4845    3.0292    6.1717 H   0  0  0  0  0  0  0  0  0  0  0  0
    3.8026    1.6612    4.5348 H   0  0  0  0  0  0  0  0  0  0  0  0
    2.7426    0.7266    5.5446 H   0  0  0  0  0  0  0  0  0  0  0  0
    3.3319    1.7137    1.8859 H   0  0  0  0  0  0  0  0  0  0  0  0
    2.2083    2.8443    2.5416 H   0  0  0  0  0  0  0  0  0  0  0  0
    1.6276    1.6053    1.4423 H   0  0  0  0  0  0  0  0  0  0  0  0
    3.9000   -0.2486    3.0928 H   0  0  0  0  0  0  0  0  0  0  0  0
    1.5296   -0.7884    1.3118 H   0  0  0  0  0  0  0  0  0  0  0  0
    3.1746   -0.4248    0.9142 H   0  0  0  0  0  0  0  0  0  0  0  0
    1.9372   -3.0678    1.5451 H   0  0  0  0  0  0  0  0  0  0  0  0
    3.0394   -2.6592    0.2632 H   0  0  0  0  0  0  0  0  0  0  0  0
    5.6234   -2.5829    0.8296 H   0  0  0  0  0  0  0  0  0  0  0  0
    6.1327   -2.7268    2.5106 H   0  0  0  0  0  0  0  0  0  0  0  0
    5.2936   -1.2934    1.9521 H   0  0  0  0  0  0  0  0  0  0  0  0
    5.2505   -4.8507    1.8920 H   0  0  0  0  0  0  0  0  0  0  0  0
    3.7965   -4.9014    0.9848 H   0  0  0  0  0  0  0  0  0  0  0  0
    3.7477   -7.6499    1.1531 H   0  0  0  0  0  0  0  0  0  0  0  0
    4.4346   -7.9369    2.7377 H   0  0  0  0  0  0  0  0  0  0  0  0
    2.0838   -9.2102    1.4480 H   0  0  0  0  0  0  0  0  0  0  0  0
    3.2648   -9.9550    2.4895 H   0  0  0  0  0  0  0  0  0  0  0  0
    1.7507  -10.9591    4.3315 H   0  0  0  0  0  0  0  0  0  0  0  0
    3.0570  -10.0101    4.9301 H   0  0  0  0  0  0  0  0  0  0  0  0
    1.3722  -10.5529    6.4508 H   0  0  0  0  0  0  0  0  0  0  0  0
  1  2  1  0
  1 38  1  0
  1 39  1  0
  1 40  1  0
  2 35  1  0
  2  3  1  0
  3  4  2  0
  3  5  1  0
  5  6  2  0
  5 41  1  0
  6  7  1  0
  6 42  1  0
  7 35  1  0
  7  8  1  1
  7  9  1  0
  8 43  1  0
  9 10  1  6
  9 11  1  0
  9 33  1  0
 10 44  1  0
 10 45  1  0
 10 46  1  0
 11 32  1  0
 11 12  1  0
 11 47  1  1
 12 13  1  0
 12 48  1  0
 12 49  1  0
 13 30  1  0
 13 14  1  0
 13 50  1  1
 14 27  1  0
 14 15  1  0
 14 51  1  1
 15 16  1  0
 15 52  1  0
 15 53  1  0
 16 17  1  0
 16 54  1  0
 16 55  1  0
 17 25  1  0
 17 18  1  0
 17 56  1  6
 18 19  1  0
 18 20  1  0
 18 21  1  0
 19 57  1  0
 19 58  1  0
 19 59  1  0
 20 60  1  0
 20 61  1  0
 20 62  1  0
 21 22  2  0
 21 23  1  0
 23 24  1  0
 23 63  1  0
 23 64  1  0
 24 25  1  0
 24 65  1  0
 24 66  1  0
 25 26  1  6
 25 27  1  0
 26 67  1  0
 26 68  1  0
 26 69  1  0
 27 28  1  0
 27 70  1  6
 28 29  1  0
 28 71  1  0
 28 72  1  0
 29 30  1  0
 29 73  1  0
 29 74  1  0
 30 31  1  1
 30 32  1  0
 31 75  1  0
 31 76  1  0
 31 77  1  0
 32 78  1  0
 32 79  1  0
 33 34  1  0
 33 80  1  0
 33 81  1  0
 34 35  1  0
 34 82  1  0
 34 83  1  0
 35 36  1  1
 36 37  1  0
 36 84  1  0
 36 85  1  0
 37 86  1  0
M  END
>  <i_m_ct_stereo_status>  (206) 
1

>  <s_m_source_file>  (206) 
/var/tmp/pbs.5076255.sched01/tmp9rjncpta/544vc0qzzn.sdf

>  <i_m_source_file_index>  (206) 
44

>  <i_lp_mmshare_version>  (206) 
48012

>  <i_f3d_flags>  (206) 
0

>  <s_epik_input>  (206) 
W0NIXTE9W0NIXUMoPU8pTihbQ0gzXSlbQ0BAXShbQ0BdMTJbT0hdKShbQ0gyXVtPSF0pW0NIMl1bQ0gyXVtDQF0yKFtDSDNdKVtDQEhdKFtDSDJdMylbQ0gyXVtDQEBdKFtDSDNdKShbQ0gyXVtDSDJdW0NASF00NSlbQ0BIXTNbQ0BASF00W0NIMl1bQ0gyXVtDQEhdKFtDQF01NltDSDNdKUMoW0NIM10pKFtDSDNdKUMoPU8pW0NIMl1bQ0gyXTY=

>  <s_epik_cmdline>  (206) 
J2VwaWtfcHl0aG9uJywgJy1waHQnLCAnMi4wJywgJy1waCcsICc3LjAnLCAnLXRuJywgJzgnLCAnLW1hJywgJzIwMCcsICctaW1hZScsICc8aW5maWxlLm1hZT4nLCAnLW9tYWUnLCAnPG91dGZpbGUubWFlPic=

>  <r_lp_tautomer_probability>  (206) 
1

>  <r_epik_Ionization_Penalty>  (206) 
1.09813e-06

>  <r_epik_Ionization_Penalty_Charging>  (206) 
0

>  <r_epik_Ionization_Penalty_Neutral>  (206) 
1.09813e-06

>  <r_epik_State_Penalty>  (206) 
-0

>  <r_epik_Charging_Adjusted_Penalty>  (206) 
0

>  <i_epik_Tot_Q>  (206) 
0

>  <i_epik_Tot_abs_Q>  (206) 
0

>  <s_lp_Force_Field>  (206) 
OPLS3e

>  <r_lp_Energy>  (206) 
84.1685

>  <b_lp_Chiralities_Consistent>  (206) 
1

>  <s_lp_Variant>  (206) 
62:0-1

>  <s_i_glide_gridfile>  (206) 
pfpi4k_grid

>  <i_i_glide_lignum>  (206) 
44

>  <i_i_glide_rotatable_bonds>  (206) 
4

>  <r_i_docking_score>  (206) 
-2.23405

>  <r_i_glide_ligand_efficiency>  (206) 
-0.0603797

>  <r_i_glide_ligand_efficiency_sa>  (206) 
-0.201198

>  <r_i_glide_ligand_efficiency_ln>  (206) 
-0.484513

>  <r_i_glide_gscore>  (206) 
-2.23405

>  <r_i_glide_lipo>  (206) 
-0.220615

>  <r_i_glide_hbond>  (206) 
0

>  <r_i_glide_metal>  (206) 
-0

>  <r_i_glide_rewards>  (206) 
0

>  <r_i_glide_evdw>  (206) 
-29.7981

>  <r_i_glide_ecoul>  (206) 
-3.93335

>  <r_i_glide_erotb>  (206) 
0.156526

>  <r_i_glide_esite>  (206) 
-0.0900485

>  <r_i_glide_emodel>  (206) 
-37.0789

>  <r_i_glide_energy>  (206) 
-33.7315

>  <r_i_glide_einternal>  (206) 
1.96876

>  <r_i_glide_intrahb_reward>  (206) 
-0

>  <i_i_glide_confnum>  (206) 
1

>  <i_i_glide_posenum>  (206) 
33

>  <r_i_glide_eff_state_penalty>  (206) 
0

>  <ligand_id>  (206) 
62

>  <original_smiles>  (206) 
CN1C(=O)C=CC2(O)C(C)(C3CC4C5CCC6C(C)(C)C(=O)CCC6(C)C5CCC4(C)C3)CCC12CO

>  <smiles>  (206) 
[H]OC([H])([H])C12N(C([H])([H])[H])C(=O)C([H])=C([H])C1(O[H])C(C([H])([H])[H])(C1([H])C([H])([H])C3([H])C4([H])C([H])([H])C([H])([H])C5([H])C(C([H])([H])[H])(C([H])([H])[H])C(=O)C([H])([H])C([H])([H])C5(C([H])([H])[H])C4([H])C([H])([H])C([H])([H])C3(C([H])([H])[H])C1([H])[H])C([H])([H])C2([H])[H]

$$$$
62:0:2
     RDKit          3D

 86 91  0  0  1  0  0  0  0  0999 V2000
   -0.3115   -9.9753    2.6715 C   0  0  0  0  0  0  0  0  0  0  0  0
    0.0342   -8.7284    3.3817 N   0  0  0  0  0  0  0  0  0  0  0  0
   -1.0104   -7.9121    3.7137 C   0  0  0  0  0  0  0  0  0  0  0  0
   -2.1696   -8.1161    3.3539 O   0  0  0  0  0  0  0  0  0  0  0  0
   -0.6883   -6.7536    4.5243 C   0  0  0  0  0  0  0  0  0  0  0  0
    0.5698   -6.3425    4.7389 C   0  0  0  0  0  0  0  0  0  0  0  0
    1.7970   -7.0628    4.2371 C   0  0  2  0  0  0  0  0  0  0  0  0
    2.7313   -7.0482    5.3045 O   0  0  0  0  0  0  0  0  0  0  0  0
    2.4812   -6.3301    3.0207 C   0  0  1  0  0  0  0  0  0  0  0  0
    1.4382   -5.9485    1.9394 C   0  0  0  0  0  0  0  0  0  0  0  0
    3.3730   -5.0658    3.3888 C   0  0  2  0  0  0  0  0  0  0  0  0
    2.6718   -3.9805    4.2291 C   0  0  0  0  0  0  0  0  0  0  0  0
    3.3097   -2.6136    3.9055 C   0  0  2  0  0  0  0  0  0  0  0  0
    2.4165   -1.3610    4.2536 C   0  0  2  0  0  0  0  0  0  0  0  0
    0.9041   -1.6131    4.4364 C   0  0  0  0  0  0  0  0  0  0  0  0
    0.1338   -0.3551    4.8519 C   0  0  0  0  0  0  0  0  0  0  0  0
    0.2877    0.8547    3.8835 C   0  0  1  0  0  0  0  0  0  0  0  0
   -0.5409    2.1093    4.3855 C   0  0  0  0  0  0  0  0  0  0  0  0
   -0.7732    3.1535    3.2651 C   0  0  0  0  0  0  0  0  0  0  0  0
   -1.9606    1.6934    4.8536 C   0  0  0  0  0  0  0  0  0  0  0  0
    0.2018    2.8018    5.5462 C   0  0  0  0  0  0  0  0  0  0  0  0
   -0.3885    3.1875    6.5580 O   0  0  0  0  0  0  0  0  0  0  0  0
    1.7013    3.0381    5.3879 C   0  0  0  0  0  0  0  0  0  0  0  0
    2.4319    1.7696    4.9045 C   0  0  0  0  0  0  0  0  0  0  0  0
    1.8196    1.1310    3.6207 C   0  0  2  0  0  0  0  0  0  0  0  0
    2.0647    2.1184    2.4451 C   0  0  0  0  0  0  0  0  0  0  0  0
    2.5906   -0.1954    3.2487 C   0  0  2  0  0  0  0  0  0  0  0  0
    2.3541   -0.6880    1.7846 C   0  0  0  0  0  0  0  0  0  0  0  0
    2.6630   -2.1831    1.5299 C   0  0  0  0  0  0  0  0  0  0  0  0
    3.7839   -2.7446    2.4324 C   0  0  1  0  0  0  0  0  0  0  0  0
    5.1280   -2.0343    2.1415 C   0  0  0  0  0  0  0  0  0  0  0  0
    4.0025   -4.2730    2.2120 C   0  0  0  0  0  0  0  0  0  0  0  0
    3.3304   -7.4874    2.4742 C   0  0  0  0  0  0  0  0  0  0  0  0
    2.4771   -8.7569    2.6124 C   0  0  0  0  0  0  0  0  0  0  0  0
    1.4759   -8.5587    3.7942 C   0  0  2  0  0  0  0  0  0  0  0  0
    1.7452   -9.5993    4.9531 C   0  0  0  0  0  0  0  0  0  0  0  0
    1.8151  -10.9420    4.5180 O   0  0  0  0  0  0  0  0  0  0  0  0
   -1.2477   -9.9278    2.1103 H   0  0  0  0  0  0  0  0  0  0  0  0
   -0.4382  -10.7534    3.4233 H   0  0  0  0  0  0  0  0  0  0  0  0
    0.4467  -10.3164    1.9685 H   0  0  0  0  0  0  0  0  0  0  0  0
   -1.5005   -6.1806    4.9415 H   0  0  0  0  0  0  0  0  0  0  0  0
    0.7310   -5.4741    5.3525 H   0  0  0  0  0  0  0  0  0  0  0  0
    2.4313   -7.6575    5.9647 H   0  0  0  0  0  0  0  0  0  0  0  0
    1.8985   -5.6890    0.9900 H   0  0  0  0  0  0  0  0  0  0  0  0
    0.8380   -5.1034    2.2580 H   0  0  0  0  0  0  0  0  0  0  0  0
    0.7605   -6.7652    1.7117 H   0  0  0  0  0  0  0  0  0  0  0  0
    4.2180   -5.4100    3.9960 H   0  0  0  0  0  0  0  0  0  0  0  0
    1.6273   -3.9636    3.9374 H   0  0  0  0  0  0  0  0  0  0  0  0
    2.7143   -4.2024    5.2989 H   0  0  0  0  0  0  0  0  0  0  0  0
    4.2128   -2.5422    4.5142 H   0  0  0  0  0  0  0  0  0  0  0  0
    2.7715   -1.0290    5.2270 H   0  0  0  0  0  0  0  0  0  0  0  0
    0.4538   -2.0104    3.5249 H   0  0  0  0  0  0  0  0  0  0  0  0
    0.7454   -2.3571    5.2157 H   0  0  0  0  0  0  0  0  0  0  0  0
   -0.9125   -0.6554    4.9203 H   0  0  0  0  0  0  0  0  0  0  0  0
    0.4292   -0.0776    5.8599 H   0  0  0  0  0  0  0  0  0  0  0  0
   -0.1589    0.5379    2.9389 H   0  0  0  0  0  0  0  0  0  0  0  0
   -0.8732    2.6726    2.2912 H   0  0  0  0  0  0  0  0  0  0  0  0
    0.0250    3.8910    3.1953 H   0  0  0  0  0  0  0  0  0  0  0  0
   -1.6807    3.7376    3.4216 H   0  0  0  0  0  0  0  0  0  0  0  0
   -2.4508    1.0913    4.0903 H   0  0  0  0  0  0  0  0  0  0  0  0
   -2.5935    2.5613    5.0466 H   0  0  0  0  0  0  0  0  0  0  0  0
   -1.9378    1.1264    5.7853 H   0  0  0  0  0  0  0  0  0  0  0  0
    1.8465    3.8655    4.6972 H   0  0  0  0  0  0  0  0  0  0  0  0
    2.1121    3.3631    6.3418 H   0  0  0  0  0  0  0  0  0  0  0  0
    3.4885    2.0001    4.7470 H   0  0  0  0  0  0  0  0  0  0  0  0
    2.4080    1.0599    5.7315 H   0  0  0  0  0  0  0  0  0  0  0  0
    3.0947    2.0461    2.0896 H   0  0  0  0  0  0  0  0  0  0  0  0
    1.9356    3.1651    2.7096 H   0  0  0  0  0  0  0  0  0  0  0  0
    1.4087    1.9160    1.5956 H   0  0  0  0  0  0  0  0  0  0  0  0
    3.6396    0.0857    3.3150 H   0  0  0  0  0  0  0  0  0  0  0  0
    1.3326   -0.4765    1.4666 H   0  0  0  0  0  0  0  0  0  0  0  0
    2.9905   -0.1045    1.1207 H   0  0  0  0  0  0  0  0  0  0  0  0
    1.7579   -2.7593    1.7262 H   0  0  0  0  0  0  0  0  0  0  0  0
    2.8913   -2.3427    0.4732 H   0  0  0  0  0  0  0  0  0  0  0  0
    5.4544   -2.2460    1.1216 H   0  0  0  0  0  0  0  0  0  0  0  0
    5.9083   -2.3770    2.8237 H   0  0  0  0  0  0  0  0  0  0  0  0
    5.0784   -0.9520    2.2253 H   0  0  0  0  0  0  0  0  0  0  0  0
    5.0687   -4.5114    2.1866 H   0  0  0  0  0  0  0  0  0  0  0  0
    3.6465   -4.5746    1.2325 H   0  0  0  0  0  0  0  0  0  0  0  0
    3.6440   -7.3350    1.4416 H   0  0  0  0  0  0  0  0  0  0  0  0
    4.2380   -7.6020    3.0683 H   0  0  0  0  0  0  0  0  0  0  0  0
    1.9707   -8.9133    1.6623 H   0  0  0  0  0  0  0  0  0  0  0  0
    3.1288   -9.6182    2.7571 H   0  0  0  0  0  0  0  0  0  0  0  0
    2.7144   -9.4573    5.4332 H   0  0  0  0  0  0  0  0  0  0  0  0
    0.9852   -9.5090    5.7295 H   0  0  0  0  0  0  0  0  0  0  0  0
    1.8788  -11.5089    5.2813 H   0  0  0  0  0  0  0  0  0  0  0  0
  1  2  1  0
  1 38  1  0
  1 39  1  0
  1 40  1  0
  2 35  1  0
  2  3  1  0
  3  4  2  0
  3  5  1  0
  5  6  2  0
  5 41  1  0
  6  7  1  0
  6 42  1  0
  7 35  1  0
  7  8  1  1
  7  9  1  0
  8 43  1  0
  9 10  1  6
  9 11  1  0
  9 33  1  0
 10 44  1  0
 10 45  1  0
 10 46  1  0
 11 32  1  0
 11 12  1  0
 11 47  1  1
 12 13  1  0
 12 48  1  0
 12 49  1  0
 13 30  1  0
 13 14  1  0
 13 50  1  1
 14 27  1  0
 14 15  1  0
 14 51  1  1
 15 16  1  0
 15 52  1  0
 15 53  1  0
 16 17  1  0
 16 54  1  0
 16 55  1  0
 17 25  1  0
 17 18  1  0
 17 56  1  6
 18 19  1  0
 18 20  1  0
 18 21  1  0
 19 57  1  0
 19 58  1  0
 19 59  1  0
 20 60  1  0
 20 61  1  0
 20 62  1  0
 21 22  2  0
 21 23  1  0
 23 24  1  0
 23 63  1  0
 23 64  1  0
 24 25  1  0
 24 65  1  0
 24 66  1  0
 25 26  1  6
 25 27  1  0
 26 67  1  0
 26 68  1  0
 26 69  1  0
 27 28  1  0
 27 70  1  6
 28 29  1  0
 28 71  1  0
 28 72  1  0
 29 30  1  0
 29 73  1  0
 29 74  1  0
 30 31  1  1
 30 32  1  0
 31 75  1  0
 31 76  1  0
 31 77  1  0
 32 78  1  0
 32 79  1  0
 33 34  1  0
 33 80  1  0
 33 81  1  0
 34 35  1  0
 34 82  1  0
 34 83  1  0
 35 36  1  1
 36 37  1  0
 36 84  1  0
 36 85  1  0
 37 86  1  0
M  END
>  <i_m_ct_stereo_status>  (207) 
1

>  <s_m_source_file>  (207) 
/var/tmp/pbs.5076255.sched01/tmp9rjncpta/544vc0qzzn.sdf

>  <i_m_source_file_index>  (207) 
44

>  <i_lp_mmshare_version>  (207) 
48012

>  <i_f3d_flags>  (207) 
0

>  <s_epik_input>  (207) 
W0NIXTE9W0NIXUMoPU8pTihbQ0gzXSlbQ0BAXShbQ0BdMTJbT0hdKShbQ0gyXVtPSF0pW0NIMl1bQ0gyXVtDQF0yKFtDSDNdKVtDQEhdKFtDSDJdMylbQ0gyXVtDQEBdKFtDSDNdKShbQ0gyXVtDSDJdW0NASF00NSlbQ0BIXTNbQ0BASF00W0NIMl1bQ0gyXVtDQEhdKFtDQF01NltDSDNdKUMoW0NIM10pKFtDSDNdKUMoPU8pW0NIMl1bQ0gyXTY=

>  <s_epik_cmdline>  (207) 
J2VwaWtfcHl0aG9uJywgJy1waHQnLCAnMi4wJywgJy1waCcsICc3LjAnLCAnLXRuJywgJzgnLCAnLW1hJywgJzIwMCcsICctaW1hZScsICc8aW5maWxlLm1hZT4nLCAnLW9tYWUnLCAnPG91dGZpbGUubWFlPic=

>  <r_lp_tautomer_probability>  (207) 
1

>  <r_epik_Ionization_Penalty>  (207) 
1.09813e-06

>  <r_epik_Ionization_Penalty_Charging>  (207) 
0

>  <r_epik_Ionization_Penalty_Neutral>  (207) 
1.09813e-06

>  <r_epik_State_Penalty>  (207) 
-0

>  <r_epik_Charging_Adjusted_Penalty>  (207) 
0

>  <i_epik_Tot_Q>  (207) 
0

>  <i_epik_Tot_abs_Q>  (207) 
0

>  <s_lp_Force_Field>  (207) 
OPLS3e

>  <r_lp_Energy>  (207) 
84.1685

>  <b_lp_Chiralities_Consistent>  (207) 
1

>  <s_lp_Variant>  (207) 
62:0-1

>  <s_i_glide_gridfile>  (207) 
pfpi4k_grid

>  <i_i_glide_lignum>  (207) 
44

>  <i_i_glide_rotatable_bonds>  (207) 
4

>  <r_i_docking_score>  (207) 
-1.89913

>  <r_i_glide_ligand_efficiency>  (207) 
-0.0513279

>  <r_i_glide_ligand_efficiency_sa>  (207) 
-0.171036

>  <r_i_glide_ligand_efficiency_ln>  (207) 
-0.411877

>  <r_i_glide_gscore>  (207) 
-1.89913

>  <r_i_glide_lipo>  (207) 
-0.0952107

>  <r_i_glide_hbond>  (207) 
0

>  <r_i_glide_metal>  (207) 
-0

>  <r_i_glide_rewards>  (207) 
0

>  <r_i_glide_evdw>  (207) 
-29.496

>  <r_i_glide_ecoul>  (207) 
-2.5579

>  <r_i_glide_erotb>  (207) 
0.156526

>  <r_i_glide_esite>  (207) 
-0.101961

>  <r_i_glide_emodel>  (207) 
-34.0542

>  <r_i_glide_energy>  (207) 
-32.0539

>  <r_i_glide_einternal>  (207) 
2.8455

>  <r_i_glide_intrahb_reward>  (207) 
-0

>  <i_i_glide_confnum>  (207) 
1

>  <i_i_glide_posenum>  (207) 
5

>  <r_i_glide_eff_state_penalty>  (207) 
0

>  <ligand_id>  (207) 
62

>  <original_smiles>  (207) 
CN1C(=O)C=CC2(O)C(C)(C3CC4C5CCC6C(C)(C)C(=O)CCC6(C)C5CCC4(C)C3)CCC12CO

>  <smiles>  (207) 
[H]OC([H])([H])C12N(C([H])([H])[H])C(=O)C([H])=C([H])C1(O[H])C(C([H])([H])[H])(C1([H])C([H])([H])C3([H])C4([H])C([H])([H])C([H])([H])C5([H])C(C([H])([H])[H])(C([H])([H])[H])C(=O)C([H])([H])C([H])([H])C5(C([H])([H])[H])C4([H])C([H])([H])C([H])([H])C3(C([H])([H])[H])C1([H])[H])C([H])([H])C2([H])[H]

$$$$
63:0:0
     RDKit          3D

 61 66  0  0  1  0  0  0  0  0999 V2000
    5.2121   -3.8638    4.8672 C   0  0  0  0  0  0  0  0  0  0  0  0
    4.7968   -5.1002    4.2710 O   0  0  0  0  0  0  0  0  0  0  0  0
    4.6581   -5.1215    2.8442 C   0  0  1  0  0  0  0  0  0  0  0  0
    3.6203   -4.1841    2.2537 C   0  0  0  0  0  0  0  0  0  0  0  0
    4.2221   -3.8725    0.8671 C   0  0  1  0  0  0  0  0  0  0  0  0
    3.5624   -2.9470   -0.1387 C   0  0  1  0  0  0  0  0  0  0  0  0
    2.2186   -3.5375   -0.4952 C   0  0  0  0  0  0  0  0  0  0  0  0
    3.3974   -1.4775    0.3314 C   0  0  1  0  0  0  0  0  0  0  0  0
    3.6439   -1.2141    1.7022 O   0  0  0  0  0  0  0  0  0  0  0  0
    4.1767   -0.6442   -0.6389 C   0  0  2  0  0  0  0  0  0  0  0  0
    3.7385   -0.6347   -1.9830 O   0  0  0  0  0  0  0  0  0  0  0  0
    4.8224   -1.5050   -1.6534 C   0  0  2  0  0  0  0  0  0  0  0  0
    4.3905   -2.9059   -1.4421 C   0  0  1  0  0  0  0  0  0  0  0  0
    5.4396   -4.0031   -1.5749 C   0  0  1  0  0  0  0  0  0  0  0  0
    5.9547   -3.7902   -2.8564 O   0  0  0  0  0  0  0  0  0  0  0  0
    6.4302   -4.2609   -0.3851 C   0  0  1  0  0  0  0  0  0  0  0  0
    7.8356   -3.5830   -0.4115 C   0  0  0  0  0  0  0  0  0  0  0  0
    8.9948   -4.5305   -0.7548 C   0  0  0  0  0  0  0  0  0  0  0  0
    8.0170   -2.3228   -1.2613 C   0  0  0  0  0  0  0  0  0  0  0  0
    7.9993   -3.0816    1.0096 C   0  0  0  0  0  0  0  0  0  0  0  0
    6.5959   -2.7693    1.5497 C   0  0  1  0  0  0  0  0  0  0  0  0
    6.2308   -1.4619    1.1796 O   0  0  0  0  0  0  0  0  0  0  0  0
    5.7594   -3.9551    0.9817 C   0  0  1  0  0  0  0  0  0  0  0  0
    5.9121   -5.0996    2.0164 C   0  0  2  0  0  0  0  0  0  0  0  0
    5.1251   -6.4220    2.1702 C   0  0  0  0  0  0  0  0  0  0  0  0
    5.7546   -7.5326    2.9783 C   0  0  0  0  0  0  0  0  0  0  0  0
    4.3141   -7.0767    1.0396 C   0  0  0  0  0  0  0  0  0  0  0  0
    5.2559   -3.9831    5.9753 H   0  0  0  0  0  0  0  0  0  0  0  0
    4.5475   -3.0189    4.6291 H   0  0  0  0  0  0  0  0  0  0  0  0
    6.1879   -3.5977    4.5355 H   0  0  0  0  0  0  0  0  0  0  0  0
    2.6495   -4.7010    2.1916 H   0  0  0  0  0  0  0  0  0  0  0  0
    3.4962   -3.2901    2.8635 H   0  0  0  0  0  0  0  0  0  0  0  0
    4.0038   -4.7947    0.3506 H   0  0  0  0  0  0  0  0  0  0  0  0
    1.6651   -2.9830   -1.2641 H   0  0  0  0  0  0  0  0  0  0  0  0
    1.7381   -3.5146    0.4701 H   0  0  0  0  0  0  0  0  0  0  0  0
    2.2729   -4.5744   -0.8438 H   0  0  0  0  0  0  0  0  0  0  0  0
    2.3643   -1.1441    0.3068 H   0  0  0  0  0  0  0  0  0  0  0  0
    2.8674   -1.4905    2.1665 H   0  0  0  0  0  0  0  0  0  0  0  0
    4.6264    0.2669   -0.2989 H   0  0  0  0  0  0  0  0  0  0  0  0
    5.7371   -1.3015   -2.2123 H   0  0  0  0  0  0  0  0  0  0  0  0
    3.7146   -3.0575   -2.2923 H   0  0  0  0  0  0  0  0  0  0  0  0
    4.8783   -4.9286   -1.6624 H   0  0  0  0  0  0  0  0  0  0  0  0
    6.2330   -4.6414   -3.1412 H   0  0  0  0  0  0  0  0  0  0  0  0
    6.5991   -5.3321   -0.2705 H   0  0  0  0  0  0  0  0  0  0  0  0
    9.8335   -3.8834   -0.5099 H   0  0  0  0  0  0  0  0  0  0  0  0
    9.0317   -4.8337   -1.8056 H   0  0  0  0  0  0  0  0  0  0  0  0
    9.0005   -5.4162   -0.1082 H   0  0  0  0  0  0  0  0  0  0  0  0
    9.0002   -1.8903   -1.0371 H   0  0  0  0  0  0  0  0  0  0  0  0
    7.3064   -1.5625   -0.9716 H   0  0  0  0  0  0  0  0  0  0  0  0
    8.0261   -2.5271   -2.3282 H   0  0  0  0  0  0  0  0  0  0  0  0
    8.4538   -3.8556    1.6211 H   0  0  0  0  0  0  0  0  0  0  0  0
    8.6826   -2.2311    1.0065 H   0  0  0  0  0  0  0  0  0  0  0  0
    6.5219   -2.7344    2.6293 H   0  0  0  0  0  0  0  0  0  0  0  0
    5.3636   -1.3050    1.5504 H   0  0  0  0  0  0  0  0  0  0  0  0
    6.8755   -5.1468    2.5036 H   0  0  0  0  0  0  0  0  0  0  0  0
    6.4019   -8.1511    2.3491 H   0  0  0  0  0  0  0  0  0  0  0  0
    4.9899   -8.1882    3.4116 H   0  0  0  0  0  0  0  0  0  0  0  0
    6.3631   -7.1374    3.7944 H   0  0  0  0  0  0  0  0  0  0  0  0
    4.2345   -8.1646    1.1718 H   0  0  0  0  0  0  0  0  0  0  0  0
    4.7885   -6.8810    0.0796 H   0  0  0  0  0  0  0  0  0  0  0  0
    3.3017   -6.6884    1.0447 H   0  0  0  0  0  0  0  0  0  0  0  0
  1  2  1  0
  1 28  1  0
  1 29  1  0
  1 30  1  0
  3  2  1  1
  3 24  1  0
  3 25  1  0
  3  4  1  0
  4  5  1  0
  4 31  1  0
  4 32  1  0
  5 23  1  0
  5  6  1  0
  5 33  1  6
  6 13  1  0
  6  7  1  6
  6  8  1  0
  7 34  1  0
  7 35  1  0
  7 36  1  0
  8  9  1  0
  8 10  1  0
  8 37  1  1
  9 38  1  0
 10 12  1  0
 10 11  1  0
 10 39  1  1
 11 12  1  0
 12 13  1  0
 12 40  1  6
 13 14  1  0
 13 41  1  6
 14 15  1  0
 14 16  1  0
 14 42  1  6
 15 43  1  0
 16 23  1  0
 16 17  1  0
 16 44  1  1
 17 18  1  0
 17 19  1  0
 17 20  1  0
 18 45  1  0
 18 46  1  0
 18 47  1  0
 19 48  1  0
 19 49  1  0
 19 50  1  0
 20 21  1  0
 20 51  1  0
 20 52  1  0
 21 22  1  0
 23 21  1  1
 21 53  1  1
 22 54  1  0
 23 24  1  0
 24 25  1  0
 24 55  1  1
 25 26  1  0
 25 27  1  0
 26 56  1  0
 26 57  1  0
 26 58  1  0
 27 59  1  0
 27 60  1  0
 27 61  1  0
M  END
>  <i_m_ct_stereo_status>  (208) 
1

>  <s_m_source_file>  (208) 
/var/tmp/pbs.5076255.sched01/tmp9rjncpta/544vc0qzzn.sdf

>  <i_m_source_file_index>  (208) 
45

>  <i_lp_mmshare_version>  (208) 
48012

>  <i_f3d_flags>  (208) 
0

>  <s_epik_input>  (208) 
W0NIM11DMShbQ0gzXSlbQ0BASF0yW0NAQF0xKE9bQ0gzXSlbQ0gyXVtDQEhdKFtDQEBdMjM0KVtDQF01KFtDSDNdKVtDQEBIXShbQ0BASF02W0NAQEhdKE82KVtDQEBIXTVbT0hdKVtDQEBIXShbT0hdKVtDQEhdM0MoW0NIM10pKFtDSDNdKVtDSDJdW0NASF00W09IXQ==

>  <s_epik_cmdline>  (208) 
J2VwaWtfcHl0aG9uJywgJy1waHQnLCAnMi4wJywgJy1waCcsICc3LjAnLCAnLXRuJywgJzgnLCAnLW1hJywgJzIwMCcsICctaW1hZScsICc8aW5maWxlLm1hZT4nLCAnLW9tYWUnLCAnPG91dGZpbGUubWFlPic=

>  <r_lp_tautomer_probability>  (208) 
1

>  <r_epik_Ionization_Penalty>  (208) 
1.37507e-06

>  <r_epik_Ionization_Penalty_Charging>  (208) 
0

>  <r_epik_Ionization_Penalty_Neutral>  (208) 
1.37507e-06

>  <r_epik_State_Penalty>  (208) 
-0

>  <r_epik_Charging_Adjusted_Penalty>  (208) 
0

>  <i_epik_Tot_Q>  (208) 
0

>  <i_epik_Tot_abs_Q>  (208) 
0

>  <s_lp_Force_Field>  (208) 
OPLS3e

>  <r_lp_Energy>  (208) 
86.6021

>  <b_lp_Chiralities_Consistent>  (208) 
1

>  <s_lp_Variant>  (208) 
63:0-1

>  <s_i_glide_gridfile>  (208) 
pfpi4k_grid

>  <i_i_glide_lignum>  (208) 
45

>  <i_i_glide_rotatable_bonds>  (208) 
4

>  <r_i_docking_score>  (208) 
-2.42381

>  <r_i_glide_ligand_efficiency>  (208) 
-0.0897707

>  <r_i_glide_ligand_efficiency_sa>  (208) 
-0.269312

>  <r_i_glide_ligand_efficiency_ln>  (208) 
-0.564223

>  <r_i_glide_gscore>  (208) 
-2.42381

>  <r_i_glide_lipo>  (208) 
-0.634939

>  <r_i_glide_hbond>  (208) 
0

>  <r_i_glide_metal>  (208) 
-0

>  <r_i_glide_rewards>  (208) 
-1.32839

>  <r_i_glide_evdw>  (208) 
-4.31119

>  <r_i_glide_ecoul>  (208) 
-1.63279

>  <r_i_glide_erotb>  (208) 
0

>  <r_i_glide_esite>  (208) 
0

>  <r_i_glide_emodel>  (208) 
-7.45038

>  <r_i_glide_energy>  (208) 
-5.94398

>  <r_i_glide_einternal>  (208) 
4.60933

>  <r_i_glide_intrahb_reward>  (208) 
-0.5

>  <i_i_glide_confnum>  (208) 
2

>  <i_i_glide_posenum>  (208) 
33

>  <r_i_glide_eff_state_penalty>  (208) 
0

>  <ligand_id>  (208) 
63

>  <original_smiles>  (208) 
COC12CC3C4(C)C(O)C5OC5C4C(O)C4C(C)(C)CC(O)C43C1C2(C)C

>  <smiles>  (208) 
[H]OC1([H])C2([H])C3([H])OC3([H])C([H])(O[H])C2(C([H])([H])[H])C2([H])C([H])([H])C3(OC([H])([H])[H])C([H])(C24C([H])(O[H])C([H])([H])C(C([H])([H])[H])(C([H])([H])[H])C14[H])C3(C([H])([H])[H])C([H])([H])[H]

$$$$
63:0:1
     RDKit          3D

 61 66  0  0  1  0  0  0  0  0999 V2000
    4.3897   -6.1852    5.2701 C   0  0  0  0  0  0  0  0  0  0  0  0
    5.3313   -5.5221    4.4328 O   0  0  0  0  0  0  0  0  0  0  0  0
    4.9771   -5.6129    3.0495 C   0  0  1  0  0  0  0  0  0  0  0  0
    3.8195   -4.7518    2.6266 C   0  0  0  0  0  0  0  0  0  0  0  0
    4.2254   -4.3289    1.1944 C   0  0  1  0  0  0  0  0  0  0  0  0
    3.3402   -3.4751    0.2581 C   0  0  1  0  0  0  0  0  0  0  0  0
    2.0931   -4.3192   -0.0064 C   0  0  0  0  0  0  0  0  0  0  0  0
    2.9172   -2.0385    0.7303 C   0  0  1  0  0  0  0  0  0  0  0  0
    3.2370   -1.7506    2.0822 O   0  0  0  0  0  0  0  0  0  0  0  0
    3.5420   -1.0694   -0.2512 C   0  0  2  0  0  0  0  0  0  0  0  0
    3.0878   -1.0721   -1.6396 O   0  0  0  0  0  0  0  0  0  0  0  0
    4.2672   -1.8395   -1.3190 C   0  0  2  0  0  0  0  0  0  0  0  0
    4.0491   -3.2958   -1.1272 C   0  0  1  0  0  0  0  0  0  0  0  0
    5.2681   -4.1896   -1.3764 C   0  0  1  0  0  0  0  0  0  0  0  0
    5.6994   -3.8265   -2.6682 O   0  0  0  0  0  0  0  0  0  0  0  0
    6.3403   -4.3569   -0.2439 C   0  0  1  0  0  0  0  0  0  0  0  0
    7.6540   -3.5120   -0.3249 C   0  0  0  0  0  0  0  0  0  0  0  0
    8.9116   -4.2904   -0.7497 C   0  0  0  0  0  0  0  0  0  0  0  0
    7.6626   -2.2478   -1.1856 C   0  0  0  0  0  0  0  0  0  0  0  0
    7.8059   -3.0542    1.0991 C   0  0  0  0  0  0  0  0  0  0  0  0
    6.4051   -2.9489    1.7191 C   0  0  1  0  0  0  0  0  0  0  0  0
    5.8837   -1.6877    1.3935 O   0  0  0  0  0  0  0  0  0  0  0  0
    5.7454   -4.2187    1.1820 C   0  0  1  0  0  0  0  0  0  0  0  0
    6.1406   -5.3565    2.1471 C   0  0  2  0  0  0  0  0  0  0  0  0
    5.6064   -6.7921    2.3113 C   0  0  0  0  0  0  0  0  0  0  0  0
    6.4598   -7.7992    3.0510 C   0  0  0  0  0  0  0  0  0  0  0  0
    4.8108   -7.5290    1.2498 C   0  0  0  0  0  0  0  0  0  0  0  0
    4.7086   -6.0912    6.3038 H   0  0  0  0  0  0  0  0  0  0  0  0
    4.3225   -7.2535    5.0331 H   0  0  0  0  0  0  0  0  0  0  0  0
    3.3939   -5.7467    5.1815 H   0  0  0  0  0  0  0  0  0  0  0  0
    2.8979   -5.3258    2.6535 H   0  0  0  0  0  0  0  0  0  0  0  0
    3.7324   -3.9086    3.3109 H   0  0  0  0  0  0  0  0  0  0  0  0
    4.1082   -5.2609    0.6804 H   0  0  0  0  0  0  0  0  0  0  0  0
    1.4389   -3.7946   -0.7063 H   0  0  0  0  0  0  0  0  0  0  0  0
    1.6175   -4.4975    0.9587 H   0  0  0  0  0  0  0  0  0  0  0  0
    2.3063   -5.3020   -0.4291 H   0  0  0  0  0  0  0  0  0  0  0  0
    1.8321   -1.9515    0.7131 H   0  0  0  0  0  0  0  0  0  0  0  0
    4.1755   -1.7216    2.1371 H   0  0  0  0  0  0  0  0  0  0  0  0
    3.9318   -0.1127    0.0944 H   0  0  0  0  0  0  0  0  0  0  0  0
    5.0958   -1.4741   -1.9117 H   0  0  0  0  0  0  0  0  0  0  0  0
    3.3417   -3.5524   -1.9169 H   0  0  0  0  0  0  0  0  0  0  0  0
    4.8633   -5.1925   -1.4999 H   0  0  0  0  0  0  0  0  0  0  0  0
    6.0391   -4.5908   -3.0926 H   0  0  0  0  0  0  0  0  0  0  0  0
    6.6518   -5.3975   -0.1934 H   0  0  0  0  0  0  0  0  0  0  0  0
    9.7904   -3.6677   -0.5842 H   0  0  0  0  0  0  0  0  0  0  0  0
    8.9481   -4.5249   -1.8191 H   0  0  0  0  0  0  0  0  0  0  0  0
    9.0197   -5.2088   -0.1760 H   0  0  0  0  0  0  0  0  0  0  0  0
    8.6287   -1.7677   -1.0311 H   0  0  0  0  0  0  0  0  0  0  0  0
    6.9036   -1.5384   -0.8615 H   0  0  0  0  0  0  0  0  0  0  0  0
    7.5909   -2.4087   -2.2560 H   0  0  0  0  0  0  0  0  0  0  0  0
    8.4314   -3.7638    1.6450 H   0  0  0  0  0  0  0  0  0  0  0  0
    8.3276   -2.0934    1.0744 H   0  0  0  0  0  0  0  0  0  0  0  0
    6.3143   -2.9615    2.7998 H   0  0  0  0  0  0  0  0  0  0  0  0
    6.4698   -1.0377    1.7324 H   0  0  0  0  0  0  0  0  0  0  0  0
    7.1303   -5.2501    2.5890 H   0  0  0  0  0  0  0  0  0  0  0  0
    7.1416   -8.2925    2.3605 H   0  0  0  0  0  0  0  0  0  0  0  0
    5.8283   -8.5479    3.5262 H   0  0  0  0  0  0  0  0  0  0  0  0
    7.0534   -7.3060    3.8273 H   0  0  0  0  0  0  0  0  0  0  0  0
    4.9048   -8.6081    1.3526 H   0  0  0  0  0  0  0  0  0  0  0  0
    5.1506   -7.2380    0.2590 H   0  0  0  0  0  0  0  0  0  0  0  0
    3.7532   -7.2908    1.3540 H   0  0  0  0  0  0  0  0  0  0  0  0
  1  2  1  0
  1 28  1  0
  1 29  1  0
  1 30  1  0
  3  2  1  1
  3 24  1  0
  3 25  1  0
  3  4  1  0
  4  5  1  0
  4 31  1  0
  4 32  1  0
  5 23  1  0
  5  6  1  0
  5 33  1  6
  6 13  1  0
  6  7  1  6
  6  8  1  0
  7 34  1  0
  7 35  1  0
  7 36  1  0
  8  9  1  0
  8 10  1  0
  8 37  1  1
  9 38  1  0
 10 12  1  0
 10 11  1  0
 10 39  1  1
 11 12  1  0
 12 13  1  0
 12 40  1  6
 13 14  1  0
 13 41  1  6
 14 15  1  0
 14 16  1  0
 14 42  1  6
 15 43  1  0
 16 23  1  0
 16 17  1  0
 16 44  1  1
 17 18  1  0
 17 19  1  0
 17 20  1  0
 18 45  1  0
 18 46  1  0
 18 47  1  0
 19 48  1  0
 19 49  1  0
 19 50  1  0
 20 21  1  0
 20 51  1  0
 20 52  1  0
 21 22  1  0
 23 21  1  1
 21 53  1  1
 22 54  1  0
 23 24  1  0
 24 25  1  0
 24 55  1  1
 25 26  1  0
 25 27  1  0
 26 56  1  0
 26 57  1  0
 26 58  1  0
 27 59  1  0
 27 60  1  0
 27 61  1  0
M  END
>  <i_m_ct_stereo_status>  (209) 
1

>  <s_m_source_file>  (209) 
/var/tmp/pbs.5076255.sched01/tmp9rjncpta/544vc0qzzn.sdf

>  <i_m_source_file_index>  (209) 
45

>  <i_lp_mmshare_version>  (209) 
48012

>  <i_f3d_flags>  (209) 
0

>  <s_epik_input>  (209) 
W0NIM11DMShbQ0gzXSlbQ0BASF0yW0NAQF0xKE9bQ0gzXSlbQ0gyXVtDQEhdKFtDQEBdMjM0KVtDQF01KFtDSDNdKVtDQEBIXShbQ0BASF02W0NAQEhdKE82KVtDQEBIXTVbT0hdKVtDQEBIXShbT0hdKVtDQEhdM0MoW0NIM10pKFtDSDNdKVtDSDJdW0NASF00W09IXQ==

>  <s_epik_cmdline>  (209) 
J2VwaWtfcHl0aG9uJywgJy1waHQnLCAnMi4wJywgJy1waCcsICc3LjAnLCAnLXRuJywgJzgnLCAnLW1hJywgJzIwMCcsICctaW1hZScsICc8aW5maWxlLm1hZT4nLCAnLW9tYWUnLCAnPG91dGZpbGUubWFlPic=

>  <r_lp_tautomer_probability>  (209) 
1

>  <r_epik_Ionization_Penalty>  (209) 
1.37507e-06

>  <r_epik_Ionization_Penalty_Charging>  (209) 
0

>  <r_epik_Ionization_Penalty_Neutral>  (209) 
1.37507e-06

>  <r_epik_State_Penalty>  (209) 
-0

>  <r_epik_Charging_Adjusted_Penalty>  (209) 
0

>  <i_epik_Tot_Q>  (209) 
0

>  <i_epik_Tot_abs_Q>  (209) 
0

>  <s_lp_Force_Field>  (209) 
OPLS3e

>  <r_lp_Energy>  (209) 
86.6021

>  <b_lp_Chiralities_Consistent>  (209) 
1

>  <s_lp_Variant>  (209) 
63:0-1

>  <s_i_glide_gridfile>  (209) 
pfpi4k_grid

>  <i_i_glide_lignum>  (209) 
45

>  <i_i_glide_rotatable_bonds>  (209) 
4

>  <r_i_docking_score>  (209) 
-2.39288

>  <r_i_glide_ligand_efficiency>  (209) 
-0.0886252

>  <r_i_glide_ligand_efficiency_sa>  (209) 
-0.265876

>  <r_i_glide_ligand_efficiency_ln>  (209) 
-0.557023

>  <r_i_glide_gscore>  (209) 
-2.39288

>  <r_i_glide_lipo>  (209) 
-0.577397

>  <r_i_glide_hbond>  (209) 
0

>  <r_i_glide_metal>  (209) 
-0

>  <r_i_glide_rewards>  (209) 
-1.32839

>  <r_i_glide_evdw>  (209) 
-8.77727

>  <r_i_glide_ecoul>  (209) 
-0.321519

>  <r_i_glide_erotb>  (209) 
0

>  <r_i_glide_esite>  (209) 
0

>  <r_i_glide_emodel>  (209) 
-14.8869

>  <r_i_glide_energy>  (209) 
-9.09879

>  <r_i_glide_einternal>  (209) 
1.23662

>  <r_i_glide_intrahb_reward>  (209) 
-0.5

>  <i_i_glide_confnum>  (209) 
2

>  <i_i_glide_posenum>  (209) 
37

>  <r_i_glide_eff_state_penalty>  (209) 
0

>  <ligand_id>  (209) 
63

>  <original_smiles>  (209) 
COC12CC3C4(C)C(O)C5OC5C4C(O)C4C(C)(C)CC(O)C43C1C2(C)C

>  <smiles>  (209) 
[H]OC1([H])C2([H])C3([H])OC3([H])C([H])(O[H])C2(C([H])([H])[H])C2([H])C([H])([H])C3(OC([H])([H])[H])C([H])(C24C([H])(O[H])C([H])([H])C(C([H])([H])[H])(C([H])([H])[H])C14[H])C3(C([H])([H])[H])C([H])([H])[H]

$$$$
64:0:0
     RDKit          3D

 43 46  0  0  1  0  0  0  0  0999 V2000
    5.4916   -3.2564   -1.9145 C   0  0  0  0  0  0  0  0  0  0  0  0
    4.4277   -2.2206   -1.4929 C   0  0  1  0  0  0  0  0  0  0  0  0
    4.8331   -0.9038   -2.1375 C   0  0  0  0  0  0  0  0  0  0  0  0
    4.2129   -0.2789   -3.1447 C   0  0  0  0  0  0  0  0  0  0  0  0
    3.0693   -0.8711   -3.8164 C   0  0  0  0  0  0  0  0  0  0  0  0
    2.4969   -0.2582   -4.7165 O   0  0  0  0  0  0  0  0  0  0  0  0
    2.6458   -2.2988   -3.4490 C   0  0  0  0  0  0  0  0  0  0  0  0
    3.0817   -2.7109   -2.0379 C   0  0  0  0  0  0  0  0  0  0  0  0
    2.3492   -3.5748   -1.3091 C   0  0  0  0  0  0  0  0  0  0  0  0
    2.8287   -4.1481    0.0073 C   0  0  0  0  0  0  0  0  0  0  0  0
    3.5912   -3.1259    0.8667 C   0  0  1  0  0  0  0  0  0  0  0  0
    4.3931   -2.0583    0.0688 C   0  0  2  0  0  0  0  0  0  0  0  0
    3.8130   -0.7216    0.5795 C   0  0  0  0  0  0  0  0  0  0  0  0
    3.2360   -0.9632    1.9847 C   0  0  2  0  0  0  0  0  0  0  0  0
    2.1771    0.1011    2.3539 C   0  0  0  0  0  0  0  0  0  0  0  0
    4.3385   -0.9750    3.0719 C   0  0  0  0  0  0  0  0  0  0  0  0
    5.2131   -0.1089    3.0575 O   0  0  0  0  0  0  0  0  0  0  0  0
    4.3291   -1.9287    4.0239 N   0  0  0  0  0  0  0  0  0  0  0  0
    3.4430   -2.9351    4.1418 C   0  0  0  0  0  0  0  0  0  0  0  0
    3.5122   -3.7569    5.0552 O   0  0  0  0  0  0  0  0  0  0  0  0
    2.3016   -3.0497    3.1293 C   0  0  0  0  0  0  0  0  0  0  0  0
    2.6151   -2.3526    1.7904 C   0  0  2  0  0  0  0  0  0  0  0  0
    5.5002   -3.3819   -3.0016 H   0  0  0  0  0  0  0  0  0  0  0  0
    5.2935   -4.2413   -1.4887 H   0  0  0  0  0  0  0  0  0  0  0  0
    6.4960   -2.9558   -1.6164 H   0  0  0  0  0  0  0  0  0  0  0  0
    5.7094   -0.4429   -1.7063 H   0  0  0  0  0  0  0  0  0  0  0  0
    4.5555    0.6720   -3.5286 H   0  0  0  0  0  0  0  0  0  0  0  0
    1.5667   -2.4157   -3.5310 H   0  0  0  0  0  0  0  0  0  0  0  0
    3.0901   -2.9873   -4.1677 H   0  0  0  0  0  0  0  0  0  0  0  0
    1.4451   -3.9986   -1.7182 H   0  0  0  0  0  0  0  0  0  0  0  0
    1.9899   -4.5595    0.5640 H   0  0  0  0  0  0  0  0  0  0  0  0
    3.4786   -4.9929   -0.2185 H   0  0  0  0  0  0  0  0  0  0  0  0
    4.3078   -3.6711    1.4866 H   0  0  0  0  0  0  0  0  0  0  0  0
    5.4239   -2.0856    0.4232 H   0  0  0  0  0  0  0  0  0  0  0  0
    4.5363    0.0934    0.5473 H   0  0  0  0  0  0  0  0  0  0  0  0
    2.9843   -0.4338   -0.0635 H   0  0  0  0  0  0  0  0  0  0  0  0
    1.3501    0.1211    1.6390 H   0  0  0  0  0  0  0  0  0  0  0  0
    2.6113    1.1033    2.3717 H   0  0  0  0  0  0  0  0  0  0  0  0
    1.7465   -0.0858    3.3385 H   0  0  0  0  0  0  0  0  0  0  0  0
    5.0550   -1.8833    4.7227 H   0  0  0  0  0  0  0  0  0  0  0  0
    2.0592   -4.0991    2.9684 H   0  0  0  0  0  0  0  0  0  0  0  0
    1.4150   -2.6002    3.5751 H   0  0  0  0  0  0  0  0  0  0  0  0
    1.6707   -2.2248    1.2490 H   0  0  0  0  0  0  0  0  0  0  0  0
  2  1  1  1
  1 23  1  0
  1 24  1  0
  1 25  1  0
  2  8  1  0
  2 12  1  0
  2  3  1  0
  3  4  2  0
  3 26  1  0
  4  5  1  0
  4 27  1  0
  5  6  2  0
  5  7  1  0
  7  8  1  0
  7 28  1  0
  7 29  1  0
  8  9  2  0
  9 10  1  0
  9 30  1  0
 10 11  1  0
 10 31  1  0
 10 32  1  0
 11 22  1  0
 11 12  1  0
 11 33  1  1
 12 13  1  0
 12 34  1  1
 13 14  1  0
 13 35  1  0
 13 36  1  0
 14 22  1  0
 14 15  1  1
 14 16  1  0
 15 37  1  0
 15 38  1  0
 15 39  1  0
 16 17  2  0
 16 18  1  0
 18 19  1  0
 18 40  1  0
 19 20  2  0
 19 21  1  0
 21 22  1  0
 21 41  1  0
 21 42  1  0
 22 43  1  6
M  END
>  <i_m_ct_stereo_status>  (210) 
1

>  <s_m_source_file>  (210) 
/var/tmp/pbs.5076255.sched01/tmp9rjncpta/544vc0qzzn.sdf

>  <i_m_source_file_index>  (210) 
46

>  <i_lp_mmshare_version>  (210) 
48012

>  <i_f3d_flags>  (210) 
0

>  <s_epik_input>  (210) 
W0NIXTE9W0NIXUMoPU8pW0NIMl1DKFtDQEBdMTJbQ0gzXSk9W0NIXVtDSDJdW0NASF0zW0NAQEhdMltDSDJdW0NAQF00KFtDSDNdKVtDQEBIXTNbQ0gyXUMoPU8pW05IXUM0PU8=

>  <s_epik_cmdline>  (210) 
J2VwaWtfcHl0aG9uJywgJy1waHQnLCAnMi4wJywgJy1waCcsICc3LjAnLCAnLXRuJywgJzgnLCAnLW1hJywgJzIwMCcsICctaW1hZScsICc8aW5maWxlLm1hZT4nLCAnLW9tYWUnLCAnPG91dGZpbGUubWFlPic=

>  <r_lp_tautomer_probability>  (210) 
1

>  <r_epik_Ionization_Penalty>  (210) 
1.06855e-05

>  <r_epik_Ionization_Penalty_Charging>  (210) 
0

>  <r_epik_Ionization_Penalty_Neutral>  (210) 
1.06855e-05

>  <r_epik_State_Penalty>  (210) 
-0

>  <r_epik_Charging_Adjusted_Penalty>  (210) 
0

>  <i_epik_Tot_Q>  (210) 
0

>  <i_epik_Tot_abs_Q>  (210) 
0

>  <s_lp_Force_Field>  (210) 
OPLS3e

>  <r_lp_Energy>  (210) 
44.4996

>  <b_lp_Chiralities_Consistent>  (210) 
1

>  <s_lp_Variant>  (210) 
64:0-1

>  <s_i_glide_gridfile>  (210) 
pfpi4k_grid

>  <i_i_glide_lignum>  (210) 
46

>  <i_i_glide_rotatable_bonds>  (210) 
0

>  <r_i_docking_score>  (210) 
-3.70276

>  <r_i_glide_ligand_efficiency>  (210) 
-0.168307

>  <r_i_glide_ligand_efficiency_sa>  (210) 
-0.471603

>  <r_i_glide_ligand_efficiency_ln>  (210) 
-0.905089

>  <r_i_glide_gscore>  (210) 
-3.70276

>  <r_i_glide_lipo>  (210) 
-0.541188

>  <r_i_glide_hbond>  (210) 
-0.0429524

>  <r_i_glide_metal>  (210) 
-0

>  <r_i_glide_rewards>  (210) 
-1.69884

>  <r_i_glide_evdw>  (210) 
-27.2015

>  <r_i_glide_ecoul>  (210) 
-0.398002

>  <r_i_glide_erotb>  (210) 
0

>  <r_i_glide_esite>  (210) 
0

>  <r_i_glide_emodel>  (210) 
-33.5434

>  <r_i_glide_energy>  (210) 
-27.5995

>  <r_i_glide_einternal>  (210) 
0

>  <r_i_glide_intrahb_reward>  (210) 
-0

>  <i_i_glide_confnum>  (210) 
2

>  <i_i_glide_posenum>  (210) 
35

>  <r_i_glide_eff_state_penalty>  (210) 
0

>  <ligand_id>  (210) 
64

>  <original_smiles>  (210) 
CC12C=CC(=O)CC1=CCC1C2CC2(C)C(=O)NC(=O)CC12

>  <smiles>  (210) 
[H]C1=C([H])C2(C([H])([H])[H])C(=C([H])C([H])([H])C3([H])C2([H])C([H])([H])C2(C([H])([H])[H])C(=O)N([H])C(=O)C([H])([H])C32[H])C([H])([H])C1=O

$$$$
64:0:1
     RDKit          3D

 43 46  0  0  1  0  0  0  0  0999 V2000
    4.5930   -1.0155   -0.3364 C   0  0  0  0  0  0  0  0  0  0  0  0
    4.3645   -2.5348   -0.5066 C   0  0  1  0  0  0  0  0  0  0  0  0
    3.1932   -2.6680   -1.4704 C   0  0  0  0  0  0  0  0  0  0  0  0
    3.2505   -3.0863   -2.7389 C   0  0  0  0  0  0  0  0  0  0  0  0
    4.5338   -3.4995   -3.3103 C   0  0  0  0  0  0  0  0  0  0  0  0
    4.6154   -4.0892   -4.3769 O   0  0  0  0  0  0  0  0  0  0  0  0
    5.8277   -3.1772   -2.5824 C   0  0  0  0  0  0  0  0  0  0  0  0
    5.6674   -3.0895   -1.0801 C   0  0  0  0  0  0  0  0  0  0  0  0
    6.6716   -3.4392   -0.2633 C   0  0  0  0  0  0  0  0  0  0  0  0
    6.6111   -3.2414    1.2263 C   0  0  0  0  0  0  0  0  0  0  0  0
    5.2159   -3.5114    1.8245 C   0  0  1  0  0  0  0  0  0  0  0  0
    4.0206   -3.1933    0.8741 C   0  0  2  0  0  0  0  0  0  0  0  0
    3.2717   -4.5445    0.7813 C   0  0  0  0  0  0  0  0  0  0  0  0
    3.5912   -5.3384    2.0663 C   0  0  2  0  0  0  0  0  0  0  0  0
    3.3497   -6.8449    1.8601 C   0  0  0  0  0  0  0  0  0  0  0  0
    2.7456   -4.8658    3.2873 C   0  0  0  0  0  0  0  0  0  0  0  0
    1.5477   -4.6917    3.1258 O   0  0  0  0  0  0  0  0  0  0  0  0
    3.3343   -4.6784    4.4806 N   0  0  0  0  0  0  0  0  0  0  0  0
    4.6321   -4.8641    4.7591 C   0  0  0  0  0  0  0  0  0  0  0  0
    5.0962   -4.6769    5.8709 O   0  0  0  0  0  0  0  0  0  0  0  0
    5.5881   -5.3361    3.6515 C   0  0  0  0  0  0  0  0  0  0  0  0
    5.0784   -5.0008    2.2382 C   0  0  2  0  0  0  0  0  0  0  0  0
    4.8450   -0.5623   -1.2978 H   0  0  0  0  0  0  0  0  0  0  0  0
    5.4072   -0.7824    0.3470 H   0  0  0  0  0  0  0  0  0  0  0  0
    3.6926   -0.5113    0.0241 H   0  0  0  0  0  0  0  0  0  0  0  0
    2.2283   -2.4140   -1.0680 H   0  0  0  0  0  0  0  0  0  0  0  0
    2.3757   -3.1942   -3.3617 H   0  0  0  0  0  0  0  0  0  0  0  0
    6.5934   -3.9047   -2.8347 H   0  0  0  0  0  0  0  0  0  0  0  0
    6.2014   -2.2330   -2.9381 H   0  0  0  0  0  0  0  0  0  0  0  0
    7.6234   -3.7703   -0.6606 H   0  0  0  0  0  0  0  0  0  0  0  0
    7.3632   -3.8821    1.6883 H   0  0  0  0  0  0  0  0  0  0  0  0
    6.9060   -2.2103    1.4397 H   0  0  0  0  0  0  0  0  0  0  0  0
    5.1043   -2.8839    2.7074 H   0  0  0  0  0  0  0  0  0  0  0  0
    3.3529   -2.5140    1.4070 H   0  0  0  0  0  0  0  0  0  0  0  0
    2.2024   -4.3974    0.6295 H   0  0  0  0  0  0  0  0  0  0  0  0
    3.6342   -5.1066   -0.0821 H   0  0  0  0  0  0  0  0  0  0  0  0
    3.9538   -7.2516    1.0434 H   0  0  0  0  0  0  0  0  0  0  0  0
    2.3023   -7.0616    1.6275 H   0  0  0  0  0  0  0  0  0  0  0  0
    3.6039   -7.4193    2.7586 H   0  0  0  0  0  0  0  0  0  0  0  0
    2.7467   -4.3913    5.2524 H   0  0  0  0  0  0  0  0  0  0  0  0
    6.5800   -4.9269    3.8147 H   0  0  0  0  0  0  0  0  0  0  0  0
    5.7052   -6.4137    3.7533 H   0  0  0  0  0  0  0  0  0  0  0  0
    5.6477   -5.6032    1.5213 H   0  0  0  0  0  0  0  0  0  0  0  0
  2  1  1  1
  1 23  1  0
  1 24  1  0
  1 25  1  0
  2  8  1  0
  2 12  1  0
  2  3  1  0
  3  4  2  0
  3 26  1  0
  4  5  1  0
  4 27  1  0
  5  6  2  0
  5  7  1  0
  7  8  1  0
  7 28  1  0
  7 29  1  0
  8  9  2  0
  9 10  1  0
  9 30  1  0
 10 11  1  0
 10 31  1  0
 10 32  1  0
 11 22  1  0
 11 12  1  0
 11 33  1  1
 12 13  1  0
 12 34  1  1
 13 14  1  0
 13 35  1  0
 13 36  1  0
 14 22  1  0
 14 15  1  6
 14 16  1  0
 15 37  1  0
 15 38  1  0
 15 39  1  0
 16 17  2  0
 16 18  1  0
 18 19  1  0
 18 40  1  0
 19 20  2  0
 19 21  1  0
 21 22  1  0
 21 41  1  0
 21 42  1  0
 22 43  1  6
M  END
>  <i_m_ct_stereo_status>  (211) 
1

>  <s_m_source_file>  (211) 
/var/tmp/pbs.5076255.sched01/tmp9rjncpta/544vc0qzzn.sdf

>  <i_m_source_file_index>  (211) 
46

>  <i_lp_mmshare_version>  (211) 
48012

>  <i_f3d_flags>  (211) 
0

>  <s_epik_input>  (211) 
W0NIXTE9W0NIXUMoPU8pW0NIMl1DKFtDQEBdMTJbQ0gzXSk9W0NIXVtDSDJdW0NASF0zW0NAQEhdMltDSDJdW0NAQF00KFtDSDNdKVtDQEBIXTNbQ0gyXUMoPU8pW05IXUM0PU8=

>  <s_epik_cmdline>  (211) 
J2VwaWtfcHl0aG9uJywgJy1waHQnLCAnMi4wJywgJy1waCcsICc3LjAnLCAnLXRuJywgJzgnLCAnLW1hJywgJzIwMCcsICctaW1hZScsICc8aW5maWxlLm1hZT4nLCAnLW9tYWUnLCAnPG91dGZpbGUubWFlPic=

>  <r_lp_tautomer_probability>  (211) 
1

>  <r_epik_Ionization_Penalty>  (211) 
1.06855e-05

>  <r_epik_Ionization_Penalty_Charging>  (211) 
0

>  <r_epik_Ionization_Penalty_Neutral>  (211) 
1.06855e-05

>  <r_epik_State_Penalty>  (211) 
-0

>  <r_epik_Charging_Adjusted_Penalty>  (211) 
0

>  <i_epik_Tot_Q>  (211) 
0

>  <i_epik_Tot_abs_Q>  (211) 
0

>  <s_lp_Force_Field>  (211) 
OPLS3e

>  <r_lp_Energy>  (211) 
44.4996

>  <b_lp_Chiralities_Consistent>  (211) 
1

>  <s_lp_Variant>  (211) 
64:0-1

>  <s_i_glide_gridfile>  (211) 
pfpi4k_grid

>  <i_i_glide_lignum>  (211) 
46

>  <i_i_glide_rotatable_bonds>  (211) 
0

>  <r_i_docking_score>  (211) 
-3.58468

>  <r_i_glide_ligand_efficiency>  (211) 
-0.16294

>  <r_i_glide_ligand_efficiency_sa>  (211) 
-0.456565

>  <r_i_glide_ligand_efficiency_ln>  (211) 
-0.876227

>  <r_i_glide_gscore>  (211) 
-3.58468

>  <r_i_glide_lipo>  (211) 
-0.590764

>  <r_i_glide_hbond>  (211) 
-0.000687858

>  <r_i_glide_metal>  (211) 
-0

>  <r_i_glide_rewards>  (211) 
-1.53734

>  <r_i_glide_evdw>  (211) 
-23.1028

>  <r_i_glide_ecoul>  (211) 
-2.00182

>  <r_i_glide_erotb>  (211) 
0

>  <r_i_glide_esite>  (211) 
-0.000472293

>  <r_i_glide_emodel>  (211) 
-30.8184

>  <r_i_glide_energy>  (211) 
-25.1047

>  <r_i_glide_einternal>  (211) 
0

>  <r_i_glide_intrahb_reward>  (211) 
-0

>  <i_i_glide_confnum>  (211) 
2

>  <i_i_glide_posenum>  (211) 
2

>  <r_i_glide_eff_state_penalty>  (211) 
0

>  <ligand_id>  (211) 
64

>  <original_smiles>  (211) 
CC12C=CC(=O)CC1=CCC1C2CC2(C)C(=O)NC(=O)CC12

>  <smiles>  (211) 
[H]C1=C([H])C2(C([H])([H])[H])C(=C([H])C([H])([H])C3([H])C2([H])C([H])([H])C2(C([H])([H])[H])C(=O)N([H])C(=O)C([H])([H])C32[H])C([H])([H])C1=O

$$$$
64:0:2
     RDKit          3D

 43 46  0  0  1  0  0  0  0  0999 V2000
    5.7904   -3.2344   -0.2476 C   0  0  0  0  0  0  0  0  0  0  0  0
    4.5647   -2.2924   -0.2849 C   0  0  1  0  0  0  0  0  0  0  0  0
    5.0108   -1.0582   -1.0443 C   0  0  0  0  0  0  0  0  0  0  0  0
    4.5989   -0.6784   -2.2631 C   0  0  0  0  0  0  0  0  0  0  0  0
    3.6778   -1.5118   -3.0399 C   0  0  0  0  0  0  0  0  0  0  0  0
    3.2633   -1.1750   -4.1449 O   0  0  0  0  0  0  0  0  0  0  0  0
    3.3248   -2.9088   -2.5302 C   0  0  0  0  0  0  0  0  0  0  0  0
    3.4587   -3.0526   -1.0189 C   0  0  0  0  0  0  0  0  0  0  0  0
    2.6558   -3.8813   -0.3329 C   0  0  0  0  0  0  0  0  0  0  0  0
    2.8355   -4.1735    1.1374 C   0  0  0  0  0  0  0  0  0  0  0  0
    3.2609   -2.9354    1.9516 C   0  0  1  0  0  0  0  0  0  0  0  0
    4.1298   -1.9019    1.1746 C   0  0  2  0  0  0  0  0  0  0  0  0
    3.3181   -0.5870    1.2867 C   0  0  0  0  0  0  0  0  0  0  0  0
    2.4389   -0.6956    2.5503 C   0  0  2  0  0  0  0  0  0  0  0  0
    1.2335    0.2675    2.4789 C   0  0  0  0  0  0  0  0  0  0  0  0
    3.2337   -0.4032    3.8552 C   0  0  0  0  0  0  0  0  0  0  0  0
    3.9875    0.5547    3.8760 O   0  0  0  0  0  0  0  0  0  0  0  0
    3.0853   -1.1878    4.9316 N   0  0  0  0  0  0  0  0  0  0  0  0
    2.2864   -2.2640    5.0190 C   0  0  0  0  0  0  0  0  0  0  0  0
    2.1861   -2.9218    6.0372 O   0  0  0  0  0  0  0  0  0  0  0  0
    1.4462   -2.6896    3.8060 C   0  0  0  0  0  0  0  0  0  0  0  0
    2.0189   -2.1651    2.4742 C   0  0  2  0  0  0  0  0  0  0  0  0
    6.0811   -3.5190   -1.2648 H   0  0  0  0  0  0  0  0  0  0  0  0
    5.5833   -4.1645    0.2845 H   0  0  0  0  0  0  0  0  0  0  0  0
    6.6624   -2.7692    0.2152 H   0  0  0  0  0  0  0  0  0  0  0  0
    5.7061   -0.4213   -0.5174 H   0  0  0  0  0  0  0  0  0  0  0  0
    4.9550    0.2334   -2.7108 H   0  0  0  0  0  0  0  0  0  0  0  0
    2.3086   -3.1619   -2.8374 H   0  0  0  0  0  0  0  0  0  0  0  0
    4.0007   -3.6223   -2.9955 H   0  0  0  0  0  0  0  0  0  0  0  0
    1.9252   -4.4836   -0.8602 H   0  0  0  0  0  0  0  0  0  0  0  0
    1.9181   -4.5984    1.5436 H   0  0  0  0  0  0  0  0  0  0  0  0
    3.5904   -4.9574    1.2369 H   0  0  0  0  0  0  0  0  0  0  0  0
    3.8461   -3.2832    2.8021 H   0  0  0  0  0  0  0  0  0  0  0  0
    5.0365   -1.7386    1.7593 H   0  0  0  0  0  0  0  0  0  0  0  0
    3.9584    0.2951    1.2872 H   0  0  0  0  0  0  0  0  0  0  0  0
    2.6570   -0.4925    0.4233 H   0  0  0  0  0  0  0  0  0  0  0  0
    0.6083    0.0732    1.6030 H   0  0  0  0  0  0  0  0  0  0  0  0
    1.5524    1.3093    2.4157 H   0  0  0  0  0  0  0  0  0  0  0  0
    0.5920    0.1781    3.3575 H   0  0  0  0  0  0  0  0  0  0  0  0
    3.6105   -0.9431    5.7618 H   0  0  0  0  0  0  0  0  0  0  0  0
    1.3427   -3.7739    3.7868 H   0  0  0  0  0  0  0  0  0  0  0  0
    0.4402   -2.2948    3.9499 H   0  0  0  0  0  0  0  0  0  0  0  0
    1.2381   -2.2382    1.7155 H   0  0  0  0  0  0  0  0  0  0  0  0
  2  1  1  1
  1 23  1  0
  1 24  1  0
  1 25  1  0
  2  8  1  0
  2 12  1  0
  2  3  1  0
  3  4  2  0
  3 26  1  0
  4  5  1  0
  4 27  1  0
  5  6  2  0
  5  7  1  0
  7  8  1  0
  7 28  1  0
  7 29  1  0
  8  9  2  0
  9 10  1  0
  9 30  1  0
 10 11  1  0
 10 31  1  0
 10 32  1  0
 11 22  1  0
 11 12  1  0
 11 33  1  1
 12 13  1  0
 12 34  1  1
 13 14  1  0
 13 35  1  0
 13 36  1  0
 14 22  1  0
 14 15  1  6
 14 16  1  0
 15 37  1  0
 15 38  1  0
 15 39  1  0
 16 17  2  0
 16 18  1  0
 18 19  1  0
 18 40  1  0
 19 20  2  0
 19 21  1  0
 21 22  1  0
 21 41  1  0
 21 42  1  0
 22 43  1  6
M  END
>  <i_m_ct_stereo_status>  (212) 
1

>  <s_m_source_file>  (212) 
/var/tmp/pbs.5076255.sched01/tmp9rjncpta/544vc0qzzn.sdf

>  <i_m_source_file_index>  (212) 
46

>  <i_lp_mmshare_version>  (212) 
48012

>  <i_f3d_flags>  (212) 
0

>  <s_epik_input>  (212) 
W0NIXTE9W0NIXUMoPU8pW0NIMl1DKFtDQEBdMTJbQ0gzXSk9W0NIXVtDSDJdW0NASF0zW0NAQEhdMltDSDJdW0NAQF00KFtDSDNdKVtDQEBIXTNbQ0gyXUMoPU8pW05IXUM0PU8=

>  <s_epik_cmdline>  (212) 
J2VwaWtfcHl0aG9uJywgJy1waHQnLCAnMi4wJywgJy1waCcsICc3LjAnLCAnLXRuJywgJzgnLCAnLW1hJywgJzIwMCcsICctaW1hZScsICc8aW5maWxlLm1hZT4nLCAnLW9tYWUnLCAnPG91dGZpbGUubWFlPic=

>  <r_lp_tautomer_probability>  (212) 
1

>  <r_epik_Ionization_Penalty>  (212) 
1.06855e-05

>  <r_epik_Ionization_Penalty_Charging>  (212) 
0

>  <r_epik_Ionization_Penalty_Neutral>  (212) 
1.06855e-05

>  <r_epik_State_Penalty>  (212) 
-0

>  <r_epik_Charging_Adjusted_Penalty>  (212) 
0

>  <i_epik_Tot_Q>  (212) 
0

>  <i_epik_Tot_abs_Q>  (212) 
0

>  <s_lp_Force_Field>  (212) 
OPLS3e

>  <r_lp_Energy>  (212) 
44.4996

>  <b_lp_Chiralities_Consistent>  (212) 
1

>  <s_lp_Variant>  (212) 
64:0-1

>  <s_i_glide_gridfile>  (212) 
pfpi4k_grid

>  <i_i_glide_lignum>  (212) 
46

>  <i_i_glide_rotatable_bonds>  (212) 
0

>  <r_i_docking_score>  (212) 
-3.09049

>  <r_i_glide_ligand_efficiency>  (212) 
-0.140477

>  <r_i_glide_ligand_efficiency_sa>  (212) 
-0.393622

>  <r_i_glide_ligand_efficiency_ln>  (212) 
-0.755429

>  <r_i_glide_gscore>  (212) 
-3.09049

>  <r_i_glide_lipo>  (212) 
-0.0882631

>  <r_i_glide_hbond>  (212) 
0

>  <r_i_glide_metal>  (212) 
-0

>  <r_i_glide_rewards>  (212) 
-1.38491

>  <r_i_glide_evdw>  (212) 
-27.4454

>  <r_i_glide_ecoul>  (212) 
-1.63364

>  <r_i_glide_erotb>  (212) 
0

>  <r_i_glide_esite>  (212) 
0

>  <r_i_glide_emodel>  (212) 
-33.9788

>  <r_i_glide_energy>  (212) 
-29.0791

>  <r_i_glide_einternal>  (212) 
0

>  <r_i_glide_intrahb_reward>  (212) 
-0

>  <i_i_glide_confnum>  (212) 
1

>  <i_i_glide_posenum>  (212) 
8

>  <r_i_glide_eff_state_penalty>  (212) 
0

>  <ligand_id>  (212) 
64

>  <original_smiles>  (212) 
CC12C=CC(=O)CC1=CCC1C2CC2(C)C(=O)NC(=O)CC12

>  <smiles>  (212) 
[H]C1=C([H])C2(C([H])([H])[H])C(=C([H])C([H])([H])C3([H])C2([H])C([H])([H])C2(C([H])([H])[H])C(=O)N([H])C(=O)C([H])([H])C32[H])C([H])([H])C1=O

$$$$
65:0:0
     RDKit          3D

 61 66  0  0  1  0  0  0  0  0999 V2000
    2.0144   -4.7387    5.8001 C   0  0  0  0  0  0  0  0  0  0  0  0
    2.3344   -3.5142    4.9232 C   0  0  0  0  0  0  0  0  0  0  0  0
    1.5995   -2.3201    5.5890 C   0  0  0  0  0  0  0  0  0  0  0  0
    3.7205   -3.1983    4.9733 O   0  0  0  0  0  0  0  0  0  0  0  0
    4.5321   -4.3375    4.3855 O   0  0  0  0  0  0  0  0  0  0  0  0
    4.3974   -4.3813    2.9616 C   0  0  2  0  0  0  0  0  0  0  0  0
    4.9051   -3.0752    2.2635 C   0  0  0  0  0  0  0  0  0  0  0  0
    4.1396   -2.5181    0.9925 C   0  0  2  0  0  0  0  0  0  0  0  0
    2.6326   -2.1156    1.2803 C   0  0  0  0  0  0  0  0  0  0  0  0
    2.1231   -2.2449    2.7357 C   0  0  0  0  0  0  0  0  0  0  0  0
    2.0043   -3.6707    3.3986 C   0  0  1  0  0  0  0  0  0  0  0  0
    2.9364   -4.6712    2.6523 C   0  0  2  0  0  0  0  0  0  0  0  0
    2.7655   -6.1994    2.3980 C   0  0  0  0  0  0  0  0  0  0  0  0
    2.5825   -7.0659    3.6656 C   0  0  0  0  0  0  0  0  0  0  0  0
    1.5217   -6.5023    1.5220 C   0  0  0  0  0  0  0  0  0  0  0  0
    4.1567   -6.4953    1.6906 C   0  0  1  0  0  0  0  0  0  0  0  0
    4.5512   -7.9968    1.7385 C   0  0  0  0  0  0  0  0  0  0  0  0
    4.2526   -6.0433    0.1809 C   0  0  0  0  0  0  0  0  0  0  0  0
    5.0044   -4.7469   -0.2564 C   0  0  0  0  0  0  0  0  0  0  0  0
    4.2042   -3.4190   -0.3136 C   0  0  2  0  0  0  0  0  0  0  0  0
    4.7703   -2.5159   -1.4102 C   0  0  2  0  0  0  0  0  0  0  0  0
    4.1911   -2.6640   -2.8094 C   0  0  0  0  0  0  0  0  0  0  0  0
    6.1700   -2.1953   -1.3336 O   0  0  0  0  0  0  0  0  0  0  0  0
    5.2380   -1.2111   -0.8709 C   0  0  2  0  0  0  0  0  0  0  0  0
    4.8796   -1.2327    0.5637 C   0  0  0  0  0  0  0  0  0  0  0  0
    5.1353   -0.3187    1.3455 O   0  0  0  0  0  0  0  0  0  0  0  0
    5.1378   -5.6733    2.5513 C   0  0  0  0  0  0  0  0  0  0  0  0
    1.0397   -5.1508    5.5421 H   0  0  0  0  0  0  0  0  0  0  0  0
    1.9713   -4.4938    6.8618 H   0  0  0  0  0  0  0  0  0  0  0  0
    2.7647   -5.5167    5.7297 H   0  0  0  0  0  0  0  0  0  0  0  0
    0.5272   -2.3663    5.3992 H   0  0  0  0  0  0  0  0  0  0  0  0
    1.9619   -1.3492    5.2524 H   0  0  0  0  0  0  0  0  0  0  0  0
    1.7436   -2.3122    6.6713 H   0  0  0  0  0  0  0  0  0  0  0  0
    4.9036   -2.2892    3.0171 H   0  0  0  0  0  0  0  0  0  0  0  0
    5.9657   -3.1809    2.0376 H   0  0  0  0  0  0  0  0  0  0  0  0
    2.4571   -1.0809    0.9862 H   0  0  0  0  0  0  0  0  0  0  0  0
    1.9325   -2.6580    0.6478 H   0  0  0  0  0  0  0  0  0  0  0  0
    2.7740   -1.5870    3.3097 H   0  0  0  0  0  0  0  0  0  0  0  0
    1.1375   -1.7781    2.7914 H   0  0  0  0  0  0  0  0  0  0  0  0
    0.9772   -4.0148    3.2878 H   0  0  0  0  0  0  0  0  0  0  0  0
    2.7747   -4.4337    1.6202 H   0  0  0  0  0  0  0  0  0  0  0  0
    2.4735   -8.1196    3.4075 H   0  0  0  0  0  0  0  0  0  0  0  0
    1.6657   -6.8157    4.1933 H   0  0  0  0  0  0  0  0  0  0  0  0
    3.4238   -7.0016    4.3544 H   0  0  0  0  0  0  0  0  0  0  0  0
    1.5471   -7.5261    1.1499 H   0  0  0  0  0  0  0  0  0  0  0  0
    1.4178   -5.8419    0.6626 H   0  0  0  0  0  0  0  0  0  0  0  0
    0.6071   -6.3937    2.1039 H   0  0  0  0  0  0  0  0  0  0  0  0
    5.5236   -8.1701    1.2742 H   0  0  0  0  0  0  0  0  0  0  0  0
    3.8253   -8.6202    1.2144 H   0  0  0  0  0  0  0  0  0  0  0  0
    4.6456   -8.3844    2.7536 H   0  0  0  0  0  0  0  0  0  0  0  0
    4.7886   -6.8331   -0.3443 H   0  0  0  0  0  0  0  0  0  0  0  0
    3.2891   -6.0728   -0.3185 H   0  0  0  0  0  0  0  0  0  0  0  0
    5.9731   -4.6111    0.2173 H   0  0  0  0  0  0  0  0  0  0  0  0
    5.2837   -4.9546   -1.2898 H   0  0  0  0  0  0  0  0  0  0  0  0
    3.2054   -3.6892   -0.6462 H   0  0  0  0  0  0  0  0  0  0  0  0
    3.1213   -2.4521   -2.8006 H   0  0  0  0  0  0  0  0  0  0  0  0
    4.3481   -3.6737   -3.1906 H   0  0  0  0  0  0  0  0  0  0  0  0
    4.6726   -1.9575   -3.4898 H   0  0  0  0  0  0  0  0  0  0  0  0
    5.1258   -0.3135   -1.4806 H   0  0  0  0  0  0  0  0  0  0  0  0
    6.1155   -5.5082    2.1019 H   0  0  0  0  0  0  0  0  0  0  0  0
    5.3666   -6.2437    3.4538 H   0  0  0  0  0  0  0  0  0  0  0  0
  1  2  1  0
  1 28  1  0
  1 29  1  0
  1 30  1  0
  2 11  1  0
  2  3  1  0
  2  4  1  0
  3 31  1  0
  3 32  1  0
  3 33  1  0
  4  5  1  0
  6  5  1  1
  6 12  1  0
  6 27  1  0
  6  7  1  0
  7  8  1  0
  7 34  1  0
  7 35  1  0
  8 20  1  0
  8 25  1  0
  8  9  1  1
  9 10  1  0
  9 36  1  0
  9 37  1  0
 10 11  1  0
 10 38  1  0
 10 39  1  0
 11 12  1  0
 11 40  1  1
 12 13  1  0
 12 41  1  6
 13 14  1  0
 13 15  1  0
 13 16  1  0
 14 42  1  0
 14 43  1  0
 14 44  1  0
 15 45  1  0
 15 46  1  0
 15 47  1  0
 16 17  1  6
 16 18  1  0
 16 27  1  0
 17 48  1  0
 17 49  1  0
 17 50  1  0
 18 19  1  0
 18 51  1  0
 18 52  1  0
 19 20  1  0
 19 53  1  0
 19 54  1  0
 20 21  1  0
 20 55  1  6
 21 24  1  0
 21 22  1  6
 21 23  1  0
 22 56  1  0
 22 57  1  0
 22 58  1  0
 23 24  1  0
 24 25  1  0
 24 59  1  6
 25 26  2  0
 27 60  1  0
 27 61  1  0
M  END
>  <i_m_ct_stereo_status>  (213) 
1

>  <s_m_source_file>  (213) 
/var/tmp/pbs.5076255.sched01/tmp9rjncpta/544vc0qzzn.sdf

>  <i_m_source_file_index>  (213) 
47

>  <i_lp_mmshare_version>  (213) 
48012

>  <i_f3d_flags>  (213) 
0

>  <s_epik_input>  (213) 
TzFPQyhbQ0gzXSkoW0NIM10pW0NASF0oW0NIXTJbQ0BdMTM0KVtDSDJdW0NIMl1bQ0BAXTUoW0NIMl0zKVtDQEBIXShbQ0BAXTYoW0NIM10pW0NASF0oTzYpQzU9TylbQ0gyXVtDSDJdW0NAXShbQ0gzXSkoW0NIMl00KUMyKFtDSDNdKVtDSDNd

>  <s_epik_cmdline>  (213) 
J2VwaWtfcHl0aG9uJywgJy1waHQnLCAnMi4wJywgJy1waCcsICc3LjAnLCAnLXRuJywgJzgnLCAnLW1hJywgJzIwMCcsICctaW1hZScsICc8aW5maWxlLm1hZT4nLCAnLW9tYWUnLCAnPG91dGZpbGUubWFlPic=

>  <r_lp_tautomer_probability>  (213) 
1

>  <r_epik_Ionization_Penalty>  (213) 
8.86229e-12

>  <r_epik_Ionization_Penalty_Charging>  (213) 
0

>  <r_epik_Ionization_Penalty_Neutral>  (213) 
8.86229e-12

>  <r_epik_State_Penalty>  (213) 
-0

>  <r_epik_Charging_Adjusted_Penalty>  (213) 
0

>  <i_epik_Tot_Q>  (213) 
0

>  <i_epik_Tot_abs_Q>  (213) 
0

>  <s_lp_Force_Field>  (213) 
OPLS3e

>  <r_lp_Energy>  (213) 
89.8804

>  <b_lp_Chiralities_Consistent>  (213) 
1

>  <s_lp_Variant>  (213) 
65:0-1

>  <s_i_glide_gridfile>  (213) 
pfpi4k_grid

>  <i_i_glide_lignum>  (213) 
47

>  <i_i_glide_rotatable_bonds>  (213) 
0

>  <r_i_docking_score>  (213) 
-3.09485

>  <r_i_glide_ligand_efficiency>  (213) 
-0.114624

>  <r_i_glide_ligand_efficiency_sa>  (213) 
-0.343872

>  <r_i_glide_ligand_efficiency_ln>  (213) 
-0.720429

>  <r_i_glide_gscore>  (213) 
-3.09485

>  <r_i_glide_lipo>  (213) 
-0.313488

>  <r_i_glide_hbond>  (213) 
-0.137953

>  <r_i_glide_metal>  (213) 
-0

>  <r_i_glide_rewards>  (213) 
-0.928601

>  <r_i_glide_evdw>  (213) 
-27.3946

>  <r_i_glide_ecoul>  (213) 
-2.30048

>  <r_i_glide_erotb>  (213) 
0

>  <r_i_glide_esite>  (213) 
0

>  <r_i_glide_emodel>  (213) 
-35.224

>  <r_i_glide_energy>  (213) 
-29.6951

>  <r_i_glide_einternal>  (213) 
0

>  <r_i_glide_intrahb_reward>  (213) 
-0

>  <i_i_glide_confnum>  (213) 
1

>  <i_i_glide_posenum>  (213) 
22

>  <r_i_glide_eff_state_penalty>  (213) 
0

>  <ligand_id>  (213) 
65

>  <original_smiles>  (213) 
CC1(C)OOC23CC45CCC1C2C(C)(C)C(C)(CCC4C1(C)OC1C5=O)C3

>  <smiles>  (213) 
[H]C([H])([H])C1(C([H])([H])[H])OOC23C([H])([H])C45C(=O)C6([H])OC6(C([H])([H])[H])C4([H])C([H])([H])C([H])([H])C(C([H])([H])[H])(C2([H])[H])C(C([H])([H])[H])(C([H])([H])[H])C3([H])C1([H])C([H])([H])C5([H])[H]

$$$$
65:0:1
     RDKit          3D

 61 66  0  0  1  0  0  0  0  0999 V2000
    4.2531   -1.0703   -1.3393 C   0  0  0  0  0  0  0  0  0  0  0  0
    4.3394   -2.5617   -0.9801 C   0  0  0  0  0  0  0  0  0  0  0  0
    4.2697   -3.3102   -2.3352 C   0  0  0  0  0  0  0  0  0  0  0  0
    5.6115   -2.8921   -0.4288 O   0  0  0  0  0  0  0  0  0  0  0  0
    5.7961   -2.1367    0.8931 O   0  0  0  0  0  0  0  0  0  0  0  0
    4.9739   -2.7242    1.9120 C   0  0  2  0  0  0  0  0  0  0  0  0
    5.3134   -4.2246    2.1978 C   0  0  0  0  0  0  0  0  0  0  0  0
    4.1510   -5.2516    2.5522 C   0  0  2  0  0  0  0  0  0  0  0  0
    3.0801   -5.4150    1.3918 C   0  0  0  0  0  0  0  0  0  0  0  0
    3.3334   -4.6378    0.0805 C   0  0  0  0  0  0  0  0  0  0  0  0
    3.2839   -3.0629    0.0666 C   0  0  1  0  0  0  0  0  0  0  0  0
    3.5223   -2.5348    1.5043 C   0  0  2  0  0  0  0  0  0  0  0  0
    2.9614   -1.2615    2.2123 C   0  0  0  0  0  0  0  0  0  0  0  0
    3.2501    0.0764    1.4927 C   0  0  0  0  0  0  0  0  0  0  0  0
    1.4205   -1.3128    2.3572 C   0  0  0  0  0  0  0  0  0  0  0  0
    3.7402   -1.3629    3.5871 C   0  0  1  0  0  0  0  0  0  0  0  0
    3.8141   -0.0070    4.3387 C   0  0  0  0  0  0  0  0  0  0  0  0
    3.1727   -2.4268    4.6085 C   0  0  0  0  0  0  0  0  0  0  0  0
    3.8504   -3.8172    4.8215 C   0  0  0  0  0  0  0  0  0  0  0  0
    3.3926   -4.9984    3.9215 C   0  0  2  0  0  0  0  0  0  0  0  0
    3.5265   -6.3154    4.6891 C   0  0  2  0  0  0  0  0  0  0  0  0
    2.3211   -6.7618    5.5125 C   0  0  0  0  0  0  0  0  0  0  0  0
    4.8101   -6.6125    5.2529 O   0  0  0  0  0  0  0  0  0  0  0  0
    4.4531   -7.2700    4.0365 C   0  0  2  0  0  0  0  0  0  0  0  0
    4.8297   -6.6219    2.7515 C   0  0  0  0  0  0  0  0  0  0  0  0
    5.5828   -7.0960    1.9257 O   0  0  0  0  0  0  0  0  0  0  0  0
    5.1486   -1.7748    3.1158 C   0  0  0  0  0  0  0  0  0  0  0  0
    3.2129   -0.7822   -1.4915 H   0  0  0  0  0  0  0  0  0  0  0  0
    4.7761   -0.8252   -2.2653 H   0  0  0  0  0  0  0  0  0  0  0  0
    4.6995   -0.4313   -0.5890 H   0  0  0  0  0  0  0  0  0  0  0  0
    3.2533   -3.3193   -2.7336 H   0  0  0  0  0  0  0  0  0  0  0  0
    4.6134   -4.3443   -2.2746 H   0  0  0  0  0  0  0  0  0  0  0  0
    4.9132   -2.8558   -3.0939 H   0  0  0  0  0  0  0  0  0  0  0  0
    5.8287   -4.6024    1.3220 H   0  0  0  0  0  0  0  0  0  0  0  0
    6.0844   -4.2758    2.9635 H   0  0  0  0  0  0  0  0  0  0  0  0
    2.9965   -6.4662    1.1154 H   0  0  0  0  0  0  0  0  0  0  0  0
    2.0696   -5.1717    1.7194 H   0  0  0  0  0  0  0  0  0  0  0  0
    4.2893   -5.0157   -0.2824 H   0  0  0  0  0  0  0  0  0  0  0  0
    2.6088   -4.9866   -0.6586 H   0  0  0  0  0  0  0  0  0  0  0  0
    2.2890   -2.7577   -0.2536 H   0  0  0  0  0  0  0  0  0  0  0  0
    2.9263   -3.1859    2.1107 H   0  0  0  0  0  0  0  0  0  0  0  0
    2.8280    0.9208    2.0373 H   0  0  0  0  0  0  0  0  0  0  0  0
    2.7675    0.1094    0.5194 H   0  0  0  0  0  0  0  0  0  0  0  0
    4.3125    0.2831    1.3743 H   0  0  0  0  0  0  0  0  0  0  0  0
    1.0585   -0.5547    3.0497 H   0  0  0  0  0  0  0  0  0  0  0  0
    1.0351   -2.2789    2.6806 H   0  0  0  0  0  0  0  0  0  0  0  0
    0.9463   -1.1177    1.3971 H   0  0  0  0  0  0  0  0  0  0  0  0
    4.3831   -0.0945    5.2657 H   0  0  0  0  0  0  0  0  0  0  0  0
    2.8203    0.3585    4.6009 H   0  0  0  0  0  0  0  0  0  0  0  0
    4.3121    0.7785    3.7684 H   0  0  0  0  0  0  0  0  0  0  0  0
    3.2268   -1.9679    5.5964 H   0  0  0  0  0  0  0  0  0  0  0  0
    2.1016   -2.5713    4.4972 H   0  0  0  0  0  0  0  0  0  0  0  0
    4.9340   -3.7747    4.9092 H   0  0  0  0  0  0  0  0  0  0  0  0
    3.5571   -4.0935    5.8344 H   0  0  0  0  0  0  0  0  0  0  0  0
    2.3282   -4.8562    3.7607 H   0  0  0  0  0  0  0  0  0  0  0  0
    1.4535   -6.9082    4.8718 H   0  0  0  0  0  0  0  0  0  0  0  0
    2.0789   -6.0308    6.2836 H   0  0  0  0  0  0  0  0  0  0  0  0
    2.5423   -7.7148    6.0033 H   0  0  0  0  0  0  0  0  0  0  0  0
    4.2351   -8.3346    4.0929 H   0  0  0  0  0  0  0  0  0  0  0  0
    5.7943   -2.1620    3.9035 H   0  0  0  0  0  0  0  0  0  0  0  0
    5.6749   -0.8777    2.7761 H   0  0  0  0  0  0  0  0  0  0  0  0
  1  2  1  0
  1 28  1  0
  1 29  1  0
  1 30  1  0
  2 11  1  0
  2  3  1  0
  2  4  1  0
  3 31  1  0
  3 32  1  0
  3 33  1  0
  4  5  1  0
  6  5  1  6
  6 12  1  0
  6 27  1  0
  6  7  1  0
  7  8  1  0
  7 34  1  0
  7 35  1  0
  8 20  1  0
  8 25  1  0
  8  9  1  6
  9 10  1  0
  9 36  1  0
  9 37  1  0
 10 11  1  0
 10 38  1  0
 10 39  1  0
 11 12  1  0
 11 40  1  6
 12 13  1  0
 12 41  1  1
 13 14  1  0
 13 15  1  0
 13 16  1  0
 14 42  1  0
 14 43  1  0
 14 44  1  0
 15 45  1  0
 15 46  1  0
 15 47  1  0
 16 17  1  1
 16 18  1  0
 16 27  1  0
 17 48  1  0
 17 49  1  0
 17 50  1  0
 18 19  1  0
 18 51  1  0
 18 52  1  0
 19 20  1  0
 19 53  1  0
 19 54  1  0
 20 21  1  0
 20 55  1  6
 21 24  1  0
 21 22  1  1
 21 23  1  0
 22 56  1  0
 22 57  1  0
 22 58  1  0
 23 24  1  0
 24 25  1  0
 24 59  1  1
 25 26  2  0
 27 60  1  0
 27 61  1  0
M  END
>  <i_m_ct_stereo_status>  (214) 
1

>  <s_m_source_file>  (214) 
/var/tmp/pbs.5076255.sched01/tmp9rjncpta/544vc0qzzn.sdf

>  <i_m_source_file_index>  (214) 
47

>  <i_lp_mmshare_version>  (214) 
48012

>  <i_f3d_flags>  (214) 
0

>  <s_epik_input>  (214) 
TzFPQyhbQ0gzXSkoW0NIM10pW0NASF0oW0NIXTJbQ0BdMTM0KVtDSDJdW0NIMl1bQ0BAXTUoW0NIMl0zKVtDQEBIXShbQ0BAXTYoW0NIM10pW0NASF0oTzYpQzU9TylbQ0gyXVtDSDJdW0NAXShbQ0gzXSkoW0NIMl00KUMyKFtDSDNdKVtDSDNd

>  <s_epik_cmdline>  (214) 
J2VwaWtfcHl0aG9uJywgJy1waHQnLCAnMi4wJywgJy1waCcsICc3LjAnLCAnLXRuJywgJzgnLCAnLW1hJywgJzIwMCcsICctaW1hZScsICc8aW5maWxlLm1hZT4nLCAnLW9tYWUnLCAnPG91dGZpbGUubWFlPic=

>  <r_lp_tautomer_probability>  (214) 
1

>  <r_epik_Ionization_Penalty>  (214) 
8.86229e-12

>  <r_epik_Ionization_Penalty_Charging>  (214) 
0

>  <r_epik_Ionization_Penalty_Neutral>  (214) 
8.86229e-12

>  <r_epik_State_Penalty>  (214) 
-0

>  <r_epik_Charging_Adjusted_Penalty>  (214) 
0

>  <i_epik_Tot_Q>  (214) 
0

>  <i_epik_Tot_abs_Q>  (214) 
0

>  <s_lp_Force_Field>  (214) 
OPLS3e

>  <r_lp_Energy>  (214) 
89.8804

>  <b_lp_Chiralities_Consistent>  (214) 
1

>  <s_lp_Variant>  (214) 
65:0-1

>  <s_i_glide_gridfile>  (214) 
pfpi4k_grid

>  <i_i_glide_lignum>  (214) 
47

>  <i_i_glide_rotatable_bonds>  (214) 
0

>  <r_i_docking_score>  (214) 
-2.41023

>  <r_i_glide_ligand_efficiency>  (214) 
-0.0892676

>  <r_i_glide_ligand_efficiency_sa>  (214) 
-0.267803

>  <r_i_glide_ligand_efficiency_ln>  (214) 
-0.561061

>  <r_i_glide_gscore>  (214) 
-2.41023

>  <r_i_glide_lipo>  (214) 
-0.180937

>  <r_i_glide_hbond>  (214) 
0

>  <r_i_glide_metal>  (214) 
-0

>  <r_i_glide_rewards>  (214) 
-0.855589

>  <r_i_glide_evdw>  (214) 
-23.015

>  <r_i_glide_ecoul>  (214) 
-1.48632

>  <r_i_glide_erotb>  (214) 
0

>  <r_i_glide_esite>  (214) 
0

>  <r_i_glide_emodel>  (214) 
-28.7081

>  <r_i_glide_energy>  (214) 
-24.5014

>  <r_i_glide_einternal>  (214) 
0

>  <r_i_glide_intrahb_reward>  (214) 
-0

>  <i_i_glide_confnum>  (214) 
1

>  <i_i_glide_posenum>  (214) 
13

>  <r_i_glide_eff_state_penalty>  (214) 
0

>  <ligand_id>  (214) 
65

>  <original_smiles>  (214) 
CC1(C)OOC23CC45CCC1C2C(C)(C)C(C)(CCC4C1(C)OC1C5=O)C3

>  <smiles>  (214) 
[H]C([H])([H])C1(C([H])([H])[H])OOC23C([H])([H])C45C(=O)C6([H])OC6(C([H])([H])[H])C4([H])C([H])([H])C([H])([H])C(C([H])([H])[H])(C2([H])[H])C(C([H])([H])[H])(C([H])([H])[H])C3([H])C1([H])C([H])([H])C5([H])[H]

$$$$
65:0:2
     RDKit          3D

 61 66  0  0  1  0  0  0  0  0999 V2000
    1.1554   -9.3220    3.5822 C   0  0  0  0  0  0  0  0  0  0  0  0
    1.0190   -7.9189    2.9583 C   0  0  0  0  0  0  0  0  0  0  0  0
   -0.4723   -7.7830    2.5693 C   0  0  0  0  0  0  0  0  0  0  0  0
    1.2753   -6.8893    3.9109 O   0  0  0  0  0  0  0  0  0  0  0  0
    2.7038   -7.0050    4.4019 O   0  0  0  0  0  0  0  0  0  0  0  0
    3.6162   -6.5329    3.3988 C   0  0  2  0  0  0  0  0  0  0  0  0
    3.3782   -5.0347    2.9976 C   0  0  0  0  0  0  0  0  0  0  0  0
    3.5600   -4.5814    1.4874 C   0  0  2  0  0  0  0  0  0  0  0  0
    2.5640   -5.3021    0.4849 C   0  0  0  0  0  0  0  0  0  0  0  0
    1.5216   -6.2774    1.0920 C   0  0  0  0  0  0  0  0  0  0  0  0
    2.0012   -7.6149    1.7711 C   0  0  1  0  0  0  0  0  0  0  0  0
    3.4874   -7.4658    2.2046 C   0  0  2  0  0  0  0  0  0  0  0  0
    4.6157   -8.5328    2.2823 C   0  0  0  0  0  0  0  0  0  0  0  0
    4.3091   -9.7637    3.1691 C   0  0  0  0  0  0  0  0  0  0  0  0
    4.9401   -9.1162    0.8863 C   0  0  0  0  0  0  0  0  0  0  0  0
    5.7752   -7.6446    2.9020 C   0  0  1  0  0  0  0  0  0  0  0  0
    6.8889   -8.4911    3.5777 C   0  0  0  0  0  0  0  0  0  0  0  0
    6.4953   -6.6684    1.8898 C   0  0  0  0  0  0  0  0  0  0  0  0
    6.1756   -5.1423    1.8407 C   0  0  0  0  0  0  0  0  0  0  0  0
    5.0304   -4.6591    0.9080 C   0  0  2  0  0  0  0  0  0  0  0  0
    5.3417   -3.2513    0.3978 C   0  0  2  0  0  0  0  0  0  0  0  0
    6.1403   -3.1308   -0.8856 C   0  0  0  0  0  0  0  0  0  0  0  0
    5.5996   -2.2428    1.3893 O   0  0  0  0  0  0  0  0  0  0  0  0
    4.2978   -2.2613    0.7930 C   0  0  2  0  0  0  0  0  0  0  0  0
    3.2549   -3.0782    1.4513 C   0  0  0  0  0  0  0  0  0  0  0  0
    2.2160   -2.6094    1.9448 O   0  0  0  0  0  0  0  0  0  0  0  0
    5.0117   -6.8368    3.9718 C   0  0  0  0  0  0  0  0  0  0  0  0
    1.2493  -10.0800    2.8045 H   0  0  0  0  0  0  0  0  0  0  0  0
    0.2844   -9.6045    4.1766 H   0  0  0  0  0  0  0  0  0  0  0  0
    1.9907   -9.4011    4.2646 H   0  0  0  0  0  0  0  0  0  0  0  0
   -0.7055   -8.3714    1.6812 H   0  0  0  0  0  0  0  0  0  0  0  0
   -0.7746   -6.7558    2.3819 H   0  0  0  0  0  0  0  0  0  0  0  0
   -1.1310   -8.1277    3.3707 H   0  0  0  0  0  0  0  0  0  0  0  0
    2.3650   -4.7877    3.3017 H   0  0  0  0  0  0  0  0  0  0  0  0
    3.9773   -4.3993    3.6468 H   0  0  0  0  0  0  0  0  0  0  0  0
    2.0065   -4.5575   -0.0782 H   0  0  0  0  0  0  0  0  0  0  0  0
    3.0880   -5.8460   -0.3028 H   0  0  0  0  0  0  0  0  0  0  0  0
    0.9519   -5.6657    1.7890 H   0  0  0  0  0  0  0  0  0  0  0  0
    0.8164   -6.5521    0.3068 H   0  0  0  0  0  0  0  0  0  0  0  0
    1.9314   -8.4205    1.0419 H   0  0  0  0  0  0  0  0  0  0  0  0
    3.9431   -6.9809    1.3638 H   0  0  0  0  0  0  0  0  0  0  0  0
    5.1423  -10.4673    3.1710 H   0  0  0  0  0  0  0  0  0  0  0  0
    3.4723  -10.3391    2.7807 H   0  0  0  0  0  0  0  0  0  0  0  0
    4.1173   -9.5073    4.2101 H   0  0  0  0  0  0  0  0  0  0  0  0
    5.8749   -9.6751    0.9032 H   0  0  0  0  0  0  0  0  0  0  0  0
    5.0065   -8.3724    0.0940 H   0  0  0  0  0  0  0  0  0  0  0  0
    4.1634   -9.8146    0.5749 H   0  0  0  0  0  0  0  0  0  0  0  0
    7.6559   -7.8571    4.0243 H   0  0  0  0  0  0  0  0  0  0  0  0
    7.3870   -9.1449    2.8604 H   0  0  0  0  0  0  0  0  0  0  0  0
    6.5216   -9.1150    4.3927 H   0  0  0  0  0  0  0  0  0  0  0  0
    7.5581   -6.6974    2.1304 H   0  0  0  0  0  0  0  0  0  0  0  0
    6.4942   -7.0602    0.8781 H   0  0  0  0  0  0  0  0  0  0  0  0
    6.1185   -4.6701    2.8197 H   0  0  0  0  0  0  0  0  0  0  0  0
    7.0878   -4.7014    1.4362 H   0  0  0  0  0  0  0  0  0  0  0  0
    5.0713   -5.3053    0.0268 H   0  0  0  0  0  0  0  0  0  0  0  0
    5.6143   -3.6135   -1.7102 H   0  0  0  0  0  0  0  0  0  0  0  0
    7.1259   -3.5884   -0.7759 H   0  0  0  0  0  0  0  0  0  0  0  0
    6.2764   -2.0777   -1.1404 H   0  0  0  0  0  0  0  0  0  0  0  0
    4.0550   -1.4590    0.1065 H   0  0  0  0  0  0  0  0  0  0  0  0
    5.5457   -5.9684    4.3533 H   0  0  0  0  0  0  0  0  0  0  0  0
    4.8885   -7.4687    4.8535 H   0  0  0  0  0  0  0  0  0  0  0  0
  1  2  1  0
  1 28  1  0
  1 29  1  0
  1 30  1  0
  2 11  1  0
  2  3  1  0
  2  4  1  0
  3 31  1  0
  3 32  1  0
  3 33  1  0
  4  5  1  0
  6  5  1  1
  6 12  1  0
  6 27  1  0
  6  7  1  0
  7  8  1  0
  7 34  1  0
  7 35  1  0
  8 20  1  0
  8 25  1  0
  8  9  1  6
  9 10  1  0
  9 36  1  0
  9 37  1  0
 10 11  1  0
 10 38  1  0
 10 39  1  0
 11 12  1  0
 11 40  1  6
 12 13  1  0
 12 41  1  6
 13 14  1  0
 13 15  1  0
 13 16  1  0
 14 42  1  0
 14 43  1  0
 14 44  1  0
 15 45  1  0
 15 46  1  0
 15 47  1  0
 16 17  1  1
 16 18  1  0
 16 27  1  0
 17 48  1  0
 17 49  1  0
 17 50  1  0
 18 19  1  0
 18 51  1  0
 18 52  1  0
 19 20  1  0
 19 53  1  0
 19 54  1  0
 20 21  1  0
 20 55  1  6
 21 24  1  0
 21 22  1  6
 21 23  1  0
 22 56  1  0
 22 57  1  0
 22 58  1  0
 23 24  1  0
 24 25  1  0
 24 59  1  6
 25 26  2  0
 27 60  1  0
 27 61  1  0
M  END
>  <i_m_ct_stereo_status>  (215) 
1

>  <s_m_source_file>  (215) 
/var/tmp/pbs.5076255.sched01/tmp9rjncpta/544vc0qzzn.sdf

>  <i_m_source_file_index>  (215) 
47

>  <i_lp_mmshare_version>  (215) 
48012

>  <i_f3d_flags>  (215) 
0

>  <s_epik_input>  (215) 
TzFPQyhbQ0gzXSkoW0NIM10pW0NASF0oW0NIXTJbQ0BdMTM0KVtDSDJdW0NIMl1bQ0BAXTUoW0NIMl0zKVtDQEBIXShbQ0BAXTYoW0NIM10pW0NASF0oTzYpQzU9TylbQ0gyXVtDSDJdW0NAXShbQ0gzXSkoW0NIMl00KUMyKFtDSDNdKVtDSDNd

>  <s_epik_cmdline>  (215) 
J2VwaWtfcHl0aG9uJywgJy1waHQnLCAnMi4wJywgJy1waCcsICc3LjAnLCAnLXRuJywgJzgnLCAnLW1hJywgJzIwMCcsICctaW1hZScsICc8aW5maWxlLm1hZT4nLCAnLW9tYWUnLCAnPG91dGZpbGUubWFlPic=

>  <r_lp_tautomer_probability>  (215) 
1

>  <r_epik_Ionization_Penalty>  (215) 
8.86229e-12

>  <r_epik_Ionization_Penalty_Charging>  (215) 
0

>  <r_epik_Ionization_Penalty_Neutral>  (215) 
8.86229e-12

>  <r_epik_State_Penalty>  (215) 
-0

>  <r_epik_Charging_Adjusted_Penalty>  (215) 
0

>  <i_epik_Tot_Q>  (215) 
0

>  <i_epik_Tot_abs_Q>  (215) 
0

>  <s_lp_Force_Field>  (215) 
OPLS3e

>  <r_lp_Energy>  (215) 
89.8804

>  <b_lp_Chiralities_Consistent>  (215) 
1

>  <s_lp_Variant>  (215) 
65:0-1

>  <s_i_glide_gridfile>  (215) 
pfpi4k_grid

>  <i_i_glide_lignum>  (215) 
47

>  <i_i_glide_rotatable_bonds>  (215) 
0

>  <r_i_docking_score>  (215) 
-2.39166

>  <r_i_glide_ligand_efficiency>  (215) 
-0.08858

>  <r_i_glide_ligand_efficiency_sa>  (215) 
-0.26574

>  <r_i_glide_ligand_efficiency_ln>  (215) 
-0.556739

>  <r_i_glide_gscore>  (215) 
-2.39166

>  <r_i_glide_lipo>  (215) 
-0.317789

>  <r_i_glide_hbond>  (215) 
0

>  <r_i_glide_metal>  (215) 
-0

>  <r_i_glide_rewards>  (215) 
-0.855589

>  <r_i_glide_evdw>  (215) 
-27.35

>  <r_i_glide_ecoul>  (215) 
1.01359

>  <r_i_glide_erotb>  (215) 
0

>  <r_i_glide_esite>  (215) 
-0.00282236

>  <r_i_glide_emodel>  (215) 
-30.5436

>  <r_i_glide_energy>  (215) 
-26.3364

>  <r_i_glide_einternal>  (215) 
0

>  <r_i_glide_intrahb_reward>  (215) 
-0

>  <i_i_glide_confnum>  (215) 
1

>  <i_i_glide_posenum>  (215) 
1

>  <r_i_glide_eff_state_penalty>  (215) 
0

>  <ligand_id>  (215) 
65

>  <original_smiles>  (215) 
CC1(C)OOC23CC45CCC1C2C(C)(C)C(C)(CCC4C1(C)OC1C5=O)C3

>  <smiles>  (215) 
[H]C([H])([H])C1(C([H])([H])[H])OOC23C([H])([H])C45C(=O)C6([H])OC6(C([H])([H])[H])C4([H])C([H])([H])C([H])([H])C(C([H])([H])[H])(C2([H])[H])C(C([H])([H])[H])(C([H])([H])[H])C3([H])C1([H])C([H])([H])C5([H])[H]

$$$$
65:1:0
     RDKit          3D

 61 66  0  0  1  0  0  0  0  0999 V2000
    2.0306   -5.5299    6.2267 C   0  0  0  0  0  0  0  0  0  0  0  0
    2.6760   -5.4355    4.8213 C   0  0  0  0  0  0  0  0  0  0  0  0
    3.3622   -6.7931    4.5745 C   0  0  0  0  0  0  0  0  0  0  0  0
    1.6332   -5.4752    3.8030 O   0  0  0  0  0  0  0  0  0  0  0  0
    1.1057   -4.0871    3.4166 O   0  0  0  0  0  0  0  0  0  0  0  0
    2.2317   -3.3223    3.0225 C   0  0  2  0  0  0  0  0  0  0  0  0
    2.9633   -4.0706    1.8643 C   0  0  0  0  0  0  0  0  0  0  0  0
    4.3129   -3.5384    1.3080 C   0  0  2  0  0  0  0  0  0  0  0  0
    5.3766   -3.9080    2.4163 C   0  0  0  0  0  0  0  0  0  0  0  0
    5.0126   -4.3821    3.8997 C   0  0  0  0  0  0  0  0  0  0  0  0
    3.6635   -4.1798    4.7315 C   0  0  1  0  0  0  0  0  0  0  0  0
    2.7270   -2.9963    4.4287 C   0  0  1  0  0  0  0  0  0  0  0  0
    2.8943   -1.4233    4.6345 C   0  0  0  0  0  0  0  0  0  0  0  0
    1.5589   -0.6992    5.0120 C   0  0  0  0  0  0  0  0  0  0  0  0
    3.8211   -1.1112    5.8541 C   0  0  0  0  0  0  0  0  0  0  0  0
    3.3218   -1.1213    3.1655 C   0  0  2  0  0  0  0  0  0  0  0  0
    4.8849   -1.1679    3.3242 C   0  0  0  0  0  0  0  0  0  0  0  0
    3.2925    0.0099    2.1595 C   0  0  0  0  0  0  0  0  0  0  0  0
    3.7809   -0.6196    0.7649 C   0  0  0  0  0  0  0  0  0  0  0  0
    4.4865   -2.0826    0.5213 C   0  0  2  0  0  0  0  0  0  0  0  0
    4.3203   -2.4195   -0.9588 C   0  0  2  0  0  0  0  0  0  0  0  0
    4.9340   -1.4731   -1.9721 C   0  0  0  0  0  0  0  0  0  0  0  0
    3.0875   -3.0294   -1.3491 O   0  0  0  0  0  0  0  0  0  0  0  0
    4.2490   -3.8713   -1.2143 C   0  0  2  0  0  0  0  0  0  0  0  0
    4.5381   -4.4857    0.0971 C   0  0  0  0  0  0  0  0  0  0  0  0
    4.8633   -5.6662    0.2333 O   0  0  0  0  0  0  0  0  0  0  0  0
    2.1517   -1.9704    2.4832 C   0  0  0  0  0  0  0  0  0  0  0  0
    2.7978   -5.5442    7.0023 H   0  0  0  0  0  0  0  0  0  0  0  0
    1.4552   -6.4467    6.3483 H   0  0  0  0  0  0  0  0  0  0  0  0
    1.3632   -4.7051    6.4578 H   0  0  0  0  0  0  0  0  0  0  0  0
    4.2121   -6.9573    5.2372 H   0  0  0  0  0  0  0  0  0  0  0  0
    3.7076   -6.8753    3.5449 H   0  0  0  0  0  0  0  0  0  0  0  0
    2.6661   -7.6200    4.7211 H   0  0  0  0  0  0  0  0  0  0  0  0
    3.1134   -5.1146    2.1246 H   0  0  0  0  0  0  0  0  0  0  0  0
    2.2415   -4.1432    1.0521 H   0  0  0  0  0  0  0  0  0  0  0  0
    5.9988   -4.7322    2.0745 H   0  0  0  0  0  0  0  0  0  0  0  0
    6.1613   -3.1592    2.4439 H   0  0  0  0  0  0  0  0  0  0  0  0
    5.3277   -5.4195    3.9687 H   0  0  0  0  0  0  0  0  0  0  0  0
    5.7807   -3.9297    4.5249 H   0  0  0  0  0  0  0  0  0  0  0  0
    4.0129   -4.0337    5.7542 H   0  0  0  0  0  0  0  0  0  0  0  0
    1.9088   -3.1287    5.1358 H   0  0  0  0  0  0  0  0  0  0  0  0
    1.5464    0.3193    4.6231 H   0  0  0  0  0  0  0  0  0  0  0  0
    1.4165   -0.6147    6.0893 H   0  0  0  0  0  0  0  0  0  0  0  0
    0.6549   -1.2010    4.6669 H   0  0  0  0  0  0  0  0  0  0  0  0
    4.0845   -0.0542    5.8982 H   0  0  0  0  0  0  0  0  0  0  0  0
    4.7378   -1.6957    5.8974 H   0  0  0  0  0  0  0  0  0  0  0  0
    3.3225   -1.3510    6.7935 H   0  0  0  0  0  0  0  0  0  0  0  0
    5.5247   -1.0677    2.4648 H   0  0  0  0  0  0  0  0  0  0  0  0
    5.2738   -1.9563    3.9351 H   0  0  0  0  0  0  0  0  0  0  0  0
    5.1903   -0.2762    3.8731 H   0  0  0  0  0  0  0  0  0  0  0  0
    2.2940    0.4352    2.0496 H   0  0  0  0  0  0  0  0  0  0  0  0
    3.9144    0.8548    2.4544 H   0  0  0  0  0  0  0  0  0  0  0  0
    2.9193   -0.5734    0.0959 H   0  0  0  0  0  0  0  0  0  0  0  0
    4.4476    0.1292    0.3323 H   0  0  0  0  0  0  0  0  0  0  0  0
    5.5560   -1.8774    0.5805 H   0  0  0  0  0  0  0  0  0  0  0  0
    6.0017   -1.3649   -1.7931 H   0  0  0  0  0  0  0  0  0  0  0  0
    4.4555   -0.4930   -1.9438 H   0  0  0  0  0  0  0  0  0  0  0  0
    4.8010   -1.8779   -2.9770 H   0  0  0  0  0  0  0  0  0  0  0  0
    4.6883   -4.2545   -2.1310 H   0  0  0  0  0  0  0  0  0  0  0  0
    2.0184   -1.9990    1.4062 H   0  0  0  0  0  0  0  0  0  0  0  0
    1.1784   -1.5620    2.7259 H   0  0  0  0  0  0  0  0  0  0  0  0
  1  2  1  0
  1 28  1  0
  1 29  1  0
  1 30  1  0
  2 11  1  0
  2  3  1  0
  2  4  1  0
  3 31  1  0
  3 32  1  0
  3 33  1  0
  4  5  1  0
  6  5  1  1
  6 12  1  0
  6 27  1  0
  6  7  1  0
  7  8  1  0
  7 34  1  0
  7 35  1  0
  8 20  1  0
  8 25  1  0
  8  9  1  1
  9 10  1  0
  9 36  1  0
  9 37  1  0
 10 11  1  0
 10 38  1  0
 10 39  1  0
 11 12  1  0
 11 40  1  1
 12 13  1  0
 12 41  1  1
 13 14  1  0
 13 15  1  0
 13 16  1  0
 14 42  1  0
 14 43  1  0
 14 44  1  0
 15 45  1  0
 15 46  1  0
 15 47  1  0
 16 17  1  1
 16 18  1  0
 16 27  1  0
 17 48  1  0
 17 49  1  0
 17 50  1  0
 18 19  1  0
 18 51  1  0
 18 52  1  0
 19 20  1  0
 19 53  1  0
 19 54  1  0
 20 21  1  0
 20 55  1  6
 21 24  1  0
 21 22  1  6
 21 23  1  0
 22 56  1  0
 22 57  1  0
 22 58  1  0
 23 24  1  0
 24 25  1  0
 24 59  1  6
 25 26  2  0
 27 60  1  0
 27 61  1  0
M  END
>  <i_m_ct_stereo_status>  (216) 
1

>  <s_m_source_file>  (216) 
/var/tmp/pbs.5076255.sched01/tmp9rjncpta/544vc0qzzn.sdf

>  <i_m_source_file_index>  (216) 
48

>  <i_lp_mmshare_version>  (216) 
48012

>  <i_f3d_flags>  (216) 
0

>  <s_epik_input>  (216) 
TzFPQyhbQ0gzXSkoW0NIM10pW0NASF0oW0NIXTJbQ0BdMTM0KVtDSDJdW0NIMl1bQ0BAXTUoW0NIMl0zKVtDQEBIXShbQ0BAXTYoW0NIM10pW0NASF0oTzYpQzU9TylbQ0gyXVtDSDJdW0NAXShbQ0gzXSkoW0NIMl00KUMyKFtDSDNdKVtDSDNd

>  <s_epik_cmdline>  (216) 
J2VwaWtfcHl0aG9uJywgJy1waHQnLCAnMi4wJywgJy1waCcsICc3LjAnLCAnLXRuJywgJzgnLCAnLW1hJywgJzIwMCcsICctaW1hZScsICc8aW5maWxlLm1hZT4nLCAnLW9tYWUnLCAnPG91dGZpbGUubWFlPic=

>  <r_lp_tautomer_probability>  (216) 
1

>  <r_epik_Ionization_Penalty>  (216) 
8.86229e-12

>  <r_epik_Ionization_Penalty_Charging>  (216) 
0

>  <r_epik_Ionization_Penalty_Neutral>  (216) 
8.86229e-12

>  <r_epik_State_Penalty>  (216) 
-0

>  <r_epik_Charging_Adjusted_Penalty>  (216) 
0

>  <i_epik_Tot_Q>  (216) 
0

>  <i_epik_Tot_abs_Q>  (216) 
0

>  <s_lp_Force_Field>  (216) 
OPLS3e

>  <r_lp_Energy>  (216) 
226.058

>  <b_lp_Chiralities_Consistent>  (216) 
1

>  <s_lp_Variant>  (216) 
65:0-2

>  <s_i_glide_gridfile>  (216) 
pfpi4k_grid

>  <i_i_glide_lignum>  (216) 
48

>  <i_i_glide_rotatable_bonds>  (216) 
0

>  <r_i_docking_score>  (216) 
-2.07626

>  <r_i_glide_ligand_efficiency>  (216) 
-0.0768984

>  <r_i_glide_ligand_efficiency_sa>  (216) 
-0.230695

>  <r_i_glide_ligand_efficiency_ln>  (216) 
-0.483318

>  <r_i_glide_gscore>  (216) 
-2.07626

>  <r_i_glide_lipo>  (216) 
-0.151723

>  <r_i_glide_hbond>  (216) 
0

>  <r_i_glide_metal>  (216) 
-0

>  <r_i_glide_rewards>  (216) 
-0.878947

>  <r_i_glide_evdw>  (216) 
-23.4544

>  <r_i_glide_ecoul>  (216) 
0.84756

>  <r_i_glide_erotb>  (216) 
0

>  <r_i_glide_esite>  (216) 
0

>  <r_i_glide_emodel>  (216) 
-25.3676

>  <r_i_glide_energy>  (216) 
-22.6068

>  <r_i_glide_einternal>  (216) 
0

>  <r_i_glide_intrahb_reward>  (216) 
-0

>  <i_i_glide_confnum>  (216) 
1

>  <i_i_glide_posenum>  (216) 
5

>  <r_i_glide_eff_state_penalty>  (216) 
0

>  <ligand_id>  (216) 
65

>  <original_smiles>  (216) 
CC1(C)OOC23CC45CCC1C2C(C)(C)C(C)(CCC4C1(C)OC1C5=O)C3

>  <smiles>  (216) 
[H]C([H])([H])C1(C([H])([H])[H])OOC23C([H])([H])C45C(=O)C6([H])OC6(C([H])([H])[H])C4([H])C([H])([H])C([H])([H])C(C([H])([H])[H])(C2([H])[H])C(C([H])([H])[H])(C([H])([H])[H])C3([H])C1([H])C([H])([H])C5([H])[H]

$$$$
65:1:1
     RDKit          3D

 61 66  0  0  1  0  0  0  0  0999 V2000
    3.5938   -7.5098    3.1566 C   0  0  0  0  0  0  0  0  0  0  0  0
    3.8991   -6.7478    1.8406 C   0  0  0  0  0  0  0  0  0  0  0  0
    4.5852   -7.7529    0.8990 C   0  0  0  0  0  0  0  0  0  0  0  0
    2.6600   -6.5137    1.1108 O   0  0  0  0  0  0  0  0  0  0  0  0
    1.9650   -5.1857    1.4816 O   0  0  0  0  0  0  0  0  0  0  0  0
    2.9235   -4.1669    1.2667 C   0  0  2  0  0  0  0  0  0  0  0  0
    3.4163   -4.2427   -0.2122 C   0  0  0  0  0  0  0  0  0  0  0  0
    4.5682   -3.3157   -0.7004 C   0  0  2  0  0  0  0  0  0  0  0  0
    5.8774   -3.9416   -0.0645 C   0  0  0  0  0  0  0  0  0  0  0  0
    5.8909   -5.0573    1.0801 C   0  0  0  0  0  0  0  0  0  0  0  0
    4.7566   -5.4325    2.1379 C   0  0  1  0  0  0  0  0  0  0  0  0
    3.7051   -4.3877    2.5542 C   0  0  1  0  0  0  0  0  0  0  0  0
    3.8136   -3.0377    3.4043 C   0  0  0  0  0  0  0  0  0  0  0  0
    2.5571   -2.7394    4.2881 C   0  0  0  0  0  0  0  0  0  0  0  0
    4.9644   -3.1185    4.4513 C   0  0  0  0  0  0  0  0  0  0  0  0
    3.8902   -2.0912    2.1711 C   0  0  2  0  0  0  0  0  0  0  0  0
    5.4500   -1.9570    2.0062 C   0  0  0  0  0  0  0  0  0  0  0  0
    3.5754   -0.6632    1.7934 C   0  0  0  0  0  0  0  0  0  0  0  0
    3.7764   -0.5844    0.2099 C   0  0  0  0  0  0  0  0  0  0  0  0
    4.4569   -1.6730   -0.8000 C   0  0  2  0  0  0  0  0  0  0  0  0
    3.9338   -1.3941   -2.2174 C   0  0  2  0  0  0  0  0  0  0  0  0
    4.3252   -0.1174   -2.8608 C   0  0  0  0  0  0  0  0  0  0  0  0
    2.6849   -1.9791   -2.6263 O   0  0  0  0  0  0  0  0  0  0  0  0
    3.9163   -2.5850   -3.0918 C   0  0  2  0  0  0  0  0  0  0  0  0
    4.5789   -3.5826   -2.2307 C   0  0  0  0  0  0  0  0  0  0  0  0
    5.0209   -4.5697   -2.7522 O   0  0  0  0  0  0  0  0  0  0  0  0
    2.6473   -2.7447    1.4024 C   0  0  0  0  0  0  0  0  0  0  0  0
    4.5168   -7.7260    3.7005 H   0  0  0  0  0  0  0  0  0  0  0  0
    3.1158   -8.4737    2.9692 H   0  0  0  0  0  0  0  0  0  0  0  0
    2.9456   -6.9660    3.8413 H   0  0  0  0  0  0  0  0  0  0  0  0
    5.5769   -8.0443    1.2529 H   0  0  0  0  0  0  0  0  0  0  0  0
    4.6776   -7.3380   -0.1076 H   0  0  0  0  0  0  0  0  0  0  0  0
    3.9946   -8.6694    0.7885 H   0  0  0  0  0  0  0  0  0  0  0  0
    3.7020   -5.2583   -0.4701 H   0  0  0  0  0  0  0  0  0  0  0  0
    2.5438   -4.0818   -0.8462 H   0  0  0  0  0  0  0  0  0  0  0  0
    6.4343   -4.4334   -0.8458 H   0  0  0  0  0  0  0  0  0  0  0  0
    6.6173   -3.1678    0.1374 H   0  0  0  0  0  0  0  0  0  0  0  0
    6.2755   -5.9620    0.6217 H   0  0  0  0  0  0  0  0  0  0  0  0
    6.7556   -4.7996    1.6873 H   0  0  0  0  0  0  0  0  0  0  0  0
    5.3197   -5.6666    3.0396 H   0  0  0  0  0  0  0  0  0  0  0  0
    3.0729   -4.9232    3.2596 H   0  0  0  0  0  0  0  0  0  0  0  0
    2.4000   -1.6649    4.3907 H   0  0  0  0  0  0  0  0  0  0  0  0
    2.6595   -3.1313    5.3002 H   0  0  0  0  0  0  0  0  0  0  0  0
    1.6333   -3.1862    3.9222 H   0  0  0  0  0  0  0  0  0  0  0  0
    5.1873   -2.1476    4.8974 H   0  0  0  0  0  0  0  0  0  0  0  0
    5.8749   -3.5437    4.0520 H   0  0  0  0  0  0  0  0  0  0  0  0
    4.7119   -3.7974    5.2646 H   0  0  0  0  0  0  0  0  0  0  0  0
    5.8713   -1.4134    1.1740 H   0  0  0  0  0  0  0  0  0  0  0  0
    6.0142   -2.8589    2.1307 H   0  0  0  0  0  0  0  0  0  0  0  0
    5.8189   -1.3352    2.8230 H   0  0  0  0  0  0  0  0  0  0  0  0
    2.5537   -0.3818    2.0444 H   0  0  0  0  0  0  0  0  0  0  0  0
    4.1992    0.0751    2.2963 H   0  0  0  0  0  0  0  0  0  0  0  0
    2.7766   -0.4143   -0.1787 H   0  0  0  0  0  0  0  0  0  0  0  0
    4.2732    0.3674    0.0380 H   0  0  0  0  0  0  0  0  0  0  0  0
    5.5058   -1.3531   -0.8563 H   0  0  0  0  0  0  0  0  0  0  0  0
    5.3786    0.0865   -2.7115 H   0  0  0  0  0  0  0  0  0  0  0  0
    3.8208    0.6935   -2.3977 H   0  0  0  0  0  0  0  0  0  0  0  0
    4.0788   -0.0692   -3.9190 H   0  0  0  0  0  0  0  0  0  0  0  0
    4.1895   -2.4723   -4.1275 H   0  0  0  0  0  0  0  0  0  0  0  0
    2.2720   -2.3450    0.4619 H   0  0  0  0  0  0  0  0  0  0  0  0
    1.7320   -2.6156    1.9666 H   0  0  0  0  0  0  0  0  0  0  0  0
  1  2  1  0
  1 28  1  0
  1 29  1  0
  1 30  1  0
  2 11  1  0
  2  3  1  0
  2  4  1  0
  3 31  1  0
  3 32  1  0
  3 33  1  0
  4  5  1  0
  6  5  1  6
  6 12  1  0
  6 27  1  0
  6  7  1  0
  7  8  1  0
  7 34  1  0
  7 35  1  0
  8 20  1  0
  8 25  1  0
  8  9  1  1
  9 10  1  0
  9 36  1  0
  9 37  1  0
 10 11  1  0
 10 38  1  0
 10 39  1  0
 11 12  1  0
 11 40  1  1
 12 13  1  0
 12 41  1  1
 13 14  1  0
 13 15  1  0
 13 16  1  0
 14 42  1  0
 14 43  1  0
 14 44  1  0
 15 45  1  0
 15 46  1  0
 15 47  1  0
 16 17  1  6
 16 18  1  0
 16 27  1  0
 17 48  1  0
 17 49  1  0
 17 50  1  0
 18 19  1  0
 18 51  1  0
 18 52  1  0
 19 20  1  0
 19 53  1  0
 19 54  1  0
 20 21  1  0
 20 55  1  6
 21 24  1  0
 21 22  1  6
 21 23  1  0
 22 56  1  0
 22 57  1  0
 22 58  1  0
 23 24  1  0
 24 25  1  0
 24 59  1  6
 25 26  2  0
 27 60  1  0
 27 61  1  0
M  END
>  <i_m_ct_stereo_status>  (217) 
1

>  <s_m_source_file>  (217) 
/var/tmp/pbs.5076255.sched01/tmp9rjncpta/544vc0qzzn.sdf

>  <i_m_source_file_index>  (217) 
48

>  <i_lp_mmshare_version>  (217) 
48012

>  <i_f3d_flags>  (217) 
0

>  <s_epik_input>  (217) 
TzFPQyhbQ0gzXSkoW0NIM10pW0NASF0oW0NIXTJbQ0BdMTM0KVtDSDJdW0NIMl1bQ0BAXTUoW0NIMl0zKVtDQEBIXShbQ0BAXTYoW0NIM10pW0NASF0oTzYpQzU9TylbQ0gyXVtDSDJdW0NAXShbQ0gzXSkoW0NIMl00KUMyKFtDSDNdKVtDSDNd

>  <s_epik_cmdline>  (217) 
J2VwaWtfcHl0aG9uJywgJy1waHQnLCAnMi4wJywgJy1waCcsICc3LjAnLCAnLXRuJywgJzgnLCAnLW1hJywgJzIwMCcsICctaW1hZScsICc8aW5maWxlLm1hZT4nLCAnLW9tYWUnLCAnPG91dGZpbGUubWFlPic=

>  <r_lp_tautomer_probability>  (217) 
1

>  <r_epik_Ionization_Penalty>  (217) 
8.86229e-12

>  <r_epik_Ionization_Penalty_Charging>  (217) 
0

>  <r_epik_Ionization_Penalty_Neutral>  (217) 
8.86229e-12

>  <r_epik_State_Penalty>  (217) 
-0

>  <r_epik_Charging_Adjusted_Penalty>  (217) 
0

>  <i_epik_Tot_Q>  (217) 
0

>  <i_epik_Tot_abs_Q>  (217) 
0

>  <s_lp_Force_Field>  (217) 
OPLS3e

>  <r_lp_Energy>  (217) 
226.058

>  <b_lp_Chiralities_Consistent>  (217) 
1

>  <s_lp_Variant>  (217) 
65:0-2

>  <s_i_glide_gridfile>  (217) 
pfpi4k_grid

>  <i_i_glide_lignum>  (217) 
48

>  <i_i_glide_rotatable_bonds>  (217) 
0

>  <r_i_docking_score>  (217) 
-1.94101

>  <r_i_glide_ligand_efficiency>  (217) 
-0.0718893

>  <r_i_glide_ligand_efficiency_sa>  (217) 
-0.215668

>  <r_i_glide_ligand_efficiency_ln>  (217) 
-0.451836

>  <r_i_glide_gscore>  (217) 
-1.94101

>  <r_i_glide_lipo>  (217) 
-0.628202

>  <r_i_glide_hbond>  (217) 
-0.0367708

>  <r_i_glide_metal>  (217) 
-0

>  <r_i_glide_rewards>  (217) 
-0.855589

>  <r_i_glide_evdw>  (217) 
-13.1858

>  <r_i_glide_ecoul>  (217) 
1.64802

>  <r_i_glide_erotb>  (217) 
0

>  <r_i_glide_esite>  (217) 
-0.00836123

>  <r_i_glide_emodel>  (217) 
-13.7334

>  <r_i_glide_energy>  (217) 
-11.5378

>  <r_i_glide_einternal>  (217) 
0

>  <r_i_glide_intrahb_reward>  (217) 
-0

>  <i_i_glide_confnum>  (217) 
1

>  <i_i_glide_posenum>  (217) 
22

>  <r_i_glide_eff_state_penalty>  (217) 
0

>  <ligand_id>  (217) 
65

>  <original_smiles>  (217) 
CC1(C)OOC23CC45CCC1C2C(C)(C)C(C)(CCC4C1(C)OC1C5=O)C3

>  <smiles>  (217) 
[H]C([H])([H])C1(C([H])([H])[H])OOC23C([H])([H])C45C(=O)C6([H])OC6(C([H])([H])[H])C4([H])C([H])([H])C([H])([H])C(C([H])([H])[H])(C2([H])[H])C(C([H])([H])[H])(C([H])([H])[H])C3([H])C1([H])C([H])([H])C5([H])[H]

$$$$
65:1:2
     RDKit          3D

 61 66  0  0  1  0  0  0  0  0999 V2000
    3.2962   -6.8230    4.3761 C   0  0  0  0  0  0  0  0  0  0  0  0
    3.6821   -6.2924    2.9736 C   0  0  0  0  0  0  0  0  0  0  0  0
    4.3928   -7.4394    2.2328 C   0  0  0  0  0  0  0  0  0  0  0  0
    2.4742   -6.1721    2.1676 O   0  0  0  0  0  0  0  0  0  0  0  0
    1.7856   -4.8047    2.2564 O   0  0  0  0  0  0  0  0  0  0  0  0
    2.7567   -3.8232    1.9525 C   0  0  2  0  0  0  0  0  0  0  0  0
    3.3058   -4.1342    0.5273 C   0  0  0  0  0  0  0  0  0  0  0  0
    4.4998   -3.3068   -0.0349 C   0  0  2  0  0  0  0  0  0  0  0  0
    5.7815   -3.8428    0.7354 C   0  0  0  0  0  0  0  0  0  0  0  0
    5.7270   -4.7600    2.0386 C   0  0  0  0  0  0  0  0  0  0  0  0
    4.5399   -4.9439    3.0888 C   0  0  1  0  0  0  0  0  0  0  0  0
    3.4826   -3.8421    3.2944 C   0  0  1  0  0  0  0  0  0  0  0  0
    3.5755   -2.3729    3.9178 C   0  0  0  0  0  0  0  0  0  0  0  0
    2.2799   -1.9293    4.6816 C   0  0  0  0  0  0  0  0  0  0  0  0
    4.6868   -2.2910    5.0107 C   0  0  0  0  0  0  0  0  0  0  0  0
    3.7093   -1.6359    2.5524 C   0  0  2  0  0  0  0  0  0  0  0  0
    5.2784   -1.5410    2.4344 C   0  0  0  0  0  0  0  0  0  0  0  0
    3.4271   -0.2848    1.9362 C   0  0  0  0  0  0  0  0  0  0  0  0
    3.7042   -0.4454    0.3731 C   0  0  0  0  0  0  0  0  0  0  0  0
    4.4138   -1.6924   -0.4127 C   0  0  2  0  0  0  0  0  0  0  0  0
    3.9866   -1.6429   -1.8911 C   0  0  2  0  0  0  0  0  0  0  0  0
    4.3537   -0.4289   -2.7126 C   0  0  0  0  0  0  0  0  0  0  0  0
    2.7581   -2.2917   -2.2471 O   0  0  0  0  0  0  0  0  0  0  0  0
    3.9991   -2.9829   -2.5225 C   0  0  2  0  0  0  0  0  0  0  0  0
    4.5722   -3.8329   -1.4659 C   0  0  0  0  0  0  0  0  0  0  0  0
    4.9990   -4.9531   -1.7232 O   0  0  0  0  0  0  0  0  0  0  0  0
    2.4840   -2.3972    1.8471 C   0  0  0  0  0  0  0  0  0  0  0  0
    4.1903   -6.9525    4.9896 H   0  0  0  0  0  0  0  0  0  0  0  0
    2.8162   -7.8034    4.3241 H   0  0  0  0  0  0  0  0  0  0  0  0
    2.6230   -6.1717    4.9297 H   0  0  0  0  0  0  0  0  0  0  0  0
    5.3610   -7.6746    2.6833 H   0  0  0  0  0  0  0  0  0  0  0  0
    4.5446   -7.1946    1.1779 H   0  0  0  0  0  0  0  0  0  0  0  0
    3.7890   -8.3533    2.2475 H   0  0  0  0  0  0  0  0  0  0  0  0
    3.5909   -5.1811    0.4374 H   0  0  0  0  0  0  0  0  0  0  0  0
    2.4587   -4.0726   -0.1633 H   0  0  0  0  0  0  0  0  0  0  0  0
    6.3936   -4.4651    0.0802 H   0  0  0  0  0  0  0  0  0  0  0  0
    6.5154   -3.0497    0.8416 H   0  0  0  0  0  0  0  0  0  0  0  0
    6.1096   -5.7328    1.7443 H   0  0  0  0  0  0  0  0  0  0  0  0
    6.5677   -4.4103    2.6293 H   0  0  0  0  0  0  0  0  0  0  0  0
    5.0587   -5.0317    4.0417 H   0  0  0  0  0  0  0  0  0  0  0  0
    2.8223   -4.2488    4.0590 H   0  0  0  0  0  0  0  0  0  0  0  0
    2.1293   -0.8515    4.5991 H   0  0  0  0  0  0  0  0  0  0  0  0
    2.3293   -2.1537    5.7479 H   0  0  0  0  0  0  0  0  0  0  0  0
    1.3676   -2.4247    4.3496 H   0  0  0  0  0  0  0  0  0  0  0  0
    4.8805   -1.2586    5.3036 H   0  0  0  0  0  0  0  0  0  0  0  0
    5.6320   -2.7561    4.7361 H   0  0  0  0  0  0  0  0  0  0  0  0
    4.3831   -2.8303    5.9095 H   0  0  0  0  0  0  0  0  0  0  0  0
    5.7459   -1.1429    1.5466 H   0  0  0  0  0  0  0  0  0  0  0  0
    5.8216   -2.4170    2.7261 H   0  0  0  0  0  0  0  0  0  0  0  0
    5.6197   -0.7987    3.1578 H   0  0  0  0  0  0  0  0  0  0  0  0
    2.3949    0.0352    2.0946 H   0  0  0  0  0  0  0  0  0  0  0  0
    4.0328    0.5229    2.3520 H   0  0  0  0  0  0  0  0  0  0  0  0
    2.7223   -0.3323   -0.0865 H   0  0  0  0  0  0  0  0  0  0  0  0
    4.2586    0.4541    0.0834 H   0  0  0  0  0  0  0  0  0  0  0  0
    5.4605   -1.4000   -0.4806 H   0  0  0  0  0  0  0  0  0  0  0  0
    5.4211   -0.2562   -2.6398 H   0  0  0  0  0  0  0  0  0  0  0  0
    3.8422    0.4577   -2.3633 H   0  0  0  0  0  0  0  0  0  0  0  0
    4.0845   -0.5677   -3.7641 H   0  0  0  0  0  0  0  0  0  0  0  0
    4.3094   -3.0677   -3.5590 H   0  0  0  0  0  0  0  0  0  0  0  0
    2.1707   -2.1545    0.8350 H   0  0  0  0  0  0  0  0  0  0  0  0
    1.5365   -2.1767    2.3303 H   0  0  0  0  0  0  0  0  0  0  0  0
  1  2  1  0
  1 28  1  0
  1 29  1  0
  1 30  1  0
  2 11  1  0
  2  3  1  0
  2  4  1  0
  3 31  1  0
  3 32  1  0
  3 33  1  0
  4  5  1  0
  6  5  1  1
  6 12  1  0
  6 27  1  0
  6  7  1  0
  7  8  1  0
  7 34  1  0
  7 35  1  0
  8 20  1  0
  8 25  1  0
  8  9  1  1
  9 10  1  0
  9 36  1  0
  9 37  1  0
 10 11  1  0
 10 38  1  0
 10 39  1  0
 11 12  1  0
 11 40  1  1
 12 13  1  0
 12 41  1  1
 13 14  1  0
 13 15  1  0
 13 16  1  0
 14 42  1  0
 14 43  1  0
 14 44  1  0
 15 45  1  0
 15 46  1  0
 15 47  1  0
 16 17  1  6
 16 18  1  0
 16 27  1  0
 17 48  1  0
 17 49  1  0
 17 50  1  0
 18 19  1  0
 18 51  1  0
 18 52  1  0
 19 20  1  0
 19 53  1  0
 19 54  1  0
 20 21  1  0
 20 55  1  6
 21 24  1  0
 21 22  1  6
 21 23  1  0
 22 56  1  0
 22 57  1  0
 22 58  1  0
 23 24  1  0
 24 25  1  0
 24 59  1  6
 25 26  2  0
 27 60  1  0
 27 61  1  0
M  END
>  <i_m_ct_stereo_status>  (218) 
1

>  <s_m_source_file>  (218) 
/var/tmp/pbs.5076255.sched01/tmp9rjncpta/544vc0qzzn.sdf

>  <i_m_source_file_index>  (218) 
48

>  <i_lp_mmshare_version>  (218) 
48012

>  <i_f3d_flags>  (218) 
0

>  <s_epik_input>  (218) 
TzFPQyhbQ0gzXSkoW0NIM10pW0NASF0oW0NIXTJbQ0BdMTM0KVtDSDJdW0NIMl1bQ0BAXTUoW0NIMl0zKVtDQEBIXShbQ0BAXTYoW0NIM10pW0NASF0oTzYpQzU9TylbQ0gyXVtDSDJdW0NAXShbQ0gzXSkoW0NIMl00KUMyKFtDSDNdKVtDSDNd

>  <s_epik_cmdline>  (218) 
J2VwaWtfcHl0aG9uJywgJy1waHQnLCAnMi4wJywgJy1waCcsICc3LjAnLCAnLXRuJywgJzgnLCAnLW1hJywgJzIwMCcsICctaW1hZScsICc8aW5maWxlLm1hZT4nLCAnLW9tYWUnLCAnPG91dGZpbGUubWFlPic=

>  <r_lp_tautomer_probability>  (218) 
1

>  <r_epik_Ionization_Penalty>  (218) 
8.86229e-12

>  <r_epik_Ionization_Penalty_Charging>  (218) 
0

>  <r_epik_Ionization_Penalty_Neutral>  (218) 
8.86229e-12

>  <r_epik_State_Penalty>  (218) 
-0

>  <r_epik_Charging_Adjusted_Penalty>  (218) 
0

>  <i_epik_Tot_Q>  (218) 
0

>  <i_epik_Tot_abs_Q>  (218) 
0

>  <s_lp_Force_Field>  (218) 
OPLS3e

>  <r_lp_Energy>  (218) 
226.058

>  <b_lp_Chiralities_Consistent>  (218) 
1

>  <s_lp_Variant>  (218) 
65:0-2

>  <s_i_glide_gridfile>  (218) 
pfpi4k_grid

>  <i_i_glide_lignum>  (218) 
48

>  <i_i_glide_rotatable_bonds>  (218) 
0

>  <r_i_docking_score>  (218) 
-1.62162

>  <r_i_glide_ligand_efficiency>  (218) 
-0.0600599

>  <r_i_glide_ligand_efficiency_sa>  (218) 
-0.18018

>  <r_i_glide_ligand_efficiency_ln>  (218) 
-0.377486

>  <r_i_glide_gscore>  (218) 
-1.62162

>  <r_i_glide_lipo>  (218) 
-0.394648

>  <r_i_glide_hbond>  (218) 
-0.00303474

>  <r_i_glide_metal>  (218) 
-0

>  <r_i_glide_rewards>  (218) 
-0.855589

>  <r_i_glide_evdw>  (218) 
-13.2188

>  <r_i_glide_ecoul>  (218) 
2.08867

>  <r_i_glide_erotb>  (218) 
0

>  <r_i_glide_esite>  (218) 
-0.0207043

>  <r_i_glide_emodel>  (218) 
-13.1124

>  <r_i_glide_energy>  (218) 
-11.1302

>  <r_i_glide_einternal>  (218) 
0

>  <r_i_glide_intrahb_reward>  (218) 
-0

>  <i_i_glide_confnum>  (218) 
2

>  <i_i_glide_posenum>  (218) 
26

>  <r_i_glide_eff_state_penalty>  (218) 
0

>  <ligand_id>  (218) 
65

>  <original_smiles>  (218) 
CC1(C)OOC23CC45CCC1C2C(C)(C)C(C)(CCC4C1(C)OC1C5=O)C3

>  <smiles>  (218) 
[H]C([H])([H])C1(C([H])([H])[H])OOC23C([H])([H])C45C(=O)C6([H])OC6(C([H])([H])[H])C4([H])C([H])([H])C([H])([H])C(C([H])([H])[H])(C2([H])[H])C(C([H])([H])[H])(C([H])([H])[H])C3([H])C1([H])C([H])([H])C5([H])[H]

$$$$
66:0:0
     RDKit          3D

 75 81  0  0  1  0  0  0  0  0999 V2000
    0.4187   -6.8022    5.3935 C   0  0  0  0  0  0  0  0  0  0  0  0
    1.5854   -6.6078    4.7575 C   0  0  0  0  0  0  0  0  0  0  0  0
    2.2102   -5.3380    4.2275 C   0  0  2  0  0  0  0  0  0  0  0  0
    1.4128   -4.4883    3.2621 C   0  0  0  0  0  0  0  0  0  0  0  0
    2.3837   -3.9016    2.1971 C   0  0  1  0  0  0  0  0  0  0  0  0
    3.3898   -2.9133    2.8072 C   0  0  1  0  0  0  0  0  0  0  0  0
    4.5558   -2.3891    1.9221 C   0  0  2  0  0  0  0  0  0  0  0  0
    5.7430   -1.7685    2.6532 C   0  0  0  0  0  0  0  0  0  0  0  0
    5.3527   -1.1509    4.0191 C   0  0  0  0  0  0  0  0  0  0  0  0
    3.8871   -0.6498    4.0752 C   0  0  1  0  0  0  0  0  0  0  0  0
    3.8094    0.8885    3.9837 C   0  0  0  0  0  0  0  0  0  0  0  0
    3.0023   -1.4244    3.0638 C   0  0  2  0  0  0  0  0  0  0  0  0
    1.5174   -1.0558    3.1764 C   0  0  0  0  0  0  0  0  0  0  0  0
    3.5742   -1.2318    1.6402 C   0  0  0  0  0  0  0  0  0  0  0  0
    3.3797   -0.4692    0.6934 O   0  0  0  0  0  0  0  0  0  0  0  0
    4.9820   -3.2009    0.6939 C   0  0  0  0  0  0  0  0  0  0  0  0
    3.9582   -4.2747    0.2442 C   0  0  0  0  0  0  0  0  0  0  0  0
    3.0583   -4.9997    1.3198 C   0  0  2  0  0  0  0  0  0  0  0  0
    1.9202   -5.5685    0.4366 C   0  0  0  0  0  0  0  0  0  0  0  0
    3.7914   -6.1707    2.1671 C   0  0  2  0  0  0  0  0  0  0  0  0
    5.3034   -5.8271    2.3168 C   0  0  0  0  0  0  0  0  0  0  0  0
    3.8978   -7.5452    1.4206 C   0  0  0  0  0  0  0  0  0  0  0  0
    2.6927   -8.4919    1.3180 C   0  0  0  0  0  0  0  0  0  0  0  0
    2.4695   -9.3696    2.5107 C   0  0  1  0  0  0  0  0  0  0  0  0
    2.3969   -8.9300    3.9515 C   0  0  2  0  0  0  0  0  0  0  0  0
    1.1450   -9.4093    3.2252 C   0  0  0  0  0  0  0  0  0  0  0  0
   -0.0010   -8.5122    2.7952 C   0  0  0  0  0  0  0  0  0  0  0  0
    0.5969  -10.7619    3.6080 C   0  0  0  0  0  0  0  0  0  0  0  0
    2.7742   -7.5287    4.4687 C   0  0  2  0  0  0  0  0  0  0  0  0
    3.5487   -7.7600    5.7743 C   0  0  0  0  0  0  0  0  0  0  0  0
    3.2629   -6.2876    3.6409 C   0  0  2  0  0  0  0  0  0  0  0  0
    0.1407   -7.7719    5.7845 H   0  0  0  0  0  0  0  0  0  0  0  0
   -0.2670   -5.9768    5.5533 H   0  0  0  0  0  0  0  0  0  0  0  0
    2.6601   -4.7413    5.0232 H   0  0  0  0  0  0  0  0  0  0  0  0
    0.6287   -5.0840    2.8025 H   0  0  0  0  0  0  0  0  0  0  0  0
    0.8730   -3.6960    3.7809 H   0  0  0  0  0  0  0  0  0  0  0  0
    1.7926   -3.3260    1.4906 H   0  0  0  0  0  0  0  0  0  0  0  0
    3.8366   -3.3172    3.7114 H   0  0  0  0  0  0  0  0  0  0  0  0
    6.4583   -2.5624    2.8210 H   0  0  0  0  0  0  0  0  0  0  0  0
    6.2584   -1.0318    2.0282 H   0  0  0  0  0  0  0  0  0  0  0  0
    5.4615   -1.9165    4.7867 H   0  0  0  0  0  0  0  0  0  0  0  0
    6.0418   -0.3532    4.2739 H   0  0  0  0  0  0  0  0  0  0  0  0
    3.5237   -0.8800    5.0766 H   0  0  0  0  0  0  0  0  0  0  0  0
    4.1706    1.2537    3.0285 H   0  0  0  0  0  0  0  0  0  0  0  0
    4.4170    1.3479    4.7601 H   0  0  0  0  0  0  0  0  0  0  0  0
    2.7985    1.2735    4.1184 H   0  0  0  0  0  0  0  0  0  0  0  0
    1.1279   -1.4050    4.1319 H   0  0  0  0  0  0  0  0  0  0  0  0
    0.9210   -1.5234    2.3970 H   0  0  0  0  0  0  0  0  0  0  0  0
    1.3279    0.0146    3.1064 H   0  0  0  0  0  0  0  0  0  0  0  0
    5.1783   -2.5361   -0.1525 H   0  0  0  0  0  0  0  0  0  0  0  0
    5.9555   -3.6747    0.8571 H   0  0  0  0  0  0  0  0  0  0  0  0
    3.2996   -3.7321   -0.4367 H   0  0  0  0  0  0  0  0  0  0  0  0
    4.4506   -5.0092   -0.3919 H   0  0  0  0  0  0  0  0  0  0  0  0
    2.3045   -6.2579   -0.3014 H   0  0  0  0  0  0  0  0  0  0  0  0
    1.4521   -4.7856   -0.1583 H   0  0  0  0  0  0  0  0  0  0  0  0
    1.1303   -6.0609    1.0006 H   0  0  0  0  0  0  0  0  0  0  0  0
    5.8263   -6.5621    2.9349 H   0  0  0  0  0  0  0  0  0  0  0  0
    5.4649   -4.8613    2.7955 H   0  0  0  0  0  0  0  0  0  0  0  0
    5.8212   -5.8357    1.3573 H   0  0  0  0  0  0  0  0  0  0  0  0
    4.2270   -7.3339    0.4039 H   0  0  0  0  0  0  0  0  0  0  0  0
    4.7074   -8.1380    1.8500 H   0  0  0  0  0  0  0  0  0  0  0  0
    1.7640   -8.0502    0.9886 H   0  0  0  0  0  0  0  0  0  0  0  0
    2.9300   -9.2090    0.5370 H   0  0  0  0  0  0  0  0  0  0  0  0
    2.9264  -10.3466    2.3628 H   0  0  0  0  0  0  0  0  0  0  0  0
    2.8140   -9.7053    4.5983 H   0  0  0  0  0  0  0  0  0  0  0  0
   -0.7552   -8.4697    3.5804 H   0  0  0  0  0  0  0  0  0  0  0  0
   -0.4651   -8.8931    1.8856 H   0  0  0  0  0  0  0  0  0  0  0  0
    0.3627   -7.5080    2.6045 H   0  0  0  0  0  0  0  0  0  0  0  0
   -0.0562  -10.6687    4.4745 H   0  0  0  0  0  0  0  0  0  0  0  0
    1.4012  -11.4491    3.8665 H   0  0  0  0  0  0  0  0  0  0  0  0
    0.0545  -11.1765    2.7639 H   0  0  0  0  0  0  0  0  0  0  0  0
    4.5257   -8.2025    5.5671 H   0  0  0  0  0  0  0  0  0  0  0  0
    3.0291   -8.4324    6.4568 H   0  0  0  0  0  0  0  0  0  0  0  0
    3.7322   -6.8372    6.3206 H   0  0  0  0  0  0  0  0  0  0  0  0
    4.1011   -5.9769    4.2574 H   0  0  0  0  0  0  0  0  0  0  0  0
  1  2  2  0
  1 32  1  0
  1 33  1  0
  2 29  1  0
  2  3  1  0
  3 31  1  0
  3  4  1  0
  3 34  1  1
  4  5  1  0
  4 35  1  0
  4 36  1  0
  5 18  1  0
  5  6  1  0
  5 37  1  6
  6 12  1  0
  6  7  1  0
  6 38  1  1
  7 14  1  0
  7  8  1  1
  7 16  1  0
  8  9  1  0
  8 39  1  0
  8 40  1  0
  9 10  1  0
  9 41  1  0
  9 42  1  0
 10 11  1  0
 10 12  1  0
 10 43  1  1
 11 44  1  0
 11 45  1  0
 11 46  1  0
 12 13  1  6
 12 14  1  0
 13 47  1  0
 13 48  1  0
 13 49  1  0
 14 15  2  0
 16 17  1  0
 16 50  1  0
 16 51  1  0
 17 18  1  0
 17 52  1  0
 17 53  1  0
 18 19  1  6
 18 20  1  0
 19 54  1  0
 19 55  1  0
 19 56  1  0
 20 31  1  0
 20 21  1  1
 20 22  1  0
 21 57  1  0
 21 58  1  0
 21 59  1  0
 22 23  1  0
 22 60  1  0
 22 61  1  0
 23 24  1  0
 23 62  1  0
 23 63  1  0
 24 26  1  0
 24 25  1  0
 24 64  1  1
 25 26  1  0
 25 29  1  0
 25 65  1  1
 26 27  1  0
 26 28  1  0
 27 66  1  0
 27 67  1  0
 27 68  1  0
 28 69  1  0
 28 70  1  0
 28 71  1  0
 29 30  1  1
 29 31  1  0
 30 72  1  0
 30 73  1  0
 30 74  1  0
 31 75  1  1
M  END
>  <i_m_ct_stereo_status>  (219) 
1

>  <s_m_source_file>  (219) 
/var/tmp/pbs.5076255.sched01/tmp9rjncpta/544vc0qzzn.sdf

>  <i_m_source_file_index>  (219) 
49

>  <i_lp_mmshare_version>  (219) 
48012

>  <i_f3d_flags>  (219) 
0

>  <s_epik_input>  (219) 
W0NIMl0xW0NIMl1bQ0BIXShDMihbQ0gzXSlbQ0gzXSlbQ0BIXTJbQ0BdMyhbQ0gzXSlDKD1bQ0gyXSlbQ0BIXShbQ0gyXTQpW0NAQEhdM1tDQF0xKFtDSDNdKVtDQF0oW0NIM10pKFtDSDJdW0NIMl01KVtDQEBIXTRbQ0BASF0oW0NAXTU2NylbQ0BdKFtDSDNdKShDNz1PKVtDQEhdKFtDSDNdKVtDSDJdW0NIMl02

>  <s_epik_cmdline>  (219) 
J2VwaWtfcHl0aG9uJywgJy1waHQnLCAnMi4wJywgJy1waCcsICc3LjAnLCAnLXRuJywgJzgnLCAnLW1hJywgJzIwMCcsICctaW1hZScsICc8aW5maWxlLm1hZT4nLCAnLW9tYWUnLCAnPG91dGZpbGUubWFlPic=

>  <r_lp_tautomer_probability>  (219) 
1

>  <r_epik_Ionization_Penalty>  (219) 
0

>  <r_epik_Ionization_Penalty_Charging>  (219) 
0

>  <r_epik_Ionization_Penalty_Neutral>  (219) 
0

>  <r_epik_State_Penalty>  (219) 
-0

>  <r_epik_Charging_Adjusted_Penalty>  (219) 
0

>  <i_epik_Tot_Q>  (219) 
0

>  <i_epik_Tot_abs_Q>  (219) 
0

>  <s_lp_Force_Field>  (219) 
OPLS3e

>  <r_lp_Energy>  (219) 
137.366

>  <b_lp_Chiralities_Consistent>  (219) 
1

>  <s_lp_Variant>  (219) 
66:0-1

>  <s_i_glide_gridfile>  (219) 
pfpi4k_grid

>  <i_i_glide_lignum>  (219) 
49

>  <i_i_glide_rotatable_bonds>  (219) 
0

>  <r_i_docking_score>  (219) 
-1.79121

>  <r_i_glide_ligand_efficiency>  (219) 
-0.0577811

>  <r_i_glide_ligand_efficiency_sa>  (219) 
-0.181512

>  <r_i_glide_ligand_efficiency_ln>  (219) 
-0.403974

>  <r_i_glide_gscore>  (219) 
-1.79121

>  <r_i_glide_lipo>  (219) 
-0.276064

>  <r_i_glide_hbond>  (219) 
0

>  <r_i_glide_metal>  (219) 
-0

>  <r_i_glide_rewards>  (219) 
-0.540888

>  <r_i_glide_evdw>  (219) 
-18.5686

>  <r_i_glide_ecoul>  (219) 
-0.203592

>  <r_i_glide_erotb>  (219) 
0

>  <r_i_glide_esite>  (219) 
-0.0152916

>  <r_i_glide_emodel>  (219) 
-20.5859

>  <r_i_glide_energy>  (219) 
-18.7722

>  <r_i_glide_einternal>  (219) 
0

>  <r_i_glide_intrahb_reward>  (219) 
-0

>  <i_i_glide_confnum>  (219) 
2

>  <i_i_glide_posenum>  (219) 
2

>  <r_i_glide_eff_state_penalty>  (219) 
0

>  <ligand_id>  (219) 
66

>  <original_smiles>  (219) 
C=C1C2CC3C4C5(CCC(C)C4(C)C5=O)CCC3(C)C3(C)CCC4C(C4(C)C)C1(C)C23

>  <smiles>  (219) 
[H]C([H])=C1C2([H])C([H])([H])C3([H])C4([H])C5(C(=O)C4(C([H])([H])[H])C([H])(C([H])([H])[H])C([H])([H])C5([H])[H])C([H])([H])C([H])([H])C3(C([H])([H])[H])C3(C([H])([H])[H])C([H])([H])C([H])([H])C4([H])C([H])(C1(C([H])([H])[H])C23[H])C4(C([H])([H])[H])C([H])([H])[H]

$$$$
66:0:1
     RDKit          3D

 75 81  0  0  1  0  0  0  0  0999 V2000
    1.5697   -7.7501    1.7672 C   0  0  0  0  0  0  0  0  0  0  0  0
    1.0235   -7.2114    2.8735 C   0  0  0  0  0  0  0  0  0  0  0  0
    1.1108   -5.8053    3.4198 C   0  0  2  0  0  0  0  0  0  0  0  0
    2.4744   -5.1981    3.6575 C   0  0  0  0  0  0  0  0  0  0  0  0
    2.4253   -4.3248    4.9406 C   0  0  1  0  0  0  0  0  0  0  0  0
    1.4842   -3.1043    4.7791 C   0  0  1  0  0  0  0  0  0  0  0  0
    1.1378   -2.2437    6.0290 C   0  0  2  0  0  0  0  0  0  0  0  0
   -0.1034   -1.3362    5.9249 C   0  0  0  0  0  0  0  0  0  0  0  0
   -0.3737   -0.8854    4.4720 C   0  0  0  0  0  0  0  0  0  0  0  0
    0.8936   -0.8231    3.5803 C   0  0  1  0  0  0  0  0  0  0  0  0
    1.3581    0.6344    3.3463 C   0  0  0  0  0  0  0  0  0  0  0  0
    1.9889   -1.7942    4.0978 C   0  0  2  0  0  0  0  0  0  0  0  0
    3.1992   -1.8736    3.1600 C   0  0  0  0  0  0  0  0  0  0  0  0
    2.3500   -1.4080    5.5462 C   0  0  0  0  0  0  0  0  0  0  0  0
    3.2506   -0.7486    6.0942 O   0  0  0  0  0  0  0  0  0  0  0  0
    1.2990   -2.8632    7.4219 C   0  0  0  0  0  0  0  0  0  0  0  0
    2.1368   -4.1731    7.4557 C   0  0  0  0  0  0  0  0  0  0  0  0
    2.1143   -5.1599    6.2262 C   0  0  2  0  0  0  0  0  0  0  0  0
    3.3936   -6.0071    6.4683 C   0  0  0  0  0  0  0  0  0  0  0  0
    0.7882   -6.0861    6.1102 C   0  0  2  0  0  0  0  0  0  0  0  0
   -0.4317   -5.3166    6.7085 C   0  0  0  0  0  0  0  0  0  0  0  0
    0.8218   -7.3461    7.0415 C   0  0  0  0  0  0  0  0  0  0  0  0
    1.6313   -8.6017    6.6750 C   0  0  0  0  0  0  0  0  0  0  0  0
    0.9414   -9.5476    5.7222 C   0  0  1  0  0  0  0  0  0  0  0  0
    0.3008   -9.1837    4.4004 C   0  0  2  0  0  0  0  0  0  0  0  0
    1.6029   -9.9873    4.4389 C   0  0  0  0  0  0  0  0  0  0  0  0
    2.9563   -9.4394    4.0358 C   0  0  0  0  0  0  0  0  0  0  0  0
    1.5266  -11.4550    4.0621 C   0  0  0  0  0  0  0  0  0  0  0  0
    0.0256   -7.7456    3.9049 C   0  0  2  0  0  0  0  0  0  0  0  0
   -1.3722   -7.7865    3.2627 C   0  0  0  0  0  0  0  0  0  0  0  0
    0.3650   -6.3934    4.6268 C   0  0  2  0  0  0  0  0  0  0  0  0
    1.3638   -8.7694    1.4721 H   0  0  0  0  0  0  0  0  0  0  0  0
    2.2274   -7.1606    1.1396 H   0  0  0  0  0  0  0  0  0  0  0  0
    0.4601   -5.1154    2.8855 H   0  0  0  0  0  0  0  0  0  0  0  0
    3.2304   -5.9771    3.7427 H   0  0  0  0  0  0  0  0  0  0  0  0
    2.7957   -4.6090    2.8007 H   0  0  0  0  0  0  0  0  0  0  0  0
    3.4430   -3.9517    5.0816 H   0  0  0  0  0  0  0  0  0  0  0  0
    0.5388   -3.3956    4.3227 H   0  0  0  0  0  0  0  0  0  0  0  0
   -0.9933   -1.8549    6.2868 H   0  0  0  0  0  0  0  0  0  0  0  0
    0.0103   -0.4661    6.5735 H   0  0  0  0  0  0  0  0  0  0  0  0
   -1.0508   -1.6140    4.0397 H   0  0  0  0  0  0  0  0  0  0  0  0
   -0.8967    0.0661    4.4671 H   0  0  0  0  0  0  0  0  0  0  0  0
    0.5953   -1.1729    2.5902 H   0  0  0  0  0  0  0  0  0  0  0  0
    1.6653    1.1364    4.2630 H   0  0  0  0  0  0  0  0  0  0  0  0
    0.5481    1.2171    2.9123 H   0  0  0  0  0  0  0  0  0  0  0  0
    2.1802    0.7029    2.6333 H   0  0  0  0  0  0  0  0  0  0  0  0
    2.9089   -2.3459    2.2195 H   0  0  0  0  0  0  0  0  0  0  0  0
    4.0076   -2.4739    3.5770 H   0  0  0  0  0  0  0  0  0  0  0  0
    3.6335   -0.9035    2.9215 H   0  0  0  0  0  0  0  0  0  0  0  0
    1.7576   -2.1459    8.1066 H   0  0  0  0  0  0  0  0  0  0  0  0
    0.3236   -3.0410    7.8798 H   0  0  0  0  0  0  0  0  0  0  0  0
    3.1644   -3.8257    7.5807 H   0  0  0  0  0  0  0  0  0  0  0  0
    1.9191   -4.7144    8.3767 H   0  0  0  0  0  0  0  0  0  0  0  0
    3.3673   -6.5313    7.4234 H   0  0  0  0  0  0  0  0  0  0  0  0
    4.2911   -5.3908    6.4970 H   0  0  0  0  0  0  0  0  0  0  0  0
    3.5783   -6.7311    5.6826 H   0  0  0  0  0  0  0  0  0  0  0  0
   -1.3714   -5.8502    6.5871 H   0  0  0  0  0  0  0  0  0  0  0  0
   -0.5955   -4.3564    6.2186 H   0  0  0  0  0  0  0  0  0  0  0  0
   -0.3273   -5.1577    7.7832 H   0  0  0  0  0  0  0  0  0  0  0  0
    1.1517   -7.0171    8.0272 H   0  0  0  0  0  0  0  0  0  0  0  0
   -0.1881   -7.7115    7.2114 H   0  0  0  0  0  0  0  0  0  0  0  0
    2.6491   -8.4241    6.3673 H   0  0  0  0  0  0  0  0  0  0  0  0
    1.7565   -9.1698    7.5959 H   0  0  0  0  0  0  0  0  0  0  0  0
    0.4229  -10.3406    6.2607 H   0  0  0  0  0  0  0  0  0  0  0  0
   -0.5584   -9.8231    4.1988 H   0  0  0  0  0  0  0  0  0  0  0  0
    3.1405   -9.6343    2.9796 H   0  0  0  0  0  0  0  0  0  0  0  0
    3.7429   -9.9106    4.6227 H   0  0  0  0  0  0  0  0  0  0  0  0
    2.9955   -8.3658    4.2004 H   0  0  0  0  0  0  0  0  0  0  0  0
    1.5854  -11.5746    2.9799 H   0  0  0  0  0  0  0  0  0  0  0  0
    0.5832  -11.8826    4.3980 H   0  0  0  0  0  0  0  0  0  0  0  0
    2.3338  -12.0157    4.5312 H   0  0  0  0  0  0  0  0  0  0  0  0
   -2.1436   -7.9270    4.0250 H   0  0  0  0  0  0  0  0  0  0  0  0
   -1.4795   -8.5985    2.5449 H   0  0  0  0  0  0  0  0  0  0  0  0
   -1.6179   -6.8702    2.7309 H   0  0  0  0  0  0  0  0  0  0  0  0
   -0.5793   -5.8687    4.4968 H   0  0  0  0  0  0  0  0  0  0  0  0
  1  2  2  0
  1 32  1  0
  1 33  1  0
  2 29  1  0
  2  3  1  0
  3 31  1  0
  3  4  1  0
  3 34  1  6
  4  5  1  0
  4 35  1  0
  4 36  1  0
  5 18  1  0
  5  6  1  0
  5 37  1  1
  6 12  1  0
  6  7  1  0
  6 38  1  6
  7 14  1  0
  7  8  1  6
  7 16  1  0
  8  9  1  0
  8 39  1  0
  8 40  1  0
  9 10  1  0
  9 41  1  0
  9 42  1  0
 10 11  1  0
 10 12  1  0
 10 43  1  6
 11 44  1  0
 11 45  1  0
 11 46  1  0
 12 13  1  6
 12 14  1  0
 13 47  1  0
 13 48  1  0
 13 49  1  0
 14 15  2  0
 16 17  1  0
 16 50  1  0
 16 51  1  0
 17 18  1  0
 17 52  1  0
 17 53  1  0
 18 19  1  1
 18 20  1  0
 19 54  1  0
 19 55  1  0
 19 56  1  0
 20 31  1  0
 20 21  1  1
 20 22  1  0
 21 57  1  0
 21 58  1  0
 21 59  1  0
 22 23  1  0
 22 60  1  0
 22 61  1  0
 23 24  1  0
 23 62  1  0
 23 63  1  0
 24 26  1  0
 24 25  1  0
 24 64  1  1
 25 26  1  0
 25 29  1  0
 25 65  1  1
 26 27  1  0
 26 28  1  0
 27 66  1  0
 27 67  1  0
 27 68  1  0
 28 69  1  0
 28 70  1  0
 28 71  1  0
 29 30  1  6
 29 31  1  0
 30 72  1  0
 30 73  1  0
 30 74  1  0
 31 75  1  1
M  END
>  <i_m_ct_stereo_status>  (220) 
1

>  <s_m_source_file>  (220) 
/var/tmp/pbs.5076255.sched01/tmp9rjncpta/544vc0qzzn.sdf

>  <i_m_source_file_index>  (220) 
49

>  <i_lp_mmshare_version>  (220) 
48012

>  <i_f3d_flags>  (220) 
0

>  <s_epik_input>  (220) 
W0NIMl0xW0NIMl1bQ0BIXShDMihbQ0gzXSlbQ0gzXSlbQ0BIXTJbQ0BdMyhbQ0gzXSlDKD1bQ0gyXSlbQ0BIXShbQ0gyXTQpW0NAQEhdM1tDQF0xKFtDSDNdKVtDQF0oW0NIM10pKFtDSDJdW0NIMl01KVtDQEBIXTRbQ0BASF0oW0NAXTU2NylbQ0BdKFtDSDNdKShDNz1PKVtDQEhdKFtDSDNdKVtDSDJdW0NIMl02

>  <s_epik_cmdline>  (220) 
J2VwaWtfcHl0aG9uJywgJy1waHQnLCAnMi4wJywgJy1waCcsICc3LjAnLCAnLXRuJywgJzgnLCAnLW1hJywgJzIwMCcsICctaW1hZScsICc8aW5maWxlLm1hZT4nLCAnLW9tYWUnLCAnPG91dGZpbGUubWFlPic=

>  <r_lp_tautomer_probability>  (220) 
1

>  <r_epik_Ionization_Penalty>  (220) 
0

>  <r_epik_Ionization_Penalty_Charging>  (220) 
0

>  <r_epik_Ionization_Penalty_Neutral>  (220) 
0

>  <r_epik_State_Penalty>  (220) 
-0

>  <r_epik_Charging_Adjusted_Penalty>  (220) 
0

>  <i_epik_Tot_Q>  (220) 
0

>  <i_epik_Tot_abs_Q>  (220) 
0

>  <s_lp_Force_Field>  (220) 
OPLS3e

>  <r_lp_Energy>  (220) 
137.366

>  <b_lp_Chiralities_Consistent>  (220) 
1

>  <s_lp_Variant>  (220) 
66:0-1

>  <s_i_glide_gridfile>  (220) 
pfpi4k_grid

>  <i_i_glide_lignum>  (220) 
49

>  <i_i_glide_rotatable_bonds>  (220) 
0

>  <r_i_docking_score>  (220) 
-1.74908

>  <r_i_glide_ligand_efficiency>  (220) 
-0.0564218

>  <r_i_glide_ligand_efficiency_sa>  (220) 
-0.177242

>  <r_i_glide_ligand_efficiency_ln>  (220) 
-0.39447

>  <r_i_glide_gscore>  (220) 
-1.74908

>  <r_i_glide_lipo>  (220) 
-0.142751

>  <r_i_glide_hbond>  (220) 
0

>  <r_i_glide_metal>  (220) 
-0

>  <r_i_glide_rewards>  (220) 
-0.540888

>  <r_i_glide_evdw>  (220) 
-20.1739

>  <r_i_glide_ecoul>  (220) 
-0.378275

>  <r_i_glide_erotb>  (220) 
0

>  <r_i_glide_esite>  (220) 
0

>  <r_i_glide_emodel>  (220) 
-22.4125

>  <r_i_glide_energy>  (220) 
-20.5522

>  <r_i_glide_einternal>  (220) 
0

>  <r_i_glide_intrahb_reward>  (220) 
-0

>  <i_i_glide_confnum>  (220) 
2

>  <i_i_glide_posenum>  (220) 
1

>  <r_i_glide_eff_state_penalty>  (220) 
0

>  <ligand_id>  (220) 
66

>  <original_smiles>  (220) 
C=C1C2CC3C4C5(CCC(C)C4(C)C5=O)CCC3(C)C3(C)CCC4C(C4(C)C)C1(C)C23

>  <smiles>  (220) 
[H]C([H])=C1C2([H])C([H])([H])C3([H])C4([H])C5(C(=O)C4(C([H])([H])[H])C([H])(C([H])([H])[H])C([H])([H])C5([H])[H])C([H])([H])C([H])([H])C3(C([H])([H])[H])C3(C([H])([H])[H])C([H])([H])C([H])([H])C4([H])C([H])(C1(C([H])([H])[H])C23[H])C4(C([H])([H])[H])C([H])([H])[H]

$$$$
66:0:2
     RDKit          3D

 75 81  0  0  1  0  0  0  0  0999 V2000
    2.9820   -5.1805    0.6152 C   0  0  0  0  0  0  0  0  0  0  0  0
    2.2824   -5.5206    1.7152 C   0  0  0  0  0  0  0  0  0  0  0  0
    1.9029   -4.6987    2.9237 C   0  0  2  0  0  0  0  0  0  0  0  0
    2.9991   -3.9949    3.7012 C   0  0  0  0  0  0  0  0  0  0  0  0
    2.6594   -4.0404    5.2122 C   0  0  1  0  0  0  0  0  0  0  0  0
    1.3769   -3.2383    5.5418 C   0  0  1  0  0  0  0  0  0  0  0  0
    0.7676   -3.3531    6.9618 C   0  0  2  0  0  0  0  0  0  0  0  0
   -0.6982   -2.9236    7.1078 C   0  0  0  0  0  0  0  0  0  0  0  0
   -1.0852   -1.8113    6.0983 C   0  0  0  0  0  0  0  0  0  0  0  0
    0.0988   -0.9253    5.6378 C   0  0  1  0  0  0  0  0  0  0  0  0
    0.0619    0.4704    6.3094 C   0  0  0  0  0  0  0  0  0  0  0  0
    1.4415   -1.6938    5.7687 C   0  0  2  0  0  0  0  0  0  0  0  0
    2.6214   -0.9112    5.1740 C   0  0  0  0  0  0  0  0  0  0  0  0
    1.6470   -2.1009    7.2496 C   0  0  0  0  0  0  0  0  0  0  0  0
    2.2643   -1.6516    8.2114 O   0  0  0  0  0  0  0  0  0  0  0  0
    1.1027   -4.5767    7.8265 C   0  0  0  0  0  0  0  0  0  0  0  0
    2.3149   -5.4044    7.3254 C   0  0  0  0  0  0  0  0  0  0  0  0
    2.6223   -5.4971    5.7822 C   0  0  2  0  0  0  0  0  0  0  0  0
    4.1034   -5.9616    5.7763 C   0  0  0  0  0  0  0  0  0  0  0  0
    1.6621   -6.5109    4.9454 C   0  0  2  0  0  0  0  0  0  0  0  0
    0.2563   -6.5681    5.6142 C   0  0  0  0  0  0  0  0  0  0  0  0
    2.0772   -8.0162    5.0553 C   0  0  0  0  0  0  0  0  0  0  0  0
    3.2626   -8.5791    4.2548 C   0  0  0  0  0  0  0  0  0  0  0  0
    2.9366   -8.9698    2.8380 C   0  0  1  0  0  0  0  0  0  0  0  0
    2.2246   -8.1116    1.8168 C   0  0  2  0  0  0  0  0  0  0  0  0
    3.7157   -8.4102    1.6784 C   0  0  0  0  0  0  0  0  0  0  0  0
    4.8244   -7.4005    1.8784 C   0  0  0  0  0  0  0  0  0  0  0  0
    4.1157   -9.3573    0.5813 C   0  0  0  0  0  0  0  0  0  0  0  0
    1.5031   -6.7774    2.1042 C   0  0  2  0  0  0  0  0  0  0  0  0
    0.1979   -6.8261    1.2909 C   0  0  0  0  0  0  0  0  0  0  0  0
    1.3758   -6.0259    3.4762 C   0  0  2  0  0  0  0  0  0  0  0  0
    3.1205   -5.8712   -0.2084 H   0  0  0  0  0  0  0  0  0  0  0  0
    3.4173   -4.1898    0.5257 H   0  0  0  0  0  0  0  0  0  0  0  0
    1.0676   -4.0246    2.7261 H   0  0  0  0  0  0  0  0  0  0  0  0
    3.9635   -4.4545    3.5033 H   0  0  0  0  0  0  0  0  0  0  0  0
    3.1183   -2.9674    3.3622 H   0  0  0  0  0  0  0  0  0  0  0  0
    3.4974   -3.5573    5.7191 H   0  0  0  0  0  0  0  0  0  0  0  0
    0.5841   -3.4605    4.8355 H   0  0  0  0  0  0  0  0  0  0  0  0
   -1.3764   -3.7686    6.9693 H   0  0  0  0  0  0  0  0  0  0  0  0
   -0.8516   -2.6216    8.1439 H   0  0  0  0  0  0  0  0  0  0  0  0
   -1.4888   -2.2933    5.2108 H   0  0  0  0  0  0  0  0  0  0  0  0
   -1.8768   -1.1865    6.4795 H   0  0  0  0  0  0  0  0  0  0  0  0
   -0.0620   -0.7266    4.5798 H   0  0  0  0  0  0  0  0  0  0  0  0
    0.1840    0.4331    7.3899 H   0  0  0  0  0  0  0  0  0  0  0  0
   -0.8882    0.9589    6.1035 H   0  0  0  0  0  0  0  0  0  0  0  0
    0.8245    1.1402    5.9102 H   0  0  0  0  0  0  0  0  0  0  0  0
    2.5047   -0.8338    4.0941 H   0  0  0  0  0  0  0  0  0  0  0  0
    3.5751   -1.4036    5.3575 H   0  0  0  0  0  0  0  0  0  0  0  0
    2.7185    0.0987    5.5706 H   0  0  0  0  0  0  0  0  0  0  0  0
    1.2941   -4.2728    8.8588 H   0  0  0  0  0  0  0  0  0  0  0  0
    0.2294   -5.2246    7.9293 H   0  0  0  0  0  0  0  0  0  0  0  0
    3.1723   -4.9295    7.8057 H   0  0  0  0  0  0  0  0  0  0  0  0
    2.2738   -6.4031    7.7647 H   0  0  0  0  0  0  0  0  0  0  0  0
    4.2391   -6.9143    6.2881 H   0  0  0  0  0  0  0  0  0  0  0  0
    4.7528   -5.2563    6.2948 H   0  0  0  0  0  0  0  0  0  0  0  0
    4.5207   -6.0406    4.7799 H   0  0  0  0  0  0  0  0  0  0  0  0
   -0.4372   -7.1989    5.0493 H   0  0  0  0  0  0  0  0  0  0  0  0
   -0.2170   -5.5900    5.6787 H   0  0  0  0  0  0  0  0  0  0  0  0
    0.2924   -7.0080    6.6111 H   0  0  0  0  0  0  0  0  0  0  0  0
    2.2788   -8.2219    6.1076 H   0  0  0  0  0  0  0  0  0  0  0  0
    1.2248   -8.6581    4.8160 H   0  0  0  0  0  0  0  0  0  0  0  0
    4.1703   -7.9972    4.2876 H   0  0  0  0  0  0  0  0  0  0  0  0
    3.5597   -9.5054    4.7458 H   0  0  0  0  0  0  0  0  0  0  0  0
    2.7023  -10.0305    2.7658 H   0  0  0  0  0  0  0  0  0  0  0  0
    1.6140   -8.7367    1.1684 H   0  0  0  0  0  0  0  0  0  0  0  0
    5.0693   -6.9192    0.9318 H   0  0  0  0  0  0  0  0  0  0  0  0
    5.7159   -7.8981    2.2596 H   0  0  0  0  0  0  0  0  0  0  0  0
    4.5148   -6.6391    2.5876 H   0  0  0  0  0  0  0  0  0  0  0  0
    4.2207   -8.8161   -0.3525 H   0  0  0  0  0  0  0  0  0  0  0  0
    3.3181  -10.0831    0.4556 H   0  0  0  0  0  0  0  0  0  0  0  0
    5.0450   -9.8722    0.8257 H   0  0  0  0  0  0  0  0  0  0  0  0
   -0.4876   -7.5681    1.7014 H   0  0  0  0  0  0  0  0  0  0  0  0
    0.3677   -7.0856    0.2463 H   0  0  0  0  0  0  0  0  0  0  0  0
   -0.3314   -5.8805    1.2973 H   0  0  0  0  0  0  0  0  0  0  0  0
    0.3155   -5.7906    3.4690 H   0  0  0  0  0  0  0  0  0  0  0  0
  1  2  2  0
  1 32  1  0
  1 33  1  0
  2 29  1  0
  2  3  1  0
  3 31  1  0
  3  4  1  0
  3 34  1  6
  4  5  1  0
  4 35  1  0
  4 36  1  0
  5 18  1  0
  5  6  1  0
  5 37  1  1
  6 12  1  0
  6  7  1  0
  6 38  1  6
  7 14  1  0
  7  8  1  6
  7 16  1  0
  8  9  1  0
  8 39  1  0
  8 40  1  0
  9 10  1  0
  9 41  1  0
  9 42  1  0
 10 11  1  0
 10 12  1  0
 10 43  1  6
 11 44  1  0
 11 45  1  0
 11 46  1  0
 12 13  1  6
 12 14  1  0
 13 47  1  0
 13 48  1  0
 13 49  1  0
 14 15  2  0
 16 17  1  0
 16 50  1  0
 16 51  1  0
 17 18  1  0
 17 52  1  0
 17 53  1  0
 18 19  1  1
 18 20  1  0
 19 54  1  0
 19 55  1  0
 19 56  1  0
 20 31  1  0
 20 21  1  1
 20 22  1  0
 21 57  1  0
 21 58  1  0
 21 59  1  0
 22 23  1  0
 22 60  1  0
 22 61  1  0
 23 24  1  0
 23 62  1  0
 23 63  1  0
 24 26  1  0
 24 25  1  0
 24 64  1  1
 25 26  1  0
 25 29  1  0
 25 65  1  6
 26 27  1  0
 26 28  1  0
 27 66  1  0
 27 67  1  0
 27 68  1  0
 28 69  1  0
 28 70  1  0
 28 71  1  0
 29 30  1  6
 29 31  1  0
 30 72  1  0
 30 73  1  0
 30 74  1  0
 31 75  1  1
M  END
>  <i_m_ct_stereo_status>  (221) 
1

>  <s_m_source_file>  (221) 
/var/tmp/pbs.5076255.sched01/tmp9rjncpta/544vc0qzzn.sdf

>  <i_m_source_file_index>  (221) 
49

>  <i_lp_mmshare_version>  (221) 
48012

>  <i_f3d_flags>  (221) 
0

>  <s_epik_input>  (221) 
W0NIMl0xW0NIMl1bQ0BIXShDMihbQ0gzXSlbQ0gzXSlbQ0BIXTJbQ0BdMyhbQ0gzXSlDKD1bQ0gyXSlbQ0BIXShbQ0gyXTQpW0NAQEhdM1tDQF0xKFtDSDNdKVtDQF0oW0NIM10pKFtDSDJdW0NIMl01KVtDQEBIXTRbQ0BASF0oW0NAXTU2NylbQ0BdKFtDSDNdKShDNz1PKVtDQEhdKFtDSDNdKVtDSDJdW0NIMl02

>  <s_epik_cmdline>  (221) 
J2VwaWtfcHl0aG9uJywgJy1waHQnLCAnMi4wJywgJy1waCcsICc3LjAnLCAnLXRuJywgJzgnLCAnLW1hJywgJzIwMCcsICctaW1hZScsICc8aW5maWxlLm1hZT4nLCAnLW9tYWUnLCAnPG91dGZpbGUubWFlPic=

>  <r_lp_tautomer_probability>  (221) 
1

>  <r_epik_Ionization_Penalty>  (221) 
0

>  <r_epik_Ionization_Penalty_Charging>  (221) 
0

>  <r_epik_Ionization_Penalty_Neutral>  (221) 
0

>  <r_epik_State_Penalty>  (221) 
-0

>  <r_epik_Charging_Adjusted_Penalty>  (221) 
0

>  <i_epik_Tot_Q>  (221) 
0

>  <i_epik_Tot_abs_Q>  (221) 
0

>  <s_lp_Force_Field>  (221) 
OPLS3e

>  <r_lp_Energy>  (221) 
137.366

>  <b_lp_Chiralities_Consistent>  (221) 
1

>  <s_lp_Variant>  (221) 
66:0-1

>  <s_i_glide_gridfile>  (221) 
pfpi4k_grid

>  <i_i_glide_lignum>  (221) 
49

>  <i_i_glide_rotatable_bonds>  (221) 
0

>  <r_i_docking_score>  (221) 
-1.23651

>  <r_i_glide_ligand_efficiency>  (221) 
-0.0398875

>  <r_i_glide_ligand_efficiency_sa>  (221) 
-0.125302

>  <r_i_glide_ligand_efficiency_ln>  (221) 
-0.278872

>  <r_i_glide_gscore>  (221) 
-1.23651

>  <r_i_glide_lipo>  (221) 
-0.0450442

>  <r_i_glide_hbond>  (221) 
0

>  <r_i_glide_metal>  (221) 
-0

>  <r_i_glide_rewards>  (221) 
-0.540888

>  <r_i_glide_evdw>  (221) 
-16.2247

>  <r_i_glide_ecoul>  (221) 
1.08974

>  <r_i_glide_erotb>  (221) 
0

>  <r_i_glide_esite>  (221) 
-0.002809

>  <r_i_glide_emodel>  (221) 
-16.279

>  <r_i_glide_energy>  (221) 
-15.1349

>  <r_i_glide_einternal>  (221) 
0

>  <r_i_glide_intrahb_reward>  (221) 
-0

>  <i_i_glide_confnum>  (221) 
2

>  <i_i_glide_posenum>  (221) 
23

>  <r_i_glide_eff_state_penalty>  (221) 
0

>  <ligand_id>  (221) 
66

>  <original_smiles>  (221) 
C=C1C2CC3C4C5(CCC(C)C4(C)C5=O)CCC3(C)C3(C)CCC4C(C4(C)C)C1(C)C23

>  <smiles>  (221) 
[H]C([H])=C1C2([H])C([H])([H])C3([H])C4([H])C5(C(=O)C4(C([H])([H])[H])C([H])(C([H])([H])[H])C([H])([H])C5([H])[H])C([H])([H])C([H])([H])C3(C([H])([H])[H])C3(C([H])([H])[H])C([H])([H])C([H])([H])C4([H])C([H])(C1(C([H])([H])[H])C23[H])C4(C([H])([H])[H])C([H])([H])[H]

$$$$
69:1:0
     RDKit          3D

 76 79  0  0  1  0  0  0  0  0999 V2000
    3.5028   -1.9508    1.0970 C   0  0  0  0  0  0  0  0  0  0  0  0
    3.8985   -1.2889    2.4066 C   0  0  0  0  0  0  0  0  0  0  0  0
    4.9789   -0.6968    2.4982 O   0  0  0  0  0  0  0  0  0  0  0  0
    2.9343   -1.3616    3.5747 C   0  0  2  0  0  0  0  0  0  0  0  0
    1.4472   -1.2778    3.2521 C   0  0  0  0  0  0  0  0  0  0  0  0
    2.1249   -0.1104    3.9571 C   0  0  1  0  0  0  0  0  0  0  0  0
    2.0994    0.3006    5.4359 C   0  0  0  0  0  0  0  0  0  0  0  0
    1.6230   -0.3115    6.5750 C   0  0  0  0  0  0  0  0  0  0  0  0
    1.7225    0.3171    7.9664 C   0  0  0  0  0  0  0  0  0  0  0  0
    1.0770   -1.6683    6.5050 C   0  0  0  0  0  0  0  0  0  0  0  0
    0.4590   -2.3626    7.4985 C   0  0  0  0  0  0  0  0  0  0  0  0
   -0.0475   -3.7299    7.3988 C   0  0  0  0  0  0  0  0  0  0  0  0
   -0.8124   -4.2563    8.6085 C   0  0  0  0  0  0  0  0  0  0  0  0
    0.1619   -4.4818    6.2950 C   0  0  0  0  0  0  0  0  0  0  0  0
   -0.2970   -5.8357    6.0411 C   0  0  0  0  0  0  0  0  0  0  0  0
    0.0567   -6.5925    4.9633 C   0  0  0  0  0  0  0  0  0  0  0  0
    0.9776   -6.0958    3.8508 C   0  0  0  0  0  0  0  0  0  0  0  0
   -0.4662   -8.0312    4.8155 C   0  0  2  0  0  0  0  0  0  0  0  0
    0.0314   -8.9625    5.9571 C   0  0  0  0  0  0  0  0  0  0  0  0
    0.6335  -10.1387    5.2411 C   0  0  0  0  0  0  0  0  0  0  0  0
    0.5422  -10.0373    3.9248 C   0  0  0  0  0  0  0  0  0  0  0  0
    1.1013  -10.9998    2.9051 C   0  0  0  0  0  0  0  0  0  0  0  0
   -0.1450   -8.7800    3.4673 C   0  0  1  0  0  0  0  0  0  0  0  0
   -1.4036   -9.0604    2.6389 C   0  0  0  0  0  0  0  0  0  0  0  0
    2.6819    1.6151    5.4000 N   0  0  0  0  0  0  0  0  0  0  0  0
    3.2695    1.9123    4.1008 C   0  0  0  0  0  0  0  0  0  0  0  0
    2.3474    1.1696    3.1564 C   0  0  2  0  0  0  0  0  0  0  0  0
    1.0601    1.9747    2.8829 C   0  0  1  0  0  0  0  0  0  0  0  0
    0.1923    1.3488    1.7797 C   0  0  0  0  0  0  0  0  0  0  0  0
    0.2489    2.0318    4.0510 O   0  0  0  0  0  0  0  0  0  0  0  0
    0.3111    3.2137    4.7320 C   0  0  0  0  0  0  0  0  0  0  0  0
   -0.7884    4.1607    4.3156 C   0  0  0  0  0  0  0  0  0  0  0  0
    1.2344    3.5094    5.6790 C   0  0  0  0  0  0  0  0  0  0  0  0
    2.3553    2.6839    6.1513 C   0  0  0  0  0  0  0  0  0  0  0  0
    3.0245    2.9984    7.1423 O   0  0  0  0  0  0  0  0  0  0  0  0
    3.3440   -3.0185    1.2446 H   0  0  0  0  0  0  0  0  0  0  0  0
    4.2632   -1.7999    0.3332 H   0  0  0  0  0  0  0  0  0  0  0  0
    2.5836   -1.5124    0.7134 H   0  0  0  0  0  0  0  0  0  0  0  0
    3.2529   -1.9894    4.4053 H   0  0  0  0  0  0  0  0  0  0  0  0
    1.1971   -1.1220    2.2139 H   0  0  0  0  0  0  0  0  0  0  0  0
    0.7497   -1.9323    3.7490 H   0  0  0  0  0  0  0  0  0  0  0  0
    1.7095   -0.4143    8.7741 H   0  0  0  0  0  0  0  0  0  0  0  0
    0.8907    1.0082    8.1382 H   0  0  0  0  0  0  0  0  0  0  0  0
    2.6729    0.8359    8.1133 H   0  0  0  0  0  0  0  0  0  0  0  0
    1.2316   -2.1655    5.5932 H   0  0  0  0  0  0  0  0  0  0  0  0
    0.3020   -1.9073    8.4644 H   0  0  0  0  0  0  0  0  0  0  0  0
   -0.3012   -3.9349    9.5201 H   0  0  0  0  0  0  0  0  0  0  0  0
   -0.8831   -5.3431    8.6553 H   0  0  0  0  0  0  0  0  0  0  0  0
   -1.8241   -3.8518    8.6272 H   0  0  0  0  0  0  0  0  0  0  0  0
    0.7211   -4.0437    5.4976 H   0  0  0  0  0  0  0  0  0  0  0  0
   -0.9704   -6.2576    6.7646 H   0  0  0  0  0  0  0  0  0  0  0  0
    0.4399   -6.0941    2.9042 H   0  0  0  0  0  0  0  0  0  0  0  0
    1.8344   -6.7610    3.7805 H   0  0  0  0  0  0  0  0  0  0  0  0
    1.3943   -5.1021    3.9586 H   0  0  0  0  0  0  0  0  0  0  0  0
   -1.5527   -7.9560    4.9079 H   0  0  0  0  0  0  0  0  0  0  0  0
    0.7689   -8.4912    6.6070 H   0  0  0  0  0  0  0  0  0  0  0  0
   -0.7892   -9.3178    6.5791 H   0  0  0  0  0  0  0  0  0  0  0  0
    1.1070  -10.9541    5.7773 H   0  0  0  0  0  0  0  0  0  0  0  0
    1.8287  -10.4954    2.2675 H   0  0  0  0  0  0  0  0  0  0  0  0
    0.2931  -11.3731    2.2788 H   0  0  0  0  0  0  0  0  0  0  0  0
    1.5961  -11.8478    3.3843 H   0  0  0  0  0  0  0  0  0  0  0  0
    0.5782   -8.2964    2.8098 H   0  0  0  0  0  0  0  0  0  0  0  0
   -1.1477   -9.5787    1.7171 H   0  0  0  0  0  0  0  0  0  0  0  0
   -1.9078   -8.1390    2.3625 H   0  0  0  0  0  0  0  0  0  0  0  0
   -2.1053   -9.6809    3.1907 H   0  0  0  0  0  0  0  0  0  0  0  0
    3.3730    2.9804    3.8537 H   0  0  0  0  0  0  0  0  0  0  0  0
    4.2719    1.4832    4.0777 H   0  0  0  0  0  0  0  0  0  0  0  0
    2.8395    1.0335    2.1996 H   0  0  0  0  0  0  0  0  0  0  0  0
    1.3458    2.9694    2.5372 H   0  0  0  0  0  0  0  0  0  0  0  0
    0.7761    1.0956    0.8937 H   0  0  0  0  0  0  0  0  0  0  0  0
   -0.5806    2.0560    1.4710 H   0  0  0  0  0  0  0  0  0  0  0  0
   -0.3252    0.4574    2.1146 H   0  0  0  0  0  0  0  0  0  0  0  0
   -0.7705    5.0757    4.9045 H   0  0  0  0  0  0  0  0  0  0  0  0
   -1.7563    3.6871    4.4449 H   0  0  0  0  0  0  0  0  0  0  0  0
   -0.6806    4.4342    3.2688 H   0  0  0  0  0  0  0  0  0  0  0  0
    1.1501    4.4848    6.1398 H   0  0  0  0  0  0  0  0  0  0  0  0
  1  2  1  0
  1 36  1  0
  1 37  1  0
  1 38  1  0
  2  3  2  0
  2  4  1  0
  4  6  1  0
  4  5  1  0
  4 39  1  1
  6  5  1  6
  5 40  1  0
  5 41  1  0
  6 27  1  0
  6  7  1  0
  7  8  2  3
  7 25  1  0
  8  9  1  0
  8 10  1  0
  9 42  1  0
  9 43  1  0
  9 44  1  0
 10 11  2  3
 10 45  1  0
 11 12  1  0
 11 46  1  0
 12 13  1  0
 12 14  2  3
 13 47  1  0
 13 48  1  0
 13 49  1  0
 14 15  1  0
 14 50  1  0
 15 16  2  3
 15 51  1  0
 16 17  1  0
 16 18  1  0
 17 52  1  0
 17 53  1  0
 17 54  1  0
 18 23  1  0
 18 19  1  0
 18 55  1  1
 19 20  1  0
 19 56  1  0
 19 57  1  0
 20 21  2  0
 20 58  1  0
 21 22  1  0
 21 23  1  0
 22 59  1  0
 22 60  1  0
 22 61  1  0
 23 24  1  0
 23 62  1  6
 24 63  1  0
 24 64  1  0
 24 65  1  0
 25 34  1  0
 25 26  1  0
 26 27  1  0
 26 66  1  0
 26 67  1  0
 27 28  1  0
 27 68  1  6
 28 29  1  0
 28 30  1  0
 28 69  1  6
 29 70  1  0
 29 71  1  0
 29 72  1  0
 30 31  1  0
 31 32  1  0
 31 33  2  3
 32 73  1  0
 32 74  1  0
 32 75  1  0
 33 34  1  0
 33 76  1  0
 34 35  2  0
M  END
>  <i_m_ct_stereo_status>  (222) 
1

>  <s_m_source_file>  (222) 
/var/tmp/pbs.5076255.sched01/tmp9rjncpta/544vc0qzzn.sdf

>  <i_m_source_file_index>  (222) 
53

>  <i_lp_mmshare_version>  (222) 
48012

>  <i_f3d_flags>  (222) 
0

>  <s_epik_input>  (222) 
W0NIM11DKD1PKVtDQEhdKFtDSDJdMSlbQ0BAXTEyW0NAQEhdM1tDSDJdTihDKD1PKS9bQ0hdPUMoW0NIM10pXE9bQ0BASF0zW0NIM10pQ1wyPUMoXFtDSDNdKS9bQ0hdPVtDSF0vQyhbQ0gzXSk9W0NIXS9bQ0hdPUMoXFtDSDNdKVtDQEBIXTRbQ0gyXVtDSF09QyhbQ0gzXSlbQ0BIXTRbQ0gzXQ==

>  <s_epik_cmdline>  (222) 
J2VwaWtfcHl0aG9uJywgJy1waHQnLCAnMi4wJywgJy1waCcsICc3LjAnLCAnLXRuJywgJzgnLCAnLW1hJywgJzIwMCcsICctaW1hZScsICc8aW5maWxlLm1hZT4nLCAnLW9tYWUnLCAnPG91dGZpbGUubWFlPic=

>  <r_lp_tautomer_probability>  (222) 
1

>  <r_epik_Ionization_Penalty>  (222) 
1.49479e-07

>  <r_epik_Ionization_Penalty_Charging>  (222) 
0

>  <r_epik_Ionization_Penalty_Neutral>  (222) 
1.49479e-07

>  <r_epik_State_Penalty>  (222) 
-0

>  <r_epik_Charging_Adjusted_Penalty>  (222) 
0

>  <i_epik_Tot_Q>  (222) 
0

>  <i_epik_Tot_abs_Q>  (222) 
0

>  <s_lp_Force_Field>  (222) 
OPLS3e

>  <r_lp_Energy>  (222) 
61.3708

>  <b_lp_Chiralities_Consistent>  (222) 
1

>  <s_lp_Variant>  (222) 
69:0-2

>  <s_i_glide_gridfile>  (222) 
pfpi4k_grid

>  <i_i_glide_lignum>  (222) 
53

>  <i_i_glide_rotatable_bonds>  (222) 
5

>  <r_i_docking_score>  (222) 
-1.90687

>  <r_i_glide_ligand_efficiency>  (222) 
-0.054482

>  <r_i_glide_ligand_efficiency_sa>  (222) 
-0.178214

>  <r_i_glide_ligand_efficiency_ln>  (222) 
-0.4186

>  <r_i_glide_gscore>  (222) 
-1.90687

>  <r_i_glide_lipo>  (222) 
-0.242821

>  <r_i_glide_hbond>  (222) 
0

>  <r_i_glide_metal>  (222) 
-0

>  <r_i_glide_rewards>  (222) 
-0.168793

>  <r_i_glide_evdw>  (222) 
-31.6928

>  <r_i_glide_ecoul>  (222) 
-1.79009

>  <r_i_glide_erotb>  (222) 
0.357898

>  <r_i_glide_esite>  (222) 
0

>  <r_i_glide_emodel>  (222) 
-29.7231

>  <r_i_glide_energy>  (222) 
-33.4829

>  <r_i_glide_einternal>  (222) 
11.0327

>  <r_i_glide_intrahb_reward>  (222) 
-0

>  <i_i_glide_confnum>  (222) 
5

>  <i_i_glide_posenum>  (222) 
28

>  <r_i_glide_eff_state_penalty>  (222) 
0

>  <ligand_id>  (222) 
69

>  <original_smiles>  (222) 
CC(=O)C1CC12C(=C(C)C=CC(C)=CC=C(C)C1CC=C(C)C1C)N1CC2C(C)OC(C)=CC1=O

>  <smiles>  (222) 
[H]C(=C([H])C(=C1N2C(=O)C([H])=C(C([H])([H])[H])OC([H])(C([H])([H])[H])C([H])(C2([H])[H])C12C([H])([H])C2([H])C(=O)C([H])([H])[H])C([H])([H])[H])C(=C([H])C([H])=C(C([H])([H])[H])C1([H])C([H])([H])C([H])=C(C([H])([H])[H])C1([H])C([H])([H])[H])C([H])([H])[H]

$$$$
69:1:1
     RDKit          3D

 76 79  0  0  1  0  0  0  0  0999 V2000
    3.8035   -1.5193    1.1934 C   0  0  0  0  0  0  0  0  0  0  0  0
    4.0462   -0.9974    2.6011 C   0  0  0  0  0  0  0  0  0  0  0  0
    5.0816   -0.3777    2.8556 O   0  0  0  0  0  0  0  0  0  0  0  0
    2.9804   -1.2032    3.6553 C   0  0  2  0  0  0  0  0  0  0  0  0
    1.5251   -1.2139    3.1890 C   0  0  0  0  0  0  0  0  0  0  0  0
    2.0382   -0.0360    4.0044 C   0  0  1  0  0  0  0  0  0  0  0  0
    1.8265    0.2698    5.4894 C   0  0  0  0  0  0  0  0  0  0  0  0
    1.2769   -0.4549    6.5296 C   0  0  0  0  0  0  0  0  0  0  0  0
    1.1866    0.0916    7.9569 C   0  0  0  0  0  0  0  0  0  0  0  0
    0.8615   -1.8551    6.3472 C   0  0  0  0  0  0  0  0  0  0  0  0
    0.0895   -2.5864    7.1868 C   0  0  0  0  0  0  0  0  0  0  0  0
   -0.2989   -3.9741    6.9710 C   0  0  0  0  0  0  0  0  0  0  0  0
   -1.6434   -4.3877    7.5451 C   0  0  0  0  0  0  0  0  0  0  0  0
    0.5164   -4.8268    6.3029 C   0  0  0  0  0  0  0  0  0  0  0  0
    0.2517   -6.2268    5.9940 C   0  0  0  0  0  0  0  0  0  0  0  0
    1.1801   -7.1359    5.6059 C   0  0  0  0  0  0  0  0  0  0  0  0
    2.6697   -6.8247    5.4437 C   0  0  0  0  0  0  0  0  0  0  0  0
    0.7766   -8.5914    5.3530 C   0  0  2  0  0  0  0  0  0  0  0  0
    1.3655   -9.5538    6.4216 C   0  0  0  0  0  0  0  0  0  0  0  0
    2.1213  -10.5816    5.6222 C   0  0  0  0  0  0  0  0  0  0  0  0
    2.0520  -10.3717    4.3139 C   0  0  0  0  0  0  0  0  0  0  0  0
    2.7114  -11.2089    3.2388 C   0  0  0  0  0  0  0  0  0  0  0  0
    1.2069   -9.1588    3.9515 C   0  0  1  0  0  0  0  0  0  0  0  0
    0.0117   -9.5301    3.0676 C   0  0  0  0  0  0  0  0  0  0  0  0
    2.3022    1.6180    5.5990 N   0  0  0  0  0  0  0  0  0  0  0  0
    2.9856    2.0580    4.3919 C   0  0  0  0  0  0  0  0  0  0  0  0
    2.2313    1.3098    3.3133 C   0  0  2  0  0  0  0  0  0  0  0  0
    0.9180    2.0228    2.9526 C   0  0  1  0  0  0  0  0  0  0  0  0
    0.2215    1.3987    1.7329 C   0  0  0  0  0  0  0  0  0  0  0  0
   -0.0068    1.9364    4.0282 O   0  0  0  0  0  0  0  0  0  0  0  0
   -0.1160    3.0791    4.7700 C   0  0  0  0  0  0  0  0  0  0  0  0
   -1.2388    3.9706    4.2923 C   0  0  0  0  0  0  0  0  0  0  0  0
    0.6837    3.3805    5.8264 C   0  0  0  0  0  0  0  0  0  0  0  0
    1.8089    2.6186    6.3809 C   0  0  0  0  0  0  0  0  0  0  0  0
    2.3456    2.9037    7.4516 O   0  0  0  0  0  0  0  0  0  0  0  0
    3.6636   -2.5995    1.2179 H   0  0  0  0  0  0  0  0  0  0  0  0
    4.6290   -1.2676    0.5287 H   0  0  0  0  0  0  0  0  0  0  0  0
    2.9104   -1.0653    0.7646 H   0  0  0  0  0  0  0  0  0  0  0  0
    3.2624   -1.8562    4.4861 H   0  0  0  0  0  0  0  0  0  0  0  0
    1.3535   -1.0165    2.1363 H   0  0  0  0  0  0  0  0  0  0  0  0
    0.8139   -1.9356    3.5637 H   0  0  0  0  0  0  0  0  0  0  0  0
    1.1470   -0.6878    8.7145 H   0  0  0  0  0  0  0  0  0  0  0  0
    0.2881    0.6974    8.0840 H   0  0  0  0  0  0  0  0  0  0  0  0
    2.0712    0.6524    8.2430 H   0  0  0  0  0  0  0  0  0  0  0  0
    1.2213   -2.3907    5.4914 H   0  0  0  0  0  0  0  0  0  0  0  0
   -0.2850   -2.1552    8.0954 H   0  0  0  0  0  0  0  0  0  0  0  0
   -1.7623   -3.9539    8.5424 H   0  0  0  0  0  0  0  0  0  0  0  0
   -1.7541   -5.4621    7.6550 H   0  0  0  0  0  0  0  0  0  0  0  0
   -2.4599   -4.0279    6.9187 H   0  0  0  0  0  0  0  0  0  0  0  0
    1.4499   -4.4304    5.9475 H   0  0  0  0  0  0  0  0  0  0  0  0
   -0.7670   -6.5725    6.0731 H   0  0  0  0  0  0  0  0  0  0  0  0
    3.0154   -6.9864    4.4263 H   0  0  0  0  0  0  0  0  0  0  0  0
    3.2606   -7.4751    6.0846 H   0  0  0  0  0  0  0  0  0  0  0  0
    2.9419   -5.8063    5.6929 H   0  0  0  0  0  0  0  0  0  0  0  0
   -0.3119   -8.6695    5.4422 H   0  0  0  0  0  0  0  0  0  0  0  0
    2.0368   -9.0828    7.1384 H   0  0  0  0  0  0  0  0  0  0  0  0
    0.5811  -10.0528    6.9904 H   0  0  0  0  0  0  0  0  0  0  0  0
    2.6435  -11.4046    6.0933 H   0  0  0  0  0  0  0  0  0  0  0  0
    3.3862  -10.6073    2.6295 H   0  0  0  0  0  0  0  0  0  0  0  0
    1.9575  -11.6317    2.5806 H   0  0  0  0  0  0  0  0  0  0  0  0
    3.2748  -12.0432    3.6611 H   0  0  0  0  0  0  0  0  0  0  0  0
    1.8304   -8.4823    3.3716 H   0  0  0  0  0  0  0  0  0  0  0  0
    0.3386   -9.9516    2.1169 H   0  0  0  0  0  0  0  0  0  0  0  0
   -0.6055   -8.6583    2.8519 H   0  0  0  0  0  0  0  0  0  0  0  0
   -0.6029  -10.2696    3.5702 H   0  0  0  0  0  0  0  0  0  0  0  0
    3.0280    3.1405    4.2175 H   0  0  0  0  0  0  0  0  0  0  0  0
    4.0172    1.7058    4.4474 H   0  0  0  0  0  0  0  0  0  0  0  0
    2.8211    1.2821    2.4011 H   0  0  0  0  0  0  0  0  0  0  0  0
    1.1550    3.0575    2.6960 H   0  0  0  0  0  0  0  0  0  0  0  0
    0.9104    1.2458    0.9031 H   0  0  0  0  0  0  0  0  0  0  0  0
   -0.5665    2.0613    1.3807 H   0  0  0  0  0  0  0  0  0  0  0  0
   -0.2582    0.4459    1.9547 H   0  0  0  0  0  0  0  0  0  0  0  0
   -1.3556    4.8446    4.9303 H   0  0  0  0  0  0  0  0  0  0  0  0
   -2.1740    3.4173    4.2908 H   0  0  0  0  0  0  0  0  0  0  0  0
   -1.0477    4.3138    3.2763 H   0  0  0  0  0  0  0  0  0  0  0  0
    0.4639    4.3184    6.3192 H   0  0  0  0  0  0  0  0  0  0  0  0
  1  2  1  0
  1 36  1  0
  1 37  1  0
  1 38  1  0
  2  3  2  0
  2  4  1  0
  4  6  1  0
  4  5  1  0
  4 39  1  1
  6  5  1  6
  5 40  1  0
  5 41  1  0
  6 27  1  0
  6  7  1  0
  7  8  2  3
  7 25  1  0
  8  9  1  0
  8 10  1  0
  9 42  1  0
  9 43  1  0
  9 44  1  0
 10 11  2  3
 10 45  1  0
 11 12  1  0
 11 46  1  0
 12 13  1  0
 12 14  2  3
 13 47  1  0
 13 48  1  0
 13 49  1  0
 14 15  1  0
 14 50  1  0
 15 16  2  3
 15 51  1  0
 16 17  1  0
 16 18  1  0
 17 52  1  0
 17 53  1  0
 17 54  1  0
 18 23  1  0
 18 19  1  0
 18 55  1  6
 19 20  1  0
 19 56  1  0
 19 57  1  0
 20 21  2  0
 20 58  1  0
 21 22  1  0
 21 23  1  0
 22 59  1  0
 22 60  1  0
 22 61  1  0
 23 24  1  0
 23 62  1  6
 24 63  1  0
 24 64  1  0
 24 65  1  0
 25 34  1  0
 25 26  1  0
 26 27  1  0
 26 66  1  0
 26 67  1  0
 27 28  1  0
 27 68  1  6
 28 29  1  0
 28 30  1  0
 28 69  1  6
 29 70  1  0
 29 71  1  0
 29 72  1  0
 30 31  1  0
 31 32  1  0
 31 33  2  3
 32 73  1  0
 32 74  1  0
 32 75  1  0
 33 34  1  0
 33 76  1  0
 34 35  2  0
M  END
>  <i_m_ct_stereo_status>  (223) 
1

>  <s_m_source_file>  (223) 
/var/tmp/pbs.5076255.sched01/tmp9rjncpta/544vc0qzzn.sdf

>  <i_m_source_file_index>  (223) 
53

>  <i_lp_mmshare_version>  (223) 
48012

>  <i_f3d_flags>  (223) 
0

>  <s_epik_input>  (223) 
W0NIM11DKD1PKVtDQEhdKFtDSDJdMSlbQ0BAXTEyW0NAQEhdM1tDSDJdTihDKD1PKS9bQ0hdPUMoW0NIM10pXE9bQ0BASF0zW0NIM10pQ1wyPUMoXFtDSDNdKS9bQ0hdPVtDSF0vQyhbQ0gzXSk9W0NIXS9bQ0hdPUMoXFtDSDNdKVtDQEBIXTRbQ0gyXVtDSF09QyhbQ0gzXSlbQ0BIXTRbQ0gzXQ==

>  <s_epik_cmdline>  (223) 
J2VwaWtfcHl0aG9uJywgJy1waHQnLCAnMi4wJywgJy1waCcsICc3LjAnLCAnLXRuJywgJzgnLCAnLW1hJywgJzIwMCcsICctaW1hZScsICc8aW5maWxlLm1hZT4nLCAnLW9tYWUnLCAnPG91dGZpbGUubWFlPic=

>  <r_lp_tautomer_probability>  (223) 
1

>  <r_epik_Ionization_Penalty>  (223) 
1.49479e-07

>  <r_epik_Ionization_Penalty_Charging>  (223) 
0

>  <r_epik_Ionization_Penalty_Neutral>  (223) 
1.49479e-07

>  <r_epik_State_Penalty>  (223) 
-0

>  <r_epik_Charging_Adjusted_Penalty>  (223) 
0

>  <i_epik_Tot_Q>  (223) 
0

>  <i_epik_Tot_abs_Q>  (223) 
0

>  <s_lp_Force_Field>  (223) 
OPLS3e

>  <r_lp_Energy>  (223) 
61.3708

>  <b_lp_Chiralities_Consistent>  (223) 
1

>  <s_lp_Variant>  (223) 
69:0-2

>  <s_i_glide_gridfile>  (223) 
pfpi4k_grid

>  <i_i_glide_lignum>  (223) 
53

>  <i_i_glide_rotatable_bonds>  (223) 
5

>  <r_i_docking_score>  (223) 
-1.55201

>  <r_i_glide_ligand_efficiency>  (223) 
-0.0443432

>  <r_i_glide_ligand_efficiency_sa>  (223) 
-0.145049

>  <r_i_glide_ligand_efficiency_ln>  (223) 
-0.340701

>  <r_i_glide_gscore>  (223) 
-1.55201

>  <r_i_glide_lipo>  (223) 
-0.0626062

>  <r_i_glide_hbond>  (223) 
0

>  <r_i_glide_metal>  (223) 
-0

>  <r_i_glide_rewards>  (223) 
-0.190565

>  <r_i_glide_evdw>  (223) 
-28.8144

>  <r_i_glide_ecoul>  (223) 
-1.44012

>  <r_i_glide_erotb>  (223) 
0.357898

>  <r_i_glide_esite>  (223) 
0

>  <r_i_glide_emodel>  (223) 
-29.9068

>  <r_i_glide_energy>  (223) 
-30.2545

>  <r_i_glide_einternal>  (223) 
5.1412

>  <r_i_glide_intrahb_reward>  (223) 
-0

>  <i_i_glide_confnum>  (223) 
5

>  <i_i_glide_posenum>  (223) 
1

>  <r_i_glide_eff_state_penalty>  (223) 
0

>  <ligand_id>  (223) 
69

>  <original_smiles>  (223) 
CC(=O)C1CC12C(=C(C)C=CC(C)=CC=C(C)C1CC=C(C)C1C)N1CC2C(C)OC(C)=CC1=O

>  <smiles>  (223) 
[H]C(=C([H])C(=C1N2C(=O)C([H])=C(C([H])([H])[H])OC([H])(C([H])([H])[H])C([H])(C2([H])[H])C12C([H])([H])C2([H])C(=O)C([H])([H])[H])C([H])([H])[H])C(=C([H])C([H])=C(C([H])([H])[H])C1([H])C([H])([H])C([H])=C(C([H])([H])[H])C1([H])C([H])([H])[H])C([H])([H])[H]

$$$$
69:1:2
     RDKit          3D

 76 79  0  0  1  0  0  0  0  0999 V2000
    5.3900   -6.9725    7.3291 C   0  0  0  0  0  0  0  0  0  0  0  0
    4.2233   -6.0125    7.1604 C   0  0  0  0  0  0  0  0  0  0  0  0
    3.4649   -5.8113    8.1127 O   0  0  0  0  0  0  0  0  0  0  0  0
    3.9843   -5.3894    5.7994 C   0  0  2  0  0  0  0  0  0  0  0  0
    2.6506   -4.6854    5.5779 C   0  0  0  0  0  0  0  0  0  0  0  0
    2.9306   -6.0061    4.8664 C   0  0  1  0  0  0  0  0  0  0  0  0
    3.3573   -6.2735    3.4187 C   0  0  0  0  0  0  0  0  0  0  0  0
    3.7639   -5.4505    2.3861 C   0  0  0  0  0  0  0  0  0  0  0  0
    4.1337   -5.9909    0.9971 C   0  0  0  0  0  0  0  0  0  0  0  0
    3.9580   -4.0052    2.6084 C   0  0  0  0  0  0  0  0  0  0  0  0
    4.1987   -3.0671    1.6543 C   0  0  0  0  0  0  0  0  0  0  0  0
    4.3899   -1.6559    1.9449 C   0  0  0  0  0  0  0  0  0  0  0  0
    5.4868   -0.9543    1.1585 C   0  0  0  0  0  0  0  0  0  0  0  0
    3.6003   -1.0351    2.8532 C   0  0  0  0  0  0  0  0  0  0  0  0
    3.6477    0.3666    3.2443 C   0  0  0  0  0  0  0  0  0  0  0  0
    2.7684    1.0124    4.0528 C   0  0  0  0  0  0  0  0  0  0  0  0
    1.5420    0.3521    4.6823 C   0  0  0  0  0  0  0  0  0  0  0  0
    2.9508    2.4983    4.3849 C   0  0  2  0  0  0  0  0  0  0  0  0
    3.1341    2.7683    5.9024 C   0  0  0  0  0  0  0  0  0  0  0  0
    2.0448    3.7555    6.2309 C   0  0  0  0  0  0  0  0  0  0  0  0
    1.3200    4.1014    5.1759 C   0  0  0  0  0  0  0  0  0  0  0  0
    0.1557    5.0799    5.1580 C   0  0  0  0  0  0  0  0  0  0  0  0
    1.7795    3.4235    3.9031 C   0  0  1  0  0  0  0  0  0  0  0  0
    2.2337    4.4503    2.8580 C   0  0  0  0  0  0  0  0  0  0  0  0
    3.1879   -7.6990    3.3058 N   0  0  0  0  0  0  0  0  0  0  0  0
    2.9418   -8.3258    4.5984 C   0  0  0  0  0  0  0  0  0  0  0  0
    2.1699   -7.2475    5.3301 C   0  0  2  0  0  0  0  0  0  0  0  0
    0.6805   -7.2573    4.9294 C   0  0  1  0  0  0  0  0  0  0  0  0
   -0.1843   -6.3201    5.7880 C   0  0  0  0  0  0  0  0  0  0  0  0
    0.5146   -6.8225    3.5845 O   0  0  0  0  0  0  0  0  0  0  0  0
    0.3172   -7.8341    2.6884 C   0  0  0  0  0  0  0  0  0  0  0  0
   -1.1547   -8.0875    2.4489 C   0  0  0  0  0  0  0  0  0  0  0  0
    1.3102   -8.5295    2.0806 C   0  0  0  0  0  0  0  0  0  0  0  0
    2.7606   -8.3966    2.2380 C   0  0  0  0  0  0  0  0  0  0  0  0
    3.5533   -8.9640    1.4762 O   0  0  0  0  0  0  0  0  0  0  0  0
    5.3163   -7.7824    6.6053 H   0  0  0  0  0  0  0  0  0  0  0  0
    5.3769   -7.4214    8.3242 H   0  0  0  0  0  0  0  0  0  0  0  0
    6.3414   -6.4607    7.1820 H   0  0  0  0  0  0  0  0  0  0  0  0
    4.8693   -4.9817    5.3092 H   0  0  0  0  0  0  0  0  0  0  0  0
    1.9577   -4.7264    6.4138 H   0  0  0  0  0  0  0  0  0  0  0  0
    2.6076   -3.7448    5.0487 H   0  0  0  0  0  0  0  0  0  0  0  0
    4.8050   -5.3430    0.4418 H   0  0  0  0  0  0  0  0  0  0  0  0
    3.2428   -6.1274    0.3810 H   0  0  0  0  0  0  0  0  0  0  0  0
    4.6921   -6.9219    1.0553 H   0  0  0  0  0  0  0  0  0  0  0  0
    3.9624   -3.6308    3.6043 H   0  0  0  0  0  0  0  0  0  0  0  0
    4.2553   -3.3113    0.6042 H   0  0  0  0  0  0  0  0  0  0  0  0
    6.3615   -1.6063    1.0900 H   0  0  0  0  0  0  0  0  0  0  0  0
    5.8178   -0.0074    1.5822 H   0  0  0  0  0  0  0  0  0  0  0  0
    5.1308   -0.7634    0.1444 H   0  0  0  0  0  0  0  0  0  0  0  0
    2.8623   -1.6570    3.3394 H   0  0  0  0  0  0  0  0  0  0  0  0
    4.4677    0.9397    2.8717 H   0  0  0  0  0  0  0  0  0  0  0  0
    0.6268    0.8365    4.3418 H   0  0  0  0  0  0  0  0  0  0  0  0
    1.5743    0.4355    5.7654 H   0  0  0  0  0  0  0  0  0  0  0  0
    1.4439   -0.7029    4.4568 H   0  0  0  0  0  0  0  0  0  0  0  0
    3.8600    2.8423    3.8903 H   0  0  0  0  0  0  0  0  0  0  0  0
    3.0316    1.8838    6.5257 H   0  0  0  0  0  0  0  0  0  0  0  0
    4.1115    3.1981    6.1165 H   0  0  0  0  0  0  0  0  0  0  0  0
    1.9001    4.1256    7.2344 H   0  0  0  0  0  0  0  0  0  0  0  0
   -0.7455    4.5932    4.7883 H   0  0  0  0  0  0  0  0  0  0  0  0
    0.3792    5.9259    4.5093 H   0  0  0  0  0  0  0  0  0  0  0  0
   -0.0382    5.4664    6.1570 H   0  0  0  0  0  0  0  0  0  0  0  0
    0.9486    2.8531    3.4811 H   0  0  0  0  0  0  0  0  0  0  0  0
    1.4188    5.1026    2.5543 H   0  0  0  0  0  0  0  0  0  0  0  0
    2.5847    3.9568    1.9564 H   0  0  0  0  0  0  0  0  0  0  0  0
    3.0363    5.0743    3.2364 H   0  0  0  0  0  0  0  0  0  0  0  0
    2.4226   -9.2948    4.5775 H   0  0  0  0  0  0  0  0  0  0  0  0
    3.9098   -8.5014    5.0670 H   0  0  0  0  0  0  0  0  0  0  0  0
    2.2111   -7.4365    6.3970 H   0  0  0  0  0  0  0  0  0  0  0  0
    0.2979   -8.2699    5.0784 H   0  0  0  0  0  0  0  0  0  0  0  0
    0.0089   -6.4581    6.8545 H   0  0  0  0  0  0  0  0  0  0  0  0
   -1.2417   -6.5096    5.6083 H   0  0  0  0  0  0  0  0  0  0  0  0
   -0.0160   -5.2707    5.5446 H   0  0  0  0  0  0  0  0  0  0  0  0
   -1.3137   -8.8463    1.6851 H   0  0  0  0  0  0  0  0  0  0  0  0
   -1.6320   -7.1717    2.1180 H   0  0  0  0  0  0  0  0  0  0  0  0
   -1.6491   -8.4203    3.3585 H   0  0  0  0  0  0  0  0  0  0  0  0
    1.0219   -9.3069    1.3972 H   0  0  0  0  0  0  0  0  0  0  0  0
  1  2  1  0
  1 36  1  0
  1 37  1  0
  1 38  1  0
  2  3  2  0
  2  4  1  0
  4  6  1  0
  4  5  1  0
  4 39  1  6
  6  5  1  6
  5 40  1  0
  5 41  1  0
  6 27  1  0
  6  7  1  0
  7  8  2  3
  7 25  1  0
  8  9  1  0
  8 10  1  0
  9 42  1  0
  9 43  1  0
  9 44  1  0
 10 11  2  3
 10 45  1  0
 11 12  1  0
 11 46  1  0
 12 13  1  0
 12 14  2  3
 13 47  1  0
 13 48  1  0
 13 49  1  0
 14 15  1  0
 14 50  1  0
 15 16  2  3
 15 51  1  0
 16 17  1  0
 16 18  1  0
 17 52  1  0
 17 53  1  0
 17 54  1  0
 18 23  1  0
 18 19  1  0
 18 55  1  6
 19 20  1  0
 19 56  1  0
 19 57  1  0
 20 21  2  0
 20 58  1  0
 21 22  1  0
 21 23  1  0
 22 59  1  0
 22 60  1  0
 22 61  1  0
 23 24  1  0
 23 62  1  6
 24 63  1  0
 24 64  1  0
 24 65  1  0
 25 34  1  0
 25 26  1  0
 26 27  1  0
 26 66  1  0
 26 67  1  0
 27 28  1  0
 27 68  1  1
 28 29  1  0
 28 30  1  0
 28 69  1  6
 29 70  1  0
 29 71  1  0
 29 72  1  0
 30 31  1  0
 31 32  1  0
 31 33  2  3
 32 73  1  0
 32 74  1  0
 32 75  1  0
 33 34  1  0
 33 76  1  0
 34 35  2  0
M  END
>  <i_m_ct_stereo_status>  (224) 
1

>  <s_m_source_file>  (224) 
/var/tmp/pbs.5076255.sched01/tmp9rjncpta/544vc0qzzn.sdf

>  <i_m_source_file_index>  (224) 
53

>  <i_lp_mmshare_version>  (224) 
48012

>  <i_f3d_flags>  (224) 
0

>  <s_epik_input>  (224) 
W0NIM11DKD1PKVtDQEhdKFtDSDJdMSlbQ0BAXTEyW0NAQEhdM1tDSDJdTihDKD1PKS9bQ0hdPUMoW0NIM10pXE9bQ0BASF0zW0NIM10pQ1wyPUMoXFtDSDNdKS9bQ0hdPVtDSF0vQyhbQ0gzXSk9W0NIXS9bQ0hdPUMoXFtDSDNdKVtDQEBIXTRbQ0gyXVtDSF09QyhbQ0gzXSlbQ0BIXTRbQ0gzXQ==

>  <s_epik_cmdline>  (224) 
J2VwaWtfcHl0aG9uJywgJy1waHQnLCAnMi4wJywgJy1waCcsICc3LjAnLCAnLXRuJywgJzgnLCAnLW1hJywgJzIwMCcsICctaW1hZScsICc8aW5maWxlLm1hZT4nLCAnLW9tYWUnLCAnPG91dGZpbGUubWFlPic=

>  <r_lp_tautomer_probability>  (224) 
1

>  <r_epik_Ionization_Penalty>  (224) 
1.49479e-07

>  <r_epik_Ionization_Penalty_Charging>  (224) 
0

>  <r_epik_Ionization_Penalty_Neutral>  (224) 
1.49479e-07

>  <r_epik_State_Penalty>  (224) 
-0

>  <r_epik_Charging_Adjusted_Penalty>  (224) 
0

>  <i_epik_Tot_Q>  (224) 
0

>  <i_epik_Tot_abs_Q>  (224) 
0

>  <s_lp_Force_Field>  (224) 
OPLS3e

>  <r_lp_Energy>  (224) 
61.3708

>  <b_lp_Chiralities_Consistent>  (224) 
1

>  <s_lp_Variant>  (224) 
69:0-2

>  <s_i_glide_gridfile>  (224) 
pfpi4k_grid

>  <i_i_glide_lignum>  (224) 
53

>  <i_i_glide_rotatable_bonds>  (224) 
5

>  <r_i_docking_score>  (224) 
-1.47362

>  <r_i_glide_ligand_efficiency>  (224) 
-0.0421035

>  <r_i_glide_ligand_efficiency_sa>  (224) 
-0.137723

>  <r_i_glide_ligand_efficiency_ln>  (224) 
-0.323493

>  <r_i_glide_gscore>  (224) 
-1.47362

>  <r_i_glide_lipo>  (224) 
-0.22766

>  <r_i_glide_hbond>  (224) 
0

>  <r_i_glide_metal>  (224) 
-0

>  <r_i_glide_rewards>  (224) 
-0.16594

>  <r_i_glide_evdw>  (224) 
-25.0757

>  <r_i_glide_ecoul>  (224) 
-1.14735

>  <r_i_glide_erotb>  (224) 
0.357898

>  <r_i_glide_esite>  (224) 
-0.0120317

>  <r_i_glide_emodel>  (224) 
-26.3892

>  <r_i_glide_energy>  (224) 
-26.2231

>  <r_i_glide_einternal>  (224) 
3.30298

>  <r_i_glide_intrahb_reward>  (224) 
-0

>  <i_i_glide_confnum>  (224) 
4

>  <i_i_glide_posenum>  (224) 
2

>  <r_i_glide_eff_state_penalty>  (224) 
0

>  <ligand_id>  (224) 
69

>  <original_smiles>  (224) 
CC(=O)C1CC12C(=C(C)C=CC(C)=CC=C(C)C1CC=C(C)C1C)N1CC2C(C)OC(C)=CC1=O

>  <smiles>  (224) 
[H]C(=C([H])C(=C1N2C(=O)C([H])=C(C([H])([H])[H])OC([H])(C([H])([H])[H])C([H])(C2([H])[H])C12C([H])([H])C2([H])C(=O)C([H])([H])[H])C([H])([H])[H])C(=C([H])C([H])=C(C([H])([H])[H])C1([H])C([H])([H])C([H])=C(C([H])([H])[H])C1([H])C([H])([H])[H])C([H])([H])[H]

$$$$
69:4:0
     RDKit          3D

 76 79  0  0  1  0  0  0  0  0999 V2000
    2.4983    1.9350    4.3160 C   0  0  0  0  0  0  0  0  0  0  0  0
    2.3699    0.4554    4.6583 C   0  0  0  0  0  0  0  0  0  0  0  0
    1.2574   -0.0506    4.8007 O   0  0  0  0  0  0  0  0  0  0  0  0
    3.6138   -0.4049    4.7753 C   0  0  2  0  0  0  0  0  0  0  0  0
    4.8463    0.0057    4.0110 C   0  0  0  0  0  0  0  0  0  0  0  0
    4.0782   -1.2076    3.5471 C   0  0  1  0  0  0  0  0  0  0  0  0
    4.5840   -2.6368    3.6956 C   0  0  0  0  0  0  0  0  0  0  0  0
    5.2823   -3.3088    4.6746 C   0  0  0  0  0  0  0  0  0  0  0  0
    5.7790   -2.6580    5.9557 C   0  0  0  0  0  0  0  0  0  0  0  0
    5.4790   -4.7714    4.5633 C   0  0  0  0  0  0  0  0  0  0  0  0
    6.0818   -5.5873    5.4535 C   0  0  0  0  0  0  0  0  0  0  0  0
    6.1779   -7.0401    5.3274 C   0  0  0  0  0  0  0  0  0  0  0  0
    7.5244   -7.6731    5.6436 C   0  0  0  0  0  0  0  0  0  0  0  0
    5.1414   -7.8489    4.9979 C   0  0  0  0  0  0  0  0  0  0  0  0
    3.7680   -7.4541    4.7285 C   0  0  0  0  0  0  0  0  0  0  0  0
    2.7148   -8.2656    4.5255 C   0  0  0  0  0  0  0  0  0  0  0  0
    2.7779   -9.7913    4.6362 C   0  0  0  0  0  0  0  0  0  0  0  0
    1.3464   -7.6486    4.2393 C   0  0  2  0  0  0  0  0  0  0  0  0
    0.3337   -7.8589    5.3984 C   0  0  0  0  0  0  0  0  0  0  0  0
   -0.8699   -8.4433    4.6976 C   0  0  0  0  0  0  0  0  0  0  0  0
   -0.6899   -8.6037    3.3872 C   0  0  0  0  0  0  0  0  0  0  0  0
   -1.6846   -9.1859    2.4264 C   0  0  0  0  0  0  0  0  0  0  0  0
    0.6672   -8.1302    2.9179 C   0  0  1  0  0  0  0  0  0  0  0  0
    0.5597   -7.0193    1.8639 C   0  0  0  0  0  0  0  0  0  0  0  0
    4.0845   -3.2524    2.5193 N   0  0  0  0  0  0  0  0  0  0  0  0
    2.8023   -2.6438    2.2118 C   0  0  0  0  0  0  0  0  0  0  0  0
    3.2292   -1.1977    2.2570 C   0  0  2  0  0  0  0  0  0  0  0  0
    3.9822   -0.7282    0.9773 C   0  0  1  0  0  0  0  0  0  0  0  0
    5.5071   -0.5335    0.9334 C   0  0  0  0  0  0  0  0  0  0  0  0
    3.5327   -1.3724   -0.2085 O   0  0  0  0  0  0  0  0  0  0  0  0
    3.8632   -2.6579   -0.5721 C   0  0  0  0  0  0  0  0  0  0  0  0
    3.4270   -2.8688   -2.0031 C   0  0  0  0  0  0  0  0  0  0  0  0
    4.4389   -3.6704    0.1511 C   0  0  0  0  0  0  0  0  0  0  0  0
    4.9340   -3.6946    1.5282 C   0  0  0  0  0  0  0  0  0  0  0  0
    6.0777   -4.0734    1.7820 O   0  0  0  0  0  0  0  0  0  0  0  0
    3.0736    2.4556    5.0818 H   0  0  0  0  0  0  0  0  0  0  0  0
    1.5179    2.4003    4.2274 H   0  0  0  0  0  0  0  0  0  0  0  0
    2.9953    2.0716    3.3551 H   0  0  0  0  0  0  0  0  0  0  0  0
    3.7642   -0.8428    5.7655 H   0  0  0  0  0  0  0  0  0  0  0  0
    4.7771    0.9009    3.3948 H   0  0  0  0  0  0  0  0  0  0  0  0
    5.8277   -0.1232    4.4592 H   0  0  0  0  0  0  0  0  0  0  0  0
    5.2073   -3.0022    6.8154 H   0  0  0  0  0  0  0  0  0  0  0  0
    5.7421   -1.5715    5.9575 H   0  0  0  0  0  0  0  0  0  0  0  0
    6.8220   -2.9257    6.1121 H   0  0  0  0  0  0  0  0  0  0  0  0
    5.0931   -5.2471    3.6853 H   0  0  0  0  0  0  0  0  0  0  0  0
    6.5274   -5.1692    6.3455 H   0  0  0  0  0  0  0  0  0  0  0  0
    7.7843   -7.5166    6.6931 H   0  0  0  0  0  0  0  0  0  0  0  0
    8.3179   -7.2651    5.0188 H   0  0  0  0  0  0  0  0  0  0  0  0
    7.5080   -8.7524    5.4924 H   0  0  0  0  0  0  0  0  0  0  0  0
    5.3875   -8.8909    4.9421 H   0  0  0  0  0  0  0  0  0  0  0  0
    3.5173   -6.4142    4.6763 H   0  0  0  0  0  0  0  0  0  0  0  0
    2.1243  -10.2984    3.9199 H   0  0  0  0  0  0  0  0  0  0  0  0
    2.4712  -10.0881    5.6403 H   0  0  0  0  0  0  0  0  0  0  0  0
    3.7806  -10.1774    4.4616 H   0  0  0  0  0  0  0  0  0  0  0  0
    1.4752   -6.5718    4.1549 H   0  0  0  0  0  0  0  0  0  0  0  0
    0.6884   -8.5322    6.1731 H   0  0  0  0  0  0  0  0  0  0  0  0
    0.0573   -6.9169    5.8706 H   0  0  0  0  0  0  0  0  0  0  0  0
   -1.7592   -8.7154    5.2374 H   0  0  0  0  0  0  0  0  0  0  0  0
   -1.2596  -10.0483    1.9136 H   0  0  0  0  0  0  0  0  0  0  0  0
   -1.9744   -8.4532    1.6828 H   0  0  0  0  0  0  0  0  0  0  0  0
   -2.5785   -9.5098    2.9529 H   0  0  0  0  0  0  0  0  0  0  0  0
    1.1850   -8.9723    2.4676 H   0  0  0  0  0  0  0  0  0  0  0  0
    0.0862   -7.3819    0.9516 H   0  0  0  0  0  0  0  0  0  0  0  0
    1.5442   -6.6403    1.5982 H   0  0  0  0  0  0  0  0  0  0  0  0
   -0.0279   -6.1910    2.2490 H   0  0  0  0  0  0  0  0  0  0  0  0
    2.2520   -2.9624    1.3314 H   0  0  0  0  0  0  0  0  0  0  0  0
    2.1193   -2.8481    3.0454 H   0  0  0  0  0  0  0  0  0  0  0  0
    2.3169   -0.6121    2.3018 H   0  0  0  0  0  0  0  0  0  0  0  0
    3.6065    0.2884    0.8352 H   0  0  0  0  0  0  0  0  0  0  0  0
    5.8145    0.2814    1.5741 H   0  0  0  0  0  0  0  0  0  0  0  0
    5.8125   -0.2451   -0.0719 H   0  0  0  0  0  0  0  0  0  0  0  0
    6.0953   -1.3979    1.2223 H   0  0  0  0  0  0  0  0  0  0  0  0
    3.6532   -3.8592   -2.3596 H   0  0  0  0  0  0  0  0  0  0  0  0
    3.9285   -2.1522   -2.6429 H   0  0  0  0  0  0  0  0  0  0  0  0
    2.3566   -2.7030   -2.0813 H   0  0  0  0  0  0  0  0  0  0  0  0
    4.5829   -4.5912   -0.3949 H   0  0  0  0  0  0  0  0  0  0  0  0
  1  2  1  0
  1 36  1  0
  1 37  1  0
  1 38  1  0
  2  3  2  0
  2  4  1  0
  4  6  1  0
  4  5  1  0
  4 39  1  1
  6  5  1  6
  5 40  1  0
  5 41  1  0
  6 27  1  0
  6  7  1  0
  7  8  2  3
  7 25  1  0
  8  9  1  0
  8 10  1  0
  9 42  1  0
  9 43  1  0
  9 44  1  0
 10 11  2  3
 10 45  1  0
 11 12  1  0
 11 46  1  0
 12 13  1  0
 12 14  2  3
 13 47  1  0
 13 48  1  0
 13 49  1  0
 14 15  1  0
 14 50  1  0
 15 16  2  3
 15 51  1  0
 16 17  1  0
 16 18  1  0
 17 52  1  0
 17 53  1  0
 17 54  1  0
 18 23  1  0
 18 19  1  0
 18 55  1  6
 19 20  1  0
 19 56  1  0
 19 57  1  0
 20 21  2  0
 20 58  1  0
 21 22  1  0
 21 23  1  0
 22 59  1  0
 22 60  1  0
 22 61  1  0
 23 24  1  0
 23 62  1  6
 24 63  1  0
 24 64  1  0
 24 65  1  0
 25 34  1  0
 25 26  1  0
 26 27  1  0
 26 66  1  0
 26 67  1  0
 27 28  1  0
 27 68  1  1
 28 29  1  0
 28 30  1  0
 28 69  1  6
 29 70  1  0
 29 71  1  0
 29 72  1  0
 30 31  1  0
 31 32  1  0
 31 33  2  3
 32 73  1  0
 32 74  1  0
 32 75  1  0
 33 34  1  0
 33 76  1  0
 34 35  2  0
M  END
>  <i_m_ct_stereo_status>  (225) 
1

>  <s_m_source_file>  (225) 
/var/tmp/pbs.5076255.sched01/tmpk9_hntje/1089a46f3po.sdf

>  <i_m_source_file_index>  (225) 
2

>  <i_lp_mmshare_version>  (225) 
48012

>  <i_f3d_flags>  (225) 
0

>  <s_epik_input>  (225) 
W0NIM11DKD1PKVtDQEhdKFtDSDJdMSlbQ0BAXTEyW0NAQEhdM1tDSDJdTihDKD1PKS9bQ0hdPUMoW0NIM10pXE9bQ0BASF0zW0NIM10pQ1wyPUMoXFtDSDNdKS9bQ0hdPVtDSF0vQyhbQ0gzXSk9W0NIXS9bQ0hdPUMoXFtDSDNdKVtDQEBIXTRbQ0gyXVtDSF09QyhbQ0gzXSlbQ0BIXTRbQ0gzXQ==

>  <s_epik_cmdline>  (225) 
J2VwaWtfcHl0aG9uJywgJy1waHQnLCAnMi4wJywgJy1waCcsICc3LjAnLCAnLXRuJywgJzgnLCAnLW1hJywgJzIwMCcsICctaW1hZScsICc8aW5maWxlLm1hZT4nLCAnLW9tYWUnLCAnPG91dGZpbGUubWFlPic=

>  <r_lp_tautomer_probability>  (225) 
1

>  <r_epik_Ionization_Penalty>  (225) 
1.49479e-07

>  <r_epik_Ionization_Penalty_Charging>  (225) 
0

>  <r_epik_Ionization_Penalty_Neutral>  (225) 
1.49479e-07

>  <r_epik_State_Penalty>  (225) 
-0

>  <r_epik_Charging_Adjusted_Penalty>  (225) 
0

>  <i_epik_Tot_Q>  (225) 
0

>  <i_epik_Tot_abs_Q>  (225) 
0

>  <s_lp_Force_Field>  (225) 
OPLS3e

>  <r_lp_Energy>  (225) 
59.7323

>  <b_lp_Chiralities_Consistent>  (225) 
1

>  <s_lp_Variant>  (225) 
69:0-5

>  <s_i_glide_gridfile>  (225) 
pfpi4k_grid

>  <i_i_glide_lignum>  (225) 
2

>  <i_i_glide_rotatable_bonds>  (225) 
5

>  <r_i_docking_score>  (225) 
-2.01068

>  <r_i_glide_ligand_efficiency>  (225) 
-0.057448

>  <r_i_glide_ligand_efficiency_sa>  (225) 
-0.187916

>  <r_i_glide_ligand_efficiency_ln>  (225) 
-0.441389

>  <r_i_glide_gscore>  (225) 
-2.01068

>  <r_i_glide_lipo>  (225) 
-0.605947

>  <r_i_glide_hbond>  (225) 
0

>  <r_i_glide_metal>  (225) 
-0

>  <r_i_glide_rewards>  (225) 
-0.211485

>  <r_i_glide_evdw>  (225) 
-30.0387

>  <r_i_glide_ecoul>  (225) 
-0.328066

>  <r_i_glide_erotb>  (225) 
0.357898

>  <r_i_glide_esite>  (225) 
0

>  <r_i_glide_emodel>  (225) 
-31.1393

>  <r_i_glide_energy>  (225) 
-30.3668

>  <r_i_glide_einternal>  (225) 
5.29886

>  <r_i_glide_intrahb_reward>  (225) 
-0

>  <i_i_glide_confnum>  (225) 
3

>  <i_i_glide_posenum>  (225) 
25

>  <r_i_glide_eff_state_penalty>  (225) 
0

>  <ligand_id>  (225) 
69

>  <original_smiles>  (225) 
CC(=O)C1CC12C(=C(C)C=CC(C)=CC=C(C)C1CC=C(C)C1C)N1CC2C(C)OC(C)=CC1=O

>  <smiles>  (225) 
[H]C(=C([H])C(=C1N2C(=O)C([H])=C(C([H])([H])[H])OC([H])(C([H])([H])[H])C([H])(C2([H])[H])C12C([H])([H])C2([H])C(=O)C([H])([H])[H])C([H])([H])[H])C(=C([H])C([H])=C(C([H])([H])[H])C1([H])C([H])([H])C([H])=C(C([H])([H])[H])C1([H])C([H])([H])[H])C([H])([H])[H]

$$$$
69:4:1
     RDKit          3D

 76 79  0  0  1  0  0  0  0  0999 V2000
    1.9232    1.8524    2.5970 C   0  0  0  0  0  0  0  0  0  0  0  0
    1.7300    0.4631    3.2004 C   0  0  0  0  0  0  0  0  0  0  0  0
    0.6106   -0.0562    3.2057 O   0  0  0  0  0  0  0  0  0  0  0  0
    2.9195   -0.2893    3.7636 C   0  0  2  0  0  0  0  0  0  0  0  0
    4.2991    0.1105    3.2943 C   0  0  0  0  0  0  0  0  0  0  0  0
    3.7218   -1.2063    2.8161 C   0  0  1  0  0  0  0  0  0  0  0  0
    4.2204   -2.5657    3.2678 C   0  0  0  0  0  0  0  0  0  0  0  0
    4.6696   -3.0801    4.4599 C   0  0  0  0  0  0  0  0  0  0  0  0
    4.7995   -2.2345    5.7288 C   0  0  0  0  0  0  0  0  0  0  0  0
    4.9082   -4.5198    4.5907 C   0  0  0  0  0  0  0  0  0  0  0  0
    5.4765   -5.1641    5.6335 C   0  0  0  0  0  0  0  0  0  0  0  0
    5.6466   -6.6101    5.7395 C   0  0  0  0  0  0  0  0  0  0  0  0
    6.9855   -7.1204    6.2493 C   0  0  0  0  0  0  0  0  0  0  0  0
    4.6825   -7.5106    5.4391 C   0  0  0  0  0  0  0  0  0  0  0  0
    3.3250   -7.2248    4.9964 C   0  0  0  0  0  0  0  0  0  0  0  0
    2.3544   -8.1271    4.7502 C   0  0  0  0  0  0  0  0  0  0  0  0
    2.5153   -9.6378    4.9395 C   0  0  0  0  0  0  0  0  0  0  0  0
    0.9816   -7.6385    4.2871 C   0  0  2  0  0  0  0  0  0  0  0  0
   -0.1462   -7.9375    5.3033 C   0  0  0  0  0  0  0  0  0  0  0  0
   -1.1930   -8.6263    4.4724 C   0  0  0  0  0  0  0  0  0  0  0  0
   -0.8393   -8.7704    3.2053 C   0  0  0  0  0  0  0  0  0  0  0  0
   -1.6537   -9.4440    2.1325 C   0  0  0  0  0  0  0  0  0  0  0  0
    0.5223   -8.1868    2.9030 C   0  0  1  0  0  0  0  0  0  0  0  0
    0.4436   -7.0926    1.8298 C   0  0  0  0  0  0  0  0  0  0  0  0
    4.0745   -3.3310    2.0729 N   0  0  0  0  0  0  0  0  0  0  0  0
    2.8929   -2.8478    1.3907 C   0  0  0  0  0  0  0  0  0  0  0  0
    3.2485   -1.3794    1.3633 C   0  0  2  0  0  0  0  0  0  0  0  0
    4.3001   -1.0206    0.2653 C   0  0  1  0  0  0  0  0  0  0  0  0
    5.7704   -0.7108    0.5996 C   0  0  0  0  0  0  0  0  0  0  0  0
    4.2010   -1.8202   -0.9088 O   0  0  0  0  0  0  0  0  0  0  0  0
    4.6620   -3.1184   -1.0015 C   0  0  0  0  0  0  0  0  0  0  0  0
    4.6313   -3.5177   -2.4576 C   0  0  0  0  0  0  0  0  0  0  0  0
    5.0590   -3.9952   -0.0348 C   0  0  0  0  0  0  0  0  0  0  0  0
    5.1614   -3.8356    1.4215 C   0  0  0  0  0  0  0  0  0  0  0  0
    6.2008   -4.1240    2.0031 O   0  0  0  0  0  0  0  0  0  0  0  0
    2.3291    2.5483    3.3346 H   0  0  0  0  0  0  0  0  0  0  0  0
    0.9878    2.2570    2.2103 H   0  0  0  0  0  0  0  0  0  0  0  0
    2.6120    1.8069    1.7531 H   0  0  0  0  0  0  0  0  0  0  0  0
    2.8243   -0.5836    4.8113 H   0  0  0  0  0  0  0  0  0  0  0  0
    4.3426    0.9189    2.5719 H   0  0  0  0  0  0  0  0  0  0  0  0
    5.1283    0.0992    3.9942 H   0  0  0  0  0  0  0  0  0  0  0  0
    4.0339   -2.5261    6.4456 H   0  0  0  0  0  0  0  0  0  0  0  0
    4.7119   -1.1660    5.5853 H   0  0  0  0  0  0  0  0  0  0  0  0
    5.7715   -2.4008    6.1896 H   0  0  0  0  0  0  0  0  0  0  0  0
    4.5784   -5.1402    3.7716 H   0  0  0  0  0  0  0  0  0  0  0  0
    5.8370   -4.5897    6.4726 H   0  0  0  0  0  0  0  0  0  0  0  0
    7.1529   -6.7914    7.2759 H   0  0  0  0  0  0  0  0  0  0  0  0
    7.8062   -6.7598    5.6294 H   0  0  0  0  0  0  0  0  0  0  0  0
    7.0281   -8.2085    6.2560 H   0  0  0  0  0  0  0  0  0  0  0  0
    4.9642   -8.5395    5.5634 H   0  0  0  0  0  0  0  0  0  0  0  0
    3.0399   -6.1970    4.8534 H   0  0  0  0  0  0  0  0  0  0  0  0
    1.9758  -10.2133    4.1811 H   0  0  0  0  0  0  0  0  0  0  0  0
    2.1255   -9.9220    5.9168 H   0  0  0  0  0  0  0  0  0  0  0  0
    3.5551   -9.9558    4.8875 H   0  0  0  0  0  0  0  0  0  0  0  0
    1.0258   -6.5539    4.2032 H   0  0  0  0  0  0  0  0  0  0  0  0
    0.1637   -8.5756    6.1250 H   0  0  0  0  0  0  0  0  0  0  0  0
   -0.5586   -7.0227    5.7217 H   0  0  0  0  0  0  0  0  0  0  0  0
   -2.1176   -8.9706    4.9038 H   0  0  0  0  0  0  0  0  0  0  0  0
   -1.0948  -10.2743    1.7030 H   0  0  0  0  0  0  0  0  0  0  0  0
   -1.8909   -8.7459    1.3404 H   0  0  0  0  0  0  0  0  0  0  0  0
   -2.5819   -9.8409    2.5407 H   0  0  0  0  0  0  0  0  0  0  0  0
    1.1633   -8.9847    2.5395 H   0  0  0  0  0  0  0  0  0  0  0  0
    0.1156   -7.4916    0.8686 H   0  0  0  0  0  0  0  0  0  0  0  0
    1.4155   -6.6271    1.6777 H   0  0  0  0  0  0  0  0  0  0  0  0
   -0.2566   -6.3158    2.1253 H   0  0  0  0  0  0  0  0  0  0  0  0
    2.6159   -3.2998    0.4359 H   0  0  0  0  0  0  0  0  0  0  0  0
    2.0221   -3.0012    2.0357 H   0  0  0  0  0  0  0  0  0  0  0  0
    2.3378   -0.8514    1.1057 H   0  0  0  0  0  0  0  0  0  0  0  0
    3.9460   -0.0537   -0.0899 H   0  0  0  0  0  0  0  0  0  0  0  0
    5.8592    0.1975    1.1839 H   0  0  0  0  0  0  0  0  0  0  0  0
    6.3126   -0.5112   -0.3208 H   0  0  0  0  0  0  0  0  0  0  0  0
    6.2997   -1.4976    1.1293 H   0  0  0  0  0  0  0  0  0  0  0  0
    4.9667   -4.5398   -2.6071 H   0  0  0  0  0  0  0  0  0  0  0  0
    5.2647   -2.8570   -3.0406 H   0  0  0  0  0  0  0  0  0  0  0  0
    3.6149   -3.4371   -2.8356 H   0  0  0  0  0  0  0  0  0  0  0  0
    5.3760   -4.9645   -0.3961 H   0  0  0  0  0  0  0  0  0  0  0  0
  1  2  1  0
  1 36  1  0
  1 37  1  0
  1 38  1  0
  2  3  2  0
  2  4  1  0
  4  6  1  0
  4  5  1  0
  4 39  1  1
  6  5  1  6
  5 40  1  0
  5 41  1  0
  6 27  1  0
  6  7  1  0
  7  8  2  3
  7 25  1  0
  8  9  1  0
  8 10  1  0
  9 42  1  0
  9 43  1  0
  9 44  1  0
 10 11  2  3
 10 45  1  0
 11 12  1  0
 11 46  1  0
 12 13  1  0
 12 14  2  3
 13 47  1  0
 13 48  1  0
 13 49  1  0
 14 15  1  0
 14 50  1  0
 15 16  2  3
 15 51  1  0
 16 17  1  0
 16 18  1  0
 17 52  1  0
 17 53  1  0
 17 54  1  0
 18 23  1  0
 18 19  1  0
 18 55  1  6
 19 20  1  0
 19 56  1  0
 19 57  1  0
 20 21  2  0
 20 58  1  0
 21 22  1  0
 21 23  1  0
 22 59  1  0
 22 60  1  0
 22 61  1  0
 23 24  1  0
 23 62  1  6
 24 63  1  0
 24 64  1  0
 24 65  1  0
 25 34  1  0
 25 26  1  0
 26 27  1  0
 26 66  1  0
 26 67  1  0
 27 28  1  0
 27 68  1  6
 28 29  1  0
 28 30  1  0
 28 69  1  6
 29 70  1  0
 29 71  1  0
 29 72  1  0
 30 31  1  0
 31 32  1  0
 31 33  2  3
 32 73  1  0
 32 74  1  0
 32 75  1  0
 33 34  1  0
 33 76  1  0
 34 35  2  0
M  END
>  <i_m_ct_stereo_status>  (226) 
1

>  <s_m_source_file>  (226) 
/var/tmp/pbs.5076255.sched01/tmpk9_hntje/1089a46f3po.sdf

>  <i_m_source_file_index>  (226) 
2

>  <i_lp_mmshare_version>  (226) 
48012

>  <i_f3d_flags>  (226) 
0

>  <s_epik_input>  (226) 
W0NIM11DKD1PKVtDQEhdKFtDSDJdMSlbQ0BAXTEyW0NAQEhdM1tDSDJdTihDKD1PKS9bQ0hdPUMoW0NIM10pXE9bQ0BASF0zW0NIM10pQ1wyPUMoXFtDSDNdKS9bQ0hdPVtDSF0vQyhbQ0gzXSk9W0NIXS9bQ0hdPUMoXFtDSDNdKVtDQEBIXTRbQ0gyXVtDSF09QyhbQ0gzXSlbQ0BIXTRbQ0gzXQ==

>  <s_epik_cmdline>  (226) 
J2VwaWtfcHl0aG9uJywgJy1waHQnLCAnMi4wJywgJy1waCcsICc3LjAnLCAnLXRuJywgJzgnLCAnLW1hJywgJzIwMCcsICctaW1hZScsICc8aW5maWxlLm1hZT4nLCAnLW9tYWUnLCAnPG91dGZpbGUubWFlPic=

>  <r_lp_tautomer_probability>  (226) 
1

>  <r_epik_Ionization_Penalty>  (226) 
1.49479e-07

>  <r_epik_Ionization_Penalty_Charging>  (226) 
0

>  <r_epik_Ionization_Penalty_Neutral>  (226) 
1.49479e-07

>  <r_epik_State_Penalty>  (226) 
-0

>  <r_epik_Charging_Adjusted_Penalty>  (226) 
0

>  <i_epik_Tot_Q>  (226) 
0

>  <i_epik_Tot_abs_Q>  (226) 
0

>  <s_lp_Force_Field>  (226) 
OPLS3e

>  <r_lp_Energy>  (226) 
59.7323

>  <b_lp_Chiralities_Consistent>  (226) 
1

>  <s_lp_Variant>  (226) 
69:0-5

>  <s_i_glide_gridfile>  (226) 
pfpi4k_grid

>  <i_i_glide_lignum>  (226) 
2

>  <i_i_glide_rotatable_bonds>  (226) 
5

>  <r_i_docking_score>  (226) 
-1.89857

>  <r_i_glide_ligand_efficiency>  (226) 
-0.0542448

>  <r_i_glide_ligand_efficiency_sa>  (226) 
-0.177438

>  <r_i_glide_ligand_efficiency_ln>  (226) 
-0.416777

>  <r_i_glide_gscore>  (226) 
-1.89857

>  <r_i_glide_lipo>  (226) 
-0.4682

>  <r_i_glide_hbond>  (226) 
0

>  <r_i_glide_metal>  (226) 
-0

>  <r_i_glide_rewards>  (226) 
-0.2226

>  <r_i_glide_evdw>  (226) 
-30.4153

>  <r_i_glide_ecoul>  (226) 
-0.23012

>  <r_i_glide_erotb>  (226) 
0.357898

>  <r_i_glide_esite>  (226) 
-0.0103813

>  <r_i_glide_emodel>  (226) 
-31.067

>  <r_i_glide_energy>  (226) 
-30.6454

>  <r_i_glide_einternal>  (226) 
5.57971

>  <r_i_glide_intrahb_reward>  (226) 
-0

>  <i_i_glide_confnum>  (226) 
3

>  <i_i_glide_posenum>  (226) 
23

>  <r_i_glide_eff_state_penalty>  (226) 
0

>  <ligand_id>  (226) 
69

>  <original_smiles>  (226) 
CC(=O)C1CC12C(=C(C)C=CC(C)=CC=C(C)C1CC=C(C)C1C)N1CC2C(C)OC(C)=CC1=O

>  <smiles>  (226) 
[H]C(=C([H])C(=C1N2C(=O)C([H])=C(C([H])([H])[H])OC([H])(C([H])([H])[H])C([H])(C2([H])[H])C12C([H])([H])C2([H])C(=O)C([H])([H])[H])C([H])([H])[H])C(=C([H])C([H])=C(C([H])([H])[H])C1([H])C([H])([H])C([H])=C(C([H])([H])[H])C1([H])C([H])([H])[H])C([H])([H])[H]

$$$$
69:4:2
     RDKit          3D

 76 79  0  0  1  0  0  0  0  0999 V2000
    4.3308   -1.6570   -3.6452 C   0  0  0  0  0  0  0  0  0  0  0  0
    3.3680   -2.0967   -2.5604 C   0  0  0  0  0  0  0  0  0  0  0  0
    2.5153   -2.9492   -2.8138 O   0  0  0  0  0  0  0  0  0  0  0  0
    3.4825   -1.4845   -1.1832 C   0  0  2  0  0  0  0  0  0  0  0  0
    4.8460   -1.0777   -0.6783 C   0  0  0  0  0  0  0  0  0  0  0  0
    4.1603   -2.2881   -0.0628 C   0  0  1  0  0  0  0  0  0  0  0  0
    3.5832   -2.3207    1.3517 C   0  0  0  0  0  0  0  0  0  0  0  0
    2.8819   -1.4246    2.1264 C   0  0  0  0  0  0  0  0  0  0  0  0
    2.5753    0.0066    1.6777 C   0  0  0  0  0  0  0  0  0  0  0  0
    2.3121   -1.8412    3.4143 C   0  0  0  0  0  0  0  0  0  0  0  0
    1.4456   -1.1564    4.1946 C   0  0  0  0  0  0  0  0  0  0  0  0
    0.8585   -1.6538    5.4376 C   0  0  0  0  0  0  0  0  0  0  0  0
    0.6684   -0.6595    6.5734 C   0  0  0  0  0  0  0  0  0  0  0  0
    0.4605   -2.9349    5.6317 C   0  0  0  0  0  0  0  0  0  0  0  0
    0.4892   -4.0209    4.6600 C   0  0  0  0  0  0  0  0  0  0  0  0
    0.1930   -5.3166    4.8927 C   0  0  0  0  0  0  0  0  0  0  0  0
   -0.2823   -5.8498    6.2447 C   0  0  0  0  0  0  0  0  0  0  0  0
    0.2995   -6.3410    3.7597 C   0  0  2  0  0  0  0  0  0  0  0  0
   -1.0334   -7.0579    3.4330 C   0  0  0  0  0  0  0  0  0  0  0  0
   -0.6738   -8.5184    3.4720 C   0  0  0  0  0  0  0  0  0  0  0  0
    0.6040   -8.7300    3.7624 C   0  0  0  0  0  0  0  0  0  0  0  0
    1.2746  -10.0802    3.8875 C   0  0  0  0  0  0  0  0  0  0  0  0
    1.3765   -7.4451    3.9700 C   0  0  1  0  0  0  0  0  0  0  0  0
    2.5454   -7.3211    2.9793 C   0  0  0  0  0  0  0  0  0  0  0  0
    3.8703   -3.6570    1.7402 N   0  0  0  0  0  0  0  0  0  0  0  0
    3.7441   -4.4922    0.5612 C   0  0  0  0  0  0  0  0  0  0  0  0
    4.6595   -3.7083   -0.3578 C   0  0  2  0  0  0  0  0  0  0  0  0
    6.1784   -3.9481   -0.0821 C   0  0  1  0  0  0  0  0  0  0  0  0
    7.0697   -2.9085    0.6297 C   0  0  0  0  0  0  0  0  0  0  0  0
    6.4657   -5.2720    0.3670 O   0  0  0  0  0  0  0  0  0  0  0  0
    6.2353   -5.7222    1.6494 C   0  0  0  0  0  0  0  0  0  0  0  0
    6.9213   -7.0628    1.8067 C   0  0  0  0  0  0  0  0  0  0  0  0
    5.5095   -5.1790    2.6678 C   0  0  0  0  0  0  0  0  0  0  0  0
    4.7628   -3.9162    2.7407 C   0  0  0  0  0  0  0  0  0  0  0  0
    4.9734   -3.1318    3.6597 O   0  0  0  0  0  0  0  0  0  0  0  0
    4.2361   -0.5877   -3.8441 H   0  0  0  0  0  0  0  0  0  0  0  0
    4.1493   -2.2134   -4.5637 H   0  0  0  0  0  0  0  0  0  0  0  0
    5.3530   -1.8745   -3.3374 H   0  0  0  0  0  0  0  0  0  0  0  0
    2.6518   -0.8363   -0.9071 H   0  0  0  0  0  0  0  0  0  0  0  0
    5.6935   -1.2541   -1.3330 H   0  0  0  0  0  0  0  0  0  0  0  0
    4.9356   -0.1797   -0.0765 H   0  0  0  0  0  0  0  0  0  0  0  0
    1.5108    0.1165    1.4665 H   0  0  0  0  0  0  0  0  0  0  0  0
    3.1125    0.3395    0.8014 H   0  0  0  0  0  0  0  0  0  0  0  0
    2.8325    0.6919    2.4839 H   0  0  0  0  0  0  0  0  0  0  0  0
    2.5836   -2.8099    3.8005 H   0  0  0  0  0  0  0  0  0  0  0  0
    1.1298   -0.1692    3.8892 H   0  0  0  0  0  0  0  0  0  0  0  0
   -0.0403    0.1161    6.2804 H   0  0  0  0  0  0  0  0  0  0  0  0
    1.6087   -0.1810    6.8482 H   0  0  0  0  0  0  0  0  0  0  0  0
    0.2668   -1.1302    7.4672 H   0  0  0  0  0  0  0  0  0  0  0  0
    0.0687   -3.1472    6.6097 H   0  0  0  0  0  0  0  0  0  0  0  0
    0.7599   -3.7756    3.6467 H   0  0  0  0  0  0  0  0  0  0  0  0
    0.0836   -6.8637    6.4445 H   0  0  0  0  0  0  0  0  0  0  0  0
   -1.3719   -5.8549    6.2351 H   0  0  0  0  0  0  0  0  0  0  0  0
    0.0266   -5.2279    7.0825 H   0  0  0  0  0  0  0  0  0  0  0  0
    0.5847   -5.7923    2.8656 H   0  0  0  0  0  0  0  0  0  0  0  0
   -1.8303   -6.8452    4.1410 H   0  0  0  0  0  0  0  0  0  0  0  0
   -1.3903   -6.8065    2.4361 H   0  0  0  0  0  0  0  0  0  0  0  0
   -1.4057   -9.2920    3.2789 H   0  0  0  0  0  0  0  0  0  0  0  0
    1.7234  -10.1939    4.8718 H   0  0  0  0  0  0  0  0  0  0  0  0
    2.0495  -10.1958    3.1329 H   0  0  0  0  0  0  0  0  0  0  0  0
    0.5447  -10.8778    3.7508 H   0  0  0  0  0  0  0  0  0  0  0  0
    1.7705   -7.4350    4.9832 H   0  0  0  0  0  0  0  0  0  0  0  0
    3.2986   -8.0981    3.1293 H   0  0  0  0  0  0  0  0  0  0  0  0
    3.0433   -6.3613    3.0928 H   0  0  0  0  0  0  0  0  0  0  0  0
    2.2036   -7.3934    1.9471 H   0  0  0  0  0  0  0  0  0  0  0  0
    3.9435   -5.5633    0.6456 H   0  0  0  0  0  0  0  0  0  0  0  0
    2.7191   -4.4346    0.1890 H   0  0  0  0  0  0  0  0  0  0  0  0
    4.4656   -4.0701   -1.3615 H   0  0  0  0  0  0  0  0  0  0  0  0
    6.5969   -3.9447   -1.0888 H   0  0  0  0  0  0  0  0  0  0  0  0
    7.1905   -1.9959    0.0522 H   0  0  0  0  0  0  0  0  0  0  0  0
    8.0763   -3.3115    0.7437 H   0  0  0  0  0  0  0  0  0  0  0  0
    6.7191   -2.6203    1.6166 H   0  0  0  0  0  0  0  0  0  0  0  0
    6.7706   -7.4933    2.7925 H   0  0  0  0  0  0  0  0  0  0  0  0
    7.9893   -6.9509    1.6378 H   0  0  0  0  0  0  0  0  0  0  0  0
    6.5366   -7.7607    1.0685 H   0  0  0  0  0  0  0  0  0  0  0  0
    5.5009   -5.7585    3.5820 H   0  0  0  0  0  0  0  0  0  0  0  0
  1  2  1  0
  1 36  1  0
  1 37  1  0
  1 38  1  0
  2  3  2  0
  2  4  1  0
  4  6  1  0
  4  5  1  0
  4 39  1  1
  6  5  1  1
  5 40  1  0
  5 41  1  0
  6 27  1  0
  6  7  1  0
  7  8  2  3
  7 25  1  0
  8  9  1  0
  8 10  1  0
  9 42  1  0
  9 43  1  0
  9 44  1  0
 10 11  2  3
 10 45  1  0
 11 12  1  0
 11 46  1  0
 12 13  1  0
 12 14  2  3
 13 47  1  0
 13 48  1  0
 13 49  1  0
 14 15  1  0
 14 50  1  0
 15 16  2  3
 15 51  1  0
 16 17  1  0
 16 18  1  0
 17 52  1  0
 17 53  1  0
 17 54  1  0
 18 23  1  0
 18 19  1  0
 18 55  1  6
 19 20  1  0
 19 56  1  0
 19 57  1  0
 20 21  2  0
 20 58  1  0
 21 22  1  0
 21 23  1  0
 22 59  1  0
 22 60  1  0
 22 61  1  0
 23 24  1  0
 23 62  1  1
 24 63  1  0
 24 64  1  0
 24 65  1  0
 25 34  1  0
 25 26  1  0
 26 27  1  0
 26 66  1  0
 26 67  1  0
 27 28  1  0
 27 68  1  6
 28 29  1  0
 28 30  1  0
 28 69  1  6
 29 70  1  0
 29 71  1  0
 29 72  1  0
 30 31  1  0
 31 32  1  0
 31 33  2  3
 32 73  1  0
 32 74  1  0
 32 75  1  0
 33 34  1  0
 33 76  1  0
 34 35  2  0
M  END
>  <i_m_ct_stereo_status>  (227) 
1

>  <s_m_source_file>  (227) 
/var/tmp/pbs.5076255.sched01/tmpk9_hntje/1089a46f3po.sdf

>  <i_m_source_file_index>  (227) 
2

>  <i_lp_mmshare_version>  (227) 
48012

>  <i_f3d_flags>  (227) 
0

>  <s_epik_input>  (227) 
W0NIM11DKD1PKVtDQEhdKFtDSDJdMSlbQ0BAXTEyW0NAQEhdM1tDSDJdTihDKD1PKS9bQ0hdPUMoW0NIM10pXE9bQ0BASF0zW0NIM10pQ1wyPUMoXFtDSDNdKS9bQ0hdPVtDSF0vQyhbQ0gzXSk9W0NIXS9bQ0hdPUMoXFtDSDNdKVtDQEBIXTRbQ0gyXVtDSF09QyhbQ0gzXSlbQ0BIXTRbQ0gzXQ==

>  <s_epik_cmdline>  (227) 
J2VwaWtfcHl0aG9uJywgJy1waHQnLCAnMi4wJywgJy1waCcsICc3LjAnLCAnLXRuJywgJzgnLCAnLW1hJywgJzIwMCcsICctaW1hZScsICc8aW5maWxlLm1hZT4nLCAnLW9tYWUnLCAnPG91dGZpbGUubWFlPic=

>  <r_lp_tautomer_probability>  (227) 
1

>  <r_epik_Ionization_Penalty>  (227) 
1.49479e-07

>  <r_epik_Ionization_Penalty_Charging>  (227) 
0

>  <r_epik_Ionization_Penalty_Neutral>  (227) 
1.49479e-07

>  <r_epik_State_Penalty>  (227) 
-0

>  <r_epik_Charging_Adjusted_Penalty>  (227) 
0

>  <i_epik_Tot_Q>  (227) 
0

>  <i_epik_Tot_abs_Q>  (227) 
0

>  <s_lp_Force_Field>  (227) 
OPLS3e

>  <r_lp_Energy>  (227) 
59.7323

>  <b_lp_Chiralities_Consistent>  (227) 
1

>  <s_lp_Variant>  (227) 
69:0-5

>  <s_i_glide_gridfile>  (227) 
pfpi4k_grid

>  <i_i_glide_lignum>  (227) 
2

>  <i_i_glide_rotatable_bonds>  (227) 
5

>  <r_i_docking_score>  (227) 
-1.863

>  <r_i_glide_ligand_efficiency>  (227) 
-0.0532287

>  <r_i_glide_ligand_efficiency_sa>  (227) 
-0.174115

>  <r_i_glide_ligand_efficiency_ln>  (227) 
-0.408971

>  <r_i_glide_gscore>  (227) 
-1.863

>  <r_i_glide_lipo>  (227) 
-0.522416

>  <r_i_glide_hbond>  (227) 
0

>  <r_i_glide_metal>  (227) 
-0

>  <r_i_glide_rewards>  (227) 
-0.204403

>  <r_i_glide_evdw>  (227) 
-34.4518

>  <r_i_glide_ecoul>  (227) 
1.75457

>  <r_i_glide_erotb>  (227) 
0.357898

>  <r_i_glide_esite>  (227) 
-0.0346766

>  <r_i_glide_emodel>  (227) 
-33.6713

>  <r_i_glide_energy>  (227) 
-32.6973

>  <r_i_glide_einternal>  (227) 
4.22006

>  <r_i_glide_intrahb_reward>  (227) 
-0

>  <i_i_glide_confnum>  (227) 
3

>  <i_i_glide_posenum>  (227) 
2

>  <r_i_glide_eff_state_penalty>  (227) 
0

>  <ligand_id>  (227) 
69

>  <original_smiles>  (227) 
CC(=O)C1CC12C(=C(C)C=CC(C)=CC=C(C)C1CC=C(C)C1C)N1CC2C(C)OC(C)=CC1=O

>  <smiles>  (227) 
[H]C(=C([H])C(=C1N2C(=O)C([H])=C(C([H])([H])[H])OC([H])(C([H])([H])[H])C([H])(C2([H])[H])C12C([H])([H])C2([H])C(=O)C([H])([H])[H])C([H])([H])[H])C(=C([H])C([H])=C(C([H])([H])[H])C1([H])C([H])([H])C([H])=C(C([H])([H])[H])C1([H])C([H])([H])[H])C([H])([H])[H]

$$$$
69:5:0
     RDKit          3D

 76 79  0  0  1  0  0  0  0  0999 V2000
    1.3311   -1.4861   10.1495 C   0  0  0  0  0  0  0  0  0  0  0  0
    0.8546   -1.5883    8.7092 C   0  0  0  0  0  0  0  0  0  0  0  0
   -0.1188   -2.2939    8.4399 O   0  0  0  0  0  0  0  0  0  0  0  0
    1.5736   -0.8257    7.6188 C   0  0  2  0  0  0  0  0  0  0  0  0
    2.2592    0.4760    7.9355 C   0  0  0  0  0  0  0  0  0  0  0  0
    0.9720    0.5153    7.1306 C   0  0  1  0  0  0  0  0  0  0  0  0
    0.9810    0.9358    5.6648 C   0  0  0  0  0  0  0  0  0  0  0  0
    1.6946    0.5415    4.5623 C   0  0  0  0  0  0  0  0  0  0  0  0
    1.2832    0.9931    3.1468 C   0  0  0  0  0  0  0  0  0  0  0  0
    2.8523   -0.3497    4.6535 C   0  0  0  0  0  0  0  0  0  0  0  0
    3.5175   -0.9044    3.6141 C   0  0  0  0  0  0  0  0  0  0  0  0
    4.6575   -1.8202    3.7545 C   0  0  0  0  0  0  0  0  0  0  0  0
    5.1305   -2.2024    5.1460 C   0  0  0  0  0  0  0  0  0  0  0  0
    5.3226   -2.3319    2.6905 C   0  0  0  0  0  0  0  0  0  0  0  0
    5.0182   -2.0992    1.2875 C   0  0  0  0  0  0  0  0  0  0  0  0
    5.8040   -2.4012    0.2257 C   0  0  0  0  0  0  0  0  0  0  0  0
    7.1617   -3.0955    0.3152 C   0  0  0  0  0  0  0  0  0  0  0  0
    5.4124   -2.0292   -1.2082 C   0  0  2  0  0  0  0  0  0  0  0  0
    4.6369   -0.6837   -1.3633 C   0  0  0  0  0  0  0  0  0  0  0  0
    3.3829   -1.0733   -2.1021 C   0  0  0  0  0  0  0  0  0  0  0  0
    3.3366   -2.3669   -2.4006 C   0  0  0  0  0  0  0  0  0  0  0  0
    2.2292   -3.0567   -3.1491 C   0  0  0  0  0  0  0  0  0  0  0  0
    4.5550   -3.1183   -1.9206 C   0  0  1  0  0  0  0  0  0  0  0  0
    5.2878   -3.7506   -3.1020 C   0  0  0  0  0  0  0  0  0  0  0  0
   -0.0657    1.8805    5.6122 N   0  0  0  0  0  0  0  0  0  0  0  0
   -1.1481    1.3989    6.4667 C   0  0  0  0  0  0  0  0  0  0  0  0
   -0.3963    0.9793    7.7261 C   0  0  2  0  0  0  0  0  0  0  0  0
   -0.4221    2.1538    8.7577 C   0  0  1  0  0  0  0  0  0  0  0  0
    0.0009    1.8722   10.2196 C   0  0  0  0  0  0  0  0  0  0  0  0
    0.3098    3.2703    8.2676 O   0  0  0  0  0  0  0  0  0  0  0  0
   -0.4536    4.1750    7.5762 C   0  0  0  0  0  0  0  0  0  0  0  0
   -1.1736    5.1704    8.4715 C   0  0  0  0  0  0  0  0  0  0  0  0
   -0.5387    4.1546    6.2264 C   0  0  0  0  0  0  0  0  0  0  0  0
    0.2186    3.2078    5.4047 C   0  0  0  0  0  0  0  0  0  0  0  0
    1.1051    3.5865    4.6455 O   0  0  0  0  0  0  0  0  0  0  0  0
    2.3628   -1.8277   10.2465 H   0  0  0  0  0  0  0  0  0  0  0  0
    0.6916   -2.0757   10.8082 H   0  0  0  0  0  0  0  0  0  0  0  0
    1.2854   -0.4584   10.4971 H   0  0  0  0  0  0  0  0  0  0  0  0
    2.0584   -1.4952    6.9072 H   0  0  0  0  0  0  0  0  0  0  0  0
    2.2733    0.7845    8.9724 H   0  0  0  0  0  0  0  0  0  0  0  0
    3.1755    0.7262    7.3989 H   0  0  0  0  0  0  0  0  0  0  0  0
    1.0767    0.1180    2.5285 H   0  0  0  0  0  0  0  0  0  0  0  0
    2.0815    1.5752    2.6834 H   0  0  0  0  0  0  0  0  0  0  0  0
    0.3737    1.5935    3.1135 H   0  0  0  0  0  0  0  0  0  0  0  0
    3.2337   -0.5850    5.6298 H   0  0  0  0  0  0  0  0  0  0  0  0
    3.1775   -0.6525    2.6231 H   0  0  0  0  0  0  0  0  0  0  0  0
    5.5079   -1.3227    5.6688 H   0  0  0  0  0  0  0  0  0  0  0  0
    5.9458   -2.9284    5.1142 H   0  0  0  0  0  0  0  0  0  0  0  0
    4.3261   -2.6523    5.7277 H   0  0  0  0  0  0  0  0  0  0  0  0
    6.1532   -2.9848    2.9106 H   0  0  0  0  0  0  0  0  0  0  0  0
    4.0626   -1.6614    1.0638 H   0  0  0  0  0  0  0  0  0  0  0  0
    7.1792   -3.9744   -0.3329 H   0  0  0  0  0  0  0  0  0  0  0  0
    7.4188   -3.4370    1.3134 H   0  0  0  0  0  0  0  0  0  0  0  0
    7.9559   -2.4253   -0.0125 H   0  0  0  0  0  0  0  0  0  0  0  0
    6.3449   -1.9044   -1.7551 H   0  0  0  0  0  0  0  0  0  0  0  0
    4.3779   -0.1627   -0.4482 H   0  0  0  0  0  0  0  0  0  0  0  0
    5.1932    0.0096   -1.9903 H   0  0  0  0  0  0  0  0  0  0  0  0
    2.6157   -0.3629   -2.3526 H   0  0  0  0  0  0  0  0  0  0  0  0
    1.8155   -3.8676   -2.5533 H   0  0  0  0  0  0  0  0  0  0  0  0
    2.5816   -3.4702   -4.0932 H   0  0  0  0  0  0  0  0  0  0  0  0
    1.4239   -2.3619   -3.3722 H   0  0  0  0  0  0  0  0  0  0  0  0
    4.2348   -3.8912   -1.2248 H   0  0  0  0  0  0  0  0  0  0  0  0
    4.7010   -4.5315   -3.5917 H   0  0  0  0  0  0  0  0  0  0  0  0
    6.2162   -4.1895   -2.7583 H   0  0  0  0  0  0  0  0  0  0  0  0
    5.5341   -3.0093   -3.8565 H   0  0  0  0  0  0  0  0  0  0  0  0
   -1.9885    2.0754    6.6217 H   0  0  0  0  0  0  0  0  0  0  0  0
   -1.5644    0.5130    5.9700 H   0  0  0  0  0  0  0  0  0  0  0  0
   -0.9827    0.1741    8.1521 H   0  0  0  0  0  0  0  0  0  0  0  0
   -1.4769    2.4151    8.8592 H   0  0  0  0  0  0  0  0  0  0  0  0
   -0.4176    0.9300   10.5801 H   0  0  0  0  0  0  0  0  0  0  0  0
   -0.3920    2.6503   10.8771 H   0  0  0  0  0  0  0  0  0  0  0  0
    1.0731    1.8795   10.4001 H   0  0  0  0  0  0  0  0  0  0  0  0
   -1.6863    5.9309    7.8984 H   0  0  0  0  0  0  0  0  0  0  0  0
   -0.4592    5.6719    9.1160 H   0  0  0  0  0  0  0  0  0  0  0  0
   -1.9095    4.6819    9.1039 H   0  0  0  0  0  0  0  0  0  0  0  0
   -1.1396    4.9091    5.7309 H   0  0  0  0  0  0  0  0  0  0  0  0
  1  2  1  0
  1 36  1  0
  1 37  1  0
  1 38  1  0
  2  3  2  0
  2  4  1  0
  4  6  1  0
  4  5  1  0
  4 39  1  6
  6  5  1  1
  5 40  1  0
  5 41  1  0
  6 27  1  0
  6  7  1  0
  7  8  2  3
  7 25  1  0
  8  9  1  0
  8 10  1  0
  9 42  1  0
  9 43  1  0
  9 44  1  0
 10 11  2  3
 10 45  1  0
 11 12  1  0
 11 46  1  0
 12 13  1  0
 12 14  2  3
 13 47  1  0
 13 48  1  0
 13 49  1  0
 14 15  1  0
 14 50  1  0
 15 16  2  3
 15 51  1  0
 16 17  1  0
 16 18  1  0
 17 52  1  0
 17 53  1  0
 17 54  1  0
 18 23  1  0
 18 19  1  0
 18 55  1  6
 19 20  1  0
 19 56  1  0
 19 57  1  0
 20 21  2  0
 20 58  1  0
 21 22  1  0
 21 23  1  0
 22 59  1  0
 22 60  1  0
 22 61  1  0
 23 24  1  0
 23 62  1  1
 24 63  1  0
 24 64  1  0
 24 65  1  0
 25 34  1  0
 25 26  1  0
 26 27  1  0
 26 66  1  0
 26 67  1  0
 27 28  1  0
 27 68  1  1
 28 29  1  0
 28 30  1  0
 28 69  1  1
 29 70  1  0
 29 71  1  0
 29 72  1  0
 30 31  1  0
 31 32  1  0
 31 33  2  3
 32 73  1  0
 32 74  1  0
 32 75  1  0
 33 34  1  0
 33 76  1  0
 34 35  2  0
M  END
>  <i_m_ct_stereo_status>  (228) 
1

>  <s_m_source_file>  (228) 
/var/tmp/pbs.5076255.sched01/tmpk9_hntje/1089a46f3po.sdf

>  <i_m_source_file_index>  (228) 
3

>  <i_lp_mmshare_version>  (228) 
48012

>  <i_f3d_flags>  (228) 
0

>  <s_epik_input>  (228) 
W0NIM11DKD1PKVtDQEhdKFtDSDJdMSlbQ0BAXTEyW0NAQEhdM1tDSDJdTihDKD1PKS9bQ0hdPUMoW0NIM10pXE9bQ0BASF0zW0NIM10pQ1wyPUMoXFtDSDNdKS9bQ0hdPVtDSF0vQyhbQ0gzXSk9W0NIXS9bQ0hdPUMoXFtDSDNdKVtDQEBIXTRbQ0gyXVtDSF09QyhbQ0gzXSlbQ0BIXTRbQ0gzXQ==

>  <s_epik_cmdline>  (228) 
J2VwaWtfcHl0aG9uJywgJy1waHQnLCAnMi4wJywgJy1waCcsICc3LjAnLCAnLXRuJywgJzgnLCAnLW1hJywgJzIwMCcsICctaW1hZScsICc8aW5maWxlLm1hZT4nLCAnLW9tYWUnLCAnPG91dGZpbGUubWFlPic=

>  <r_lp_tautomer_probability>  (228) 
1

>  <r_epik_Ionization_Penalty>  (228) 
1.49479e-07

>  <r_epik_Ionization_Penalty_Charging>  (228) 
0

>  <r_epik_Ionization_Penalty_Neutral>  (228) 
1.49479e-07

>  <r_epik_State_Penalty>  (228) 
-0

>  <r_epik_Charging_Adjusted_Penalty>  (228) 
0

>  <i_epik_Tot_Q>  (228) 
0

>  <i_epik_Tot_abs_Q>  (228) 
0

>  <s_lp_Force_Field>  (228) 
OPLS3e

>  <r_lp_Energy>  (228) 
52.9374

>  <b_lp_Chiralities_Consistent>  (228) 
1

>  <s_lp_Variant>  (228) 
69:0-6

>  <s_i_glide_gridfile>  (228) 
pfpi4k_grid

>  <i_i_glide_lignum>  (228) 
3

>  <i_i_glide_rotatable_bonds>  (228) 
5

>  <r_i_docking_score>  (228) 
-2.00619

>  <r_i_glide_ligand_efficiency>  (228) 
-0.0573196

>  <r_i_glide_ligand_efficiency_sa>  (228) 
-0.187496

>  <r_i_glide_ligand_efficiency_ln>  (228) 
-0.440403

>  <r_i_glide_gscore>  (228) 
-2.00619

>  <r_i_glide_lipo>  (228) 
-0.624095

>  <r_i_glide_hbond>  (228) 
-0.152346

>  <r_i_glide_metal>  (228) 
-0

>  <r_i_glide_rewards>  (228) 
-0.16594

>  <r_i_glide_evdw>  (228) 
-24.6837

>  <r_i_glide_ecoul>  (228) 
-1.01799

>  <r_i_glide_erotb>  (228) 
0.357898

>  <r_i_glide_esite>  (228) 
-0.0348206

>  <r_i_glide_emodel>  (228) 
-26.5265

>  <r_i_glide_energy>  (228) 
-25.7017

>  <r_i_glide_einternal>  (228) 
4.31376

>  <r_i_glide_intrahb_reward>  (228) 
-0

>  <i_i_glide_confnum>  (228) 
5

>  <i_i_glide_posenum>  (228) 
21

>  <r_i_glide_eff_state_penalty>  (228) 
0

>  <ligand_id>  (228) 
69

>  <original_smiles>  (228) 
CC(=O)C1CC12C(=C(C)C=CC(C)=CC=C(C)C1CC=C(C)C1C)N1CC2C(C)OC(C)=CC1=O

>  <smiles>  (228) 
[H]C(=C([H])C(=C1N2C(=O)C([H])=C(C([H])([H])[H])OC([H])(C([H])([H])[H])C([H])(C2([H])[H])C12C([H])([H])C2([H])C(=O)C([H])([H])[H])C([H])([H])[H])C(=C([H])C([H])=C(C([H])([H])[H])C1([H])C([H])([H])C([H])=C(C([H])([H])[H])C1([H])C([H])([H])[H])C([H])([H])[H]

$$$$
69:5:1
     RDKit          3D

 76 79  0  0  1  0  0  0  0  0999 V2000
    0.0377   -4.3148    5.6954 C   0  0  0  0  0  0  0  0  0  0  0  0
   -0.1525   -2.8444    6.0152 C   0  0  0  0  0  0  0  0  0  0  0  0
   -1.2711   -2.4377    6.3489 O   0  0  0  0  0  0  0  0  0  0  0  0
    1.0951   -1.9946    5.9109 C   0  0  2  0  0  0  0  0  0  0  0  0
    1.1955   -0.6776    6.6467 C   0  0  0  0  0  0  0  0  0  0  0  0
    1.0951   -0.6529    5.1160 C   0  0  1  0  0  0  0  0  0  0  0  0
    2.2812   -0.1840    4.2793 C   0  0  0  0  0  0  0  0  0  0  0  0
    3.6220   -0.4846    4.2468 C   0  0  0  0  0  0  0  0  0  0  0  0
    4.4996   -0.0422    3.0724 C   0  0  0  0  0  0  0  0  0  0  0  0
    4.2688   -1.3872    5.2239 C   0  0  0  0  0  0  0  0  0  0  0  0
    5.5778   -1.3654    5.5287 C   0  0  0  0  0  0  0  0  0  0  0  0
    6.1704   -2.2733    6.5009 C   0  0  0  0  0  0  0  0  0  0  0  0
    6.7273   -1.6681    7.7662 C   0  0  0  0  0  0  0  0  0  0  0  0
    6.2158   -3.6204    6.3450 C   0  0  0  0  0  0  0  0  0  0  0  0
    5.7482   -4.3901    5.2021 C   0  0  0  0  0  0  0  0  0  0  0  0
    5.8132   -5.7426    5.0677 C   0  0  0  0  0  0  0  0  0  0  0  0
    6.3970   -6.6936    6.1195 C   0  0  0  0  0  0  0  0  0  0  0  0
    5.2934   -6.4131    3.7935 C   0  0  2  0  0  0  0  0  0  0  0  0
    4.0792   -7.3586    4.0504 C   0  0  0  0  0  0  0  0  0  0  0  0
    4.5159   -8.6720    3.4443 C   0  0  0  0  0  0  0  0  0  0  0  0
    5.7310   -8.6234    2.8986 C   0  0  0  0  0  0  0  0  0  0  0  0
    6.4522   -9.7714    2.2266 C   0  0  0  0  0  0  0  0  0  0  0  0
    6.3668   -7.2547    3.0172 C   0  0  1  0  0  0  0  0  0  0  0  0
    6.7133   -6.6595    1.6451 C   0  0  0  0  0  0  0  0  0  0  0  0
    1.6812    0.7272    3.3808 N   0  0  0  0  0  0  0  0  0  0  0  0
    0.3777    0.2092    2.9992 C   0  0  0  0  0  0  0  0  0  0  0  0
   -0.1944   -0.2337    4.3477 C   0  0  2  0  0  0  0  0  0  0  0  0
   -1.0822    0.9162    4.9356 C   0  0  1  0  0  0  0  0  0  0  0  0
   -1.9779    0.6305    6.1677 C   0  0  0  0  0  0  0  0  0  0  0  0
   -0.2976    2.0625    5.2386 O   0  0  0  0  0  0  0  0  0  0  0  0
   -0.2283    2.9628    4.2154 C   0  0  0  0  0  0  0  0  0  0  0  0
   -1.4021    3.9117    4.1440 C   0  0  0  0  0  0  0  0  0  0  0  0
    0.8251    2.9700    3.3429 C   0  0  0  0  0  0  0  0  0  0  0  0
    1.9567    2.0771    3.4865 C   0  0  0  0  0  0  0  0  0  0  0  0
    3.0609    2.4947    3.8049 O   0  0  0  0  0  0  0  0  0  0  0  0
    0.4844   -4.4287    4.7033 H   0  0  0  0  0  0  0  0  0  0  0  0
   -0.9342   -4.8026    5.6974 H   0  0  0  0  0  0  0  0  0  0  0  0
    0.6803   -4.7965    6.4411 H   0  0  0  0  0  0  0  0  0  0  0  0
    1.9698   -2.6200    5.9580 H   0  0  0  0  0  0  0  0  0  0  0  0
    0.3622   -0.4209    7.2942 H   0  0  0  0  0  0  0  0  0  0  0  0
    2.1710   -0.3912    7.0519 H   0  0  0  0  0  0  0  0  0  0  0  0
    4.9041   -0.9225    2.5740 H   0  0  0  0  0  0  0  0  0  0  0  0
    5.3306    0.5839    3.3904 H   0  0  0  0  0  0  0  0  0  0  0  0
    3.9713    0.5121    2.2989 H   0  0  0  0  0  0  0  0  0  0  0  0
    3.7310   -2.1477    5.7404 H   0  0  0  0  0  0  0  0  0  0  0  0
    6.2172   -0.6389    5.0572 H   0  0  0  0  0  0  0  0  0  0  0  0
    7.5768   -1.0247    7.5323 H   0  0  0  0  0  0  0  0  0  0  0  0
    7.0811   -2.4339    8.4618 H   0  0  0  0  0  0  0  0  0  0  0  0
    5.9626   -1.0851    8.2854 H   0  0  0  0  0  0  0  0  0  0  0  0
    6.6528   -4.1649    7.1670 H   0  0  0  0  0  0  0  0  0  0  0  0
    5.3099   -3.8308    4.3905 H   0  0  0  0  0  0  0  0  0  0  0  0
    5.6938   -7.4895    6.3629 H   0  0  0  0  0  0  0  0  0  0  0  0
    6.6487   -6.2158    7.0593 H   0  0  0  0  0  0  0  0  0  0  0  0
    7.3086   -7.1743    5.7630 H   0  0  0  0  0  0  0  0  0  0  0  0
    4.9445   -5.6194    3.1324 H   0  0  0  0  0  0  0  0  0  0  0  0
    3.8227   -7.4963    5.0974 H   0  0  0  0  0  0  0  0  0  0  0  0
    3.1773   -7.0053    3.5551 H   0  0  0  0  0  0  0  0  0  0  0  0
    3.8862   -9.5461    3.4641 H   0  0  0  0  0  0  0  0  0  0  0  0
    7.4075   -9.9714    2.7118 H   0  0  0  0  0  0  0  0  0  0  0  0
    6.6438   -9.5493    1.1785 H   0  0  0  0  0  0  0  0  0  0  0  0
    5.8590  -10.6858    2.2657 H   0  0  0  0  0  0  0  0  0  0  0  0
    7.2960   -7.3721    3.5688 H   0  0  0  0  0  0  0  0  0  0  0  0
    7.4584   -7.2576    1.1168 H   0  0  0  0  0  0  0  0  0  0  0  0
    7.1195   -5.6552    1.7478 H   0  0  0  0  0  0  0  0  0  0  0  0
    5.8266   -6.6006    1.0151 H   0  0  0  0  0  0  0  0  0  0  0  0
   -0.2696    0.8603    2.3988 H   0  0  0  0  0  0  0  0  0  0  0  0
    0.5665   -0.6746    2.3749 H   0  0  0  0  0  0  0  0  0  0  0  0
   -0.8311   -1.0729    4.0862 H   0  0  0  0  0  0  0  0  0  0  0  0
   -1.7984    1.1523    4.1470 H   0  0  0  0  0  0  0  0  0  0  0  0
   -2.5519   -0.2917    6.0352 H   0  0  0  0  0  0  0  0  0  0  0  0
   -2.7083    1.4358    6.2772 H   0  0  0  0  0  0  0  0  0  0  0  0
   -1.4593    0.6128    7.1259 H   0  0  0  0  0  0  0  0  0  0  0  0
   -1.2632    4.6573    3.3687 H   0  0  0  0  0  0  0  0  0  0  0  0
   -1.5272    4.4235    5.0956 H   0  0  0  0  0  0  0  0  0  0  0  0
   -2.3298    3.3852    3.9279 H   0  0  0  0  0  0  0  0  0  0  0  0
    0.8365    3.7212    2.5680 H   0  0  0  0  0  0  0  0  0  0  0  0
  1  2  1  0
  1 36  1  0
  1 37  1  0
  1 38  1  0
  2  3  2  0
  2  4  1  0
  4  6  1  0
  4  5  1  0
  4 39  1  6
  6  5  1  1
  5 40  1  0
  5 41  1  0
  6 27  1  0
  6  7  1  0
  7  8  2  3
  7 25  1  0
  8  9  1  0
  8 10  1  0
  9 42  1  0
  9 43  1  0
  9 44  1  0
 10 11  2  3
 10 45  1  0
 11 12  1  0
 11 46  1  0
 12 13  1  0
 12 14  2  3
 13 47  1  0
 13 48  1  0
 13 49  1  0
 14 15  1  0
 14 50  1  0
 15 16  2  3
 15 51  1  0
 16 17  1  0
 16 18  1  0
 17 52  1  0
 17 53  1  0
 17 54  1  0
 18 23  1  0
 18 19  1  0
 18 55  1  6
 19 20  1  0
 19 56  1  0
 19 57  1  0
 20 21  2  0
 20 58  1  0
 21 22  1  0
 21 23  1  0
 22 59  1  0
 22 60  1  0
 22 61  1  0
 23 24  1  0
 23 62  1  1
 24 63  1  0
 24 64  1  0
 24 65  1  0
 25 34  1  0
 25 26  1  0
 26 27  1  0
 26 66  1  0
 26 67  1  0
 27 28  1  0
 27 68  1  6
 28 29  1  0
 28 30  1  0
 28 69  1  6
 29 70  1  0
 29 71  1  0
 29 72  1  0
 30 31  1  0
 31 32  1  0
 31 33  2  3
 32 73  1  0
 32 74  1  0
 32 75  1  0
 33 34  1  0
 33 76  1  0
 34 35  2  0
M  END
>  <i_m_ct_stereo_status>  (229) 
1

>  <s_m_source_file>  (229) 
/var/tmp/pbs.5076255.sched01/tmpk9_hntje/1089a46f3po.sdf

>  <i_m_source_file_index>  (229) 
3

>  <i_lp_mmshare_version>  (229) 
48012

>  <i_f3d_flags>  (229) 
0

>  <s_epik_input>  (229) 
W0NIM11DKD1PKVtDQEhdKFtDSDJdMSlbQ0BAXTEyW0NAQEhdM1tDSDJdTihDKD1PKS9bQ0hdPUMoW0NIM10pXE9bQ0BASF0zW0NIM10pQ1wyPUMoXFtDSDNdKS9bQ0hdPVtDSF0vQyhbQ0gzXSk9W0NIXS9bQ0hdPUMoXFtDSDNdKVtDQEBIXTRbQ0gyXVtDSF09QyhbQ0gzXSlbQ0BIXTRbQ0gzXQ==

>  <s_epik_cmdline>  (229) 
J2VwaWtfcHl0aG9uJywgJy1waHQnLCAnMi4wJywgJy1waCcsICc3LjAnLCAnLXRuJywgJzgnLCAnLW1hJywgJzIwMCcsICctaW1hZScsICc8aW5maWxlLm1hZT4nLCAnLW9tYWUnLCAnPG91dGZpbGUubWFlPic=

>  <r_lp_tautomer_probability>  (229) 
1

>  <r_epik_Ionization_Penalty>  (229) 
1.49479e-07

>  <r_epik_Ionization_Penalty_Charging>  (229) 
0

>  <r_epik_Ionization_Penalty_Neutral>  (229) 
1.49479e-07

>  <r_epik_State_Penalty>  (229) 
-0

>  <r_epik_Charging_Adjusted_Penalty>  (229) 
0

>  <i_epik_Tot_Q>  (229) 
0

>  <i_epik_Tot_abs_Q>  (229) 
0

>  <s_lp_Force_Field>  (229) 
OPLS3e

>  <r_lp_Energy>  (229) 
52.9374

>  <b_lp_Chiralities_Consistent>  (229) 
1

>  <s_lp_Variant>  (229) 
69:0-6

>  <s_i_glide_gridfile>  (229) 
pfpi4k_grid

>  <i_i_glide_lignum>  (229) 
3

>  <i_i_glide_rotatable_bonds>  (229) 
5

>  <r_i_docking_score>  (229) 
-1.67138

>  <r_i_glide_ligand_efficiency>  (229) 
-0.0477538

>  <r_i_glide_ligand_efficiency_sa>  (229) 
-0.156206

>  <r_i_glide_ligand_efficiency_ln>  (229) 
-0.366905

>  <r_i_glide_gscore>  (229) 
-1.67138

>  <r_i_glide_lipo>  (229) 
-0.253241

>  <r_i_glide_hbond>  (229) 
0

>  <r_i_glide_metal>  (229) 
-0

>  <r_i_glide_rewards>  (229) 
-0.16594

>  <r_i_glide_evdw>  (229) 
-23.3264

>  <r_i_glide_ecoul>  (229) 
-2.6544

>  <r_i_glide_erotb>  (229) 
0.357898

>  <r_i_glide_esite>  (229) 
-0.0456192

>  <r_i_glide_emodel>  (229) 
-23.9456

>  <r_i_glide_energy>  (229) 
-25.9808

>  <r_i_glide_einternal>  (229) 
7.22719

>  <r_i_glide_intrahb_reward>  (229) 
-0

>  <i_i_glide_confnum>  (229) 
4

>  <i_i_glide_posenum>  (229) 
16

>  <r_i_glide_eff_state_penalty>  (229) 
0

>  <ligand_id>  (229) 
69

>  <original_smiles>  (229) 
CC(=O)C1CC12C(=C(C)C=CC(C)=CC=C(C)C1CC=C(C)C1C)N1CC2C(C)OC(C)=CC1=O

>  <smiles>  (229) 
[H]C(=C([H])C(=C1N2C(=O)C([H])=C(C([H])([H])[H])OC([H])(C([H])([H])[H])C([H])(C2([H])[H])C12C([H])([H])C2([H])C(=O)C([H])([H])[H])C([H])([H])[H])C(=C([H])C([H])=C(C([H])([H])[H])C1([H])C([H])([H])C([H])=C(C([H])([H])[H])C1([H])C([H])([H])[H])C([H])([H])[H]

$$$$
69:5:2
     RDKit          3D

 76 79  0  0  1  0  0  0  0  0999 V2000
   -2.3371    0.1012    6.0661 C   0  0  0  0  0  0  0  0  0  0  0  0
   -1.2548    0.8035    6.8359 C   0  0  0  0  0  0  0  0  0  0  0  0
   -1.4895    1.2499    7.9566 O   0  0  0  0  0  0  0  0  0  0  0  0
    0.0745    0.8925    6.1588 C   0  0  2  0  0  0  0  0  0  0  0  0
    1.2268    1.5205    6.8829 C   0  0  0  0  0  0  0  0  0  0  0  0
    0.5672    2.2724    5.7202 C   0  0  1  0  0  0  0  0  0  0  0  0
    1.2795    2.4677    4.3927 C   0  0  0  0  0  0  0  0  0  0  0  0
    1.8737    1.5972    3.5205 C   0  0  0  0  0  0  0  0  0  0  0  0
    2.2866    2.0687    2.1362 C   0  0  0  0  0  0  0  0  0  0  0  0
    2.1575    0.2020    3.8456 C   0  0  0  0  0  0  0  0  0  0  0  0
    2.4994   -0.7597    2.9496 C   0  0  0  0  0  0  0  0  0  0  0  0
    2.7617   -2.1558    3.2981 C   0  0  0  0  0  0  0  0  0  0  0  0
    2.5555   -2.6120    4.7277 C   0  0  0  0  0  0  0  0  0  0  0  0
    3.1807   -3.0730    2.3875 C   0  0  0  0  0  0  0  0  0  0  0  0
    3.4609   -2.8560    0.9729 C   0  0  0  0  0  0  0  0  0  0  0  0
    3.9210   -3.7765    0.0875 C   0  0  0  0  0  0  0  0  0  0  0  0
    4.2301   -5.2328    0.4218 C   0  0  0  0  0  0  0  0  0  0  0  0
    4.1953   -3.4214   -1.3767 C   0  0  2  0  0  0  0  0  0  0  0  0
    5.5218   -2.6234   -1.5406 C   0  0  0  0  0  0  0  0  0  0  0  0
    5.0946   -1.3908   -2.2992 C   0  0  0  0  0  0  0  0  0  0  0  0
    3.8046   -1.3846   -2.6103 C   0  0  0  0  0  0  0  0  0  0  0  0
    3.0810   -0.3061   -3.3754 C   0  0  0  0  0  0  0  0  0  0  0  0
    3.0779   -2.5959   -2.0850 C   0  0  1  0  0  0  0  0  0  0  0  0
    2.3667   -3.3334   -3.2144 C   0  0  0  0  0  0  0  0  0  0  0  0
    1.1021    3.8370    4.1441 N   0  0  0  0  0  0  0  0  0  0  0  0
   -0.2559    4.1873    4.5465 C   0  0  0  0  0  0  0  0  0  0  0  0
   -0.3651    3.5082    5.9159 C   0  0  2  0  0  0  0  0  0  0  0  0
   -0.0064    4.5405    7.0346 C   0  0  1  0  0  0  0  0  0  0  0  0
   -0.3240    4.1828    8.5099 C   0  0  0  0  0  0  0  0  0  0  0  0
    1.3591    4.9290    6.9312 O   0  0  0  0  0  0  0  0  0  0  0  0
    1.5679    6.0418    6.1593 C   0  0  0  0  0  0  0  0  0  0  0  0
    1.3564    7.3478    6.9187 C   0  0  0  0  0  0  0  0  0  0  0  0
    1.9220    5.9680    4.8643 C   0  0  0  0  0  0  0  0  0  0  0  0
    2.1672    4.6887    4.1927 C   0  0  0  0  0  0  0  0  0  0  0  0
    3.2889    4.3823    3.8079 O   0  0  0  0  0  0  0  0  0  0  0  0
   -2.4996    0.6029    5.1053 H   0  0  0  0  0  0  0  0  0  0  0  0
   -3.2686    0.1746    6.6262 H   0  0  0  0  0  0  0  0  0  0  0  0
   -2.1196   -0.9513    5.8793 H   0  0  0  0  0  0  0  0  0  0  0  0
    0.2700    0.0170    5.5317 H   0  0  0  0  0  0  0  0  0  0  0  0
    1.0448    1.8056    7.9213 H   0  0  0  0  0  0  0  0  0  0  0  0
    2.2247    1.1139    6.6855 H   0  0  0  0  0  0  0  0  0  0  0  0
    1.8159    1.4679    1.3546 H   0  0  0  0  0  0  0  0  0  0  0  0
    3.3691    1.9690    2.0846 H   0  0  0  0  0  0  0  0  0  0  0  0
    2.0329    3.1047    1.9122 H   0  0  0  0  0  0  0  0  0  0  0  0
    2.1257   -0.0976    4.8800 H   0  0  0  0  0  0  0  0  0  0  0  0
    2.5686   -0.4754    1.9144 H   0  0  0  0  0  0  0  0  0  0  0  0
    3.2594   -2.1050    5.3893 H   0  0  0  0  0  0  0  0  0  0  0  0
    2.7214   -3.6837    4.8506 H   0  0  0  0  0  0  0  0  0  0  0  0
    1.5354   -2.4008    5.0568 H   0  0  0  0  0  0  0  0  0  0  0  0
    3.3297   -4.0694    2.7756 H   0  0  0  0  0  0  0  0  0  0  0  0
    3.3071   -1.8689    0.5711 H   0  0  0  0  0  0  0  0  0  0  0  0
    3.7029   -5.8905   -0.2715 H   0  0  0  0  0  0  0  0  0  0  0  0
    3.9457   -5.5332    1.4255 H   0  0  0  0  0  0  0  0  0  0  0  0
    5.2964   -5.4156    0.3027 H   0  0  0  0  0  0  0  0  0  0  0  0
    4.3088   -4.3592   -1.9181 H   0  0  0  0  0  0  0  0  0  0  0  0
    5.9901   -2.3456   -0.6008 H   0  0  0  0  0  0  0  0  0  0  0  0
    6.2535   -3.1816   -2.1227 H   0  0  0  0  0  0  0  0  0  0  0  0
    5.7660   -0.5998   -2.5478 H   0  0  0  0  0  0  0  0  0  0  0  0
    2.2687    0.0720   -2.7549 H   0  0  0  0  0  0  0  0  0  0  0  0
    2.6466   -0.6787   -4.3035 H   0  0  0  0  0  0  0  0  0  0  0  0
    3.7404    0.5333   -3.6076 H   0  0  0  0  0  0  0  0  0  0  0  0
    2.3145   -2.2619   -1.3927 H   0  0  0  0  0  0  0  0  0  0  0  0
    1.6090   -2.7175   -3.7108 H   0  0  0  0  0  0  0  0  0  0  0  0
    1.8484   -4.1961   -2.8010 H   0  0  0  0  0  0  0  0  0  0  0  0
    3.0804   -3.6717   -3.9682 H   0  0  0  0  0  0  0  0  0  0  0  0
   -0.5094    5.2484    4.5225 H   0  0  0  0  0  0  0  0  0  0  0  0
   -0.9322    3.7007    3.8304 H   0  0  0  0  0  0  0  0  0  0  0  0
   -1.4213    3.2616    6.0075 H   0  0  0  0  0  0  0  0  0  0  0  0
   -0.6495    5.4007    6.8374 H   0  0  0  0  0  0  0  0  0  0  0  0
   -1.3164    3.7329    8.6077 H   0  0  0  0  0  0  0  0  0  0  0  0
   -0.3457    5.0983    9.1093 H   0  0  0  0  0  0  0  0  0  0  0  0
    0.4039    3.5274    8.9893 H   0  0  0  0  0  0  0  0  0  0  0  0
    1.6171    8.2086    6.3104 H   0  0  0  0  0  0  0  0  0  0  0  0
    1.9773    7.3715    7.8106 H   0  0  0  0  0  0  0  0  0  0  0  0
    0.3231    7.4696    7.2331 H   0  0  0  0  0  0  0  0  0  0  0  0
    2.0750    6.8951    4.3175 H   0  0  0  0  0  0  0  0  0  0  0  0
  1  2  1  0
  1 36  1  0
  1 37  1  0
  1 38  1  0
  2  3  2  0
  2  4  1  0
  4  6  1  0
  4  5  1  0
  4 39  1  6
  6  5  1  1
  5 40  1  0
  5 41  1  0
  6 27  1  0
  6  7  1  0
  7  8  2  3
  7 25  1  0
  8  9  1  0
  8 10  1  0
  9 42  1  0
  9 43  1  0
  9 44  1  0
 10 11  2  3
 10 45  1  0
 11 12  1  0
 11 46  1  0
 12 13  1  0
 12 14  2  3
 13 47  1  0
 13 48  1  0
 13 49  1  0
 14 15  1  0
 14 50  1  0
 15 16  2  3
 15 51  1  0
 16 17  1  0
 16 18  1  0
 17 52  1  0
 17 53  1  0
 17 54  1  0
 18 23  1  0
 18 19  1  0
 18 55  1  6
 19 20  1  0
 19 56  1  0
 19 57  1  0
 20 21  2  0
 20 58  1  0
 21 22  1  0
 21 23  1  0
 22 59  1  0
 22 60  1  0
 22 61  1  0
 23 24  1  0
 23 62  1  1
 24 63  1  0
 24 64  1  0
 24 65  1  0
 25 34  1  0
 25 26  1  0
 26 27  1  0
 26 66  1  0
 26 67  1  0
 27 28  1  0
 27 68  1  1
 28 29  1  0
 28 30  1  0
 28 69  1  6
 29 70  1  0
 29 71  1  0
 29 72  1  0
 30 31  1  0
 31 32  1  0
 31 33  2  3
 32 73  1  0
 32 74  1  0
 32 75  1  0
 33 34  1  0
 33 76  1  0
 34 35  2  0
M  END
>  <i_m_ct_stereo_status>  (230) 
1

>  <s_m_source_file>  (230) 
/var/tmp/pbs.5076255.sched01/tmpk9_hntje/1089a46f3po.sdf

>  <i_m_source_file_index>  (230) 
3

>  <i_lp_mmshare_version>  (230) 
48012

>  <i_f3d_flags>  (230) 
0

>  <s_epik_input>  (230) 
W0NIM11DKD1PKVtDQEhdKFtDSDJdMSlbQ0BAXTEyW0NAQEhdM1tDSDJdTihDKD1PKS9bQ0hdPUMoW0NIM10pXE9bQ0BASF0zW0NIM10pQ1wyPUMoXFtDSDNdKS9bQ0hdPVtDSF0vQyhbQ0gzXSk9W0NIXS9bQ0hdPUMoXFtDSDNdKVtDQEBIXTRbQ0gyXVtDSF09QyhbQ0gzXSlbQ0BIXTRbQ0gzXQ==

>  <s_epik_cmdline>  (230) 
J2VwaWtfcHl0aG9uJywgJy1waHQnLCAnMi4wJywgJy1waCcsICc3LjAnLCAnLXRuJywgJzgnLCAnLW1hJywgJzIwMCcsICctaW1hZScsICc8aW5maWxlLm1hZT4nLCAnLW9tYWUnLCAnPG91dGZpbGUubWFlPic=

>  <r_lp_tautomer_probability>  (230) 
1

>  <r_epik_Ionization_Penalty>  (230) 
1.49479e-07

>  <r_epik_Ionization_Penalty_Charging>  (230) 
0

>  <r_epik_Ionization_Penalty_Neutral>  (230) 
1.49479e-07

>  <r_epik_State_Penalty>  (230) 
-0

>  <r_epik_Charging_Adjusted_Penalty>  (230) 
0

>  <i_epik_Tot_Q>  (230) 
0

>  <i_epik_Tot_abs_Q>  (230) 
0

>  <s_lp_Force_Field>  (230) 
OPLS3e

>  <r_lp_Energy>  (230) 
52.9374

>  <b_lp_Chiralities_Consistent>  (230) 
1

>  <s_lp_Variant>  (230) 
69:0-6

>  <s_i_glide_gridfile>  (230) 
pfpi4k_grid

>  <i_i_glide_lignum>  (230) 
3

>  <i_i_glide_rotatable_bonds>  (230) 
5

>  <r_i_docking_score>  (230) 
-1.4915

>  <r_i_glide_ligand_efficiency>  (230) 
-0.0426143

>  <r_i_glide_ligand_efficiency_sa>  (230) 
-0.139394

>  <r_i_glide_ligand_efficiency_ln>  (230) 
-0.327417

>  <r_i_glide_gscore>  (230) 
-1.4915

>  <r_i_glide_lipo>  (230) 
-0.385098

>  <r_i_glide_hbond>  (230) 
-0.0762502

>  <r_i_glide_metal>  (230) 
-0

>  <r_i_glide_rewards>  (230) 
-0.16594

>  <r_i_glide_evdw>  (230) 
-21.5252

>  <r_i_glide_ecoul>  (230) 
-0.0758341

>  <r_i_glide_erotb>  (230) 
0.357898

>  <r_i_glide_esite>  (230) 
-0.134474

>  <r_i_glide_emodel>  (230) 
-22.5967

>  <r_i_glide_energy>  (230) 
-21.601

>  <r_i_glide_einternal>  (230) 
2.18235

>  <r_i_glide_intrahb_reward>  (230) 
-0

>  <i_i_glide_confnum>  (230) 
5

>  <i_i_glide_posenum>  (230) 
9

>  <r_i_glide_eff_state_penalty>  (230) 
0

>  <ligand_id>  (230) 
69

>  <original_smiles>  (230) 
CC(=O)C1CC12C(=C(C)C=CC(C)=CC=C(C)C1CC=C(C)C1C)N1CC2C(C)OC(C)=CC1=O

>  <smiles>  (230) 
[H]C(=C([H])C(=C1N2C(=O)C([H])=C(C([H])([H])[H])OC([H])(C([H])([H])[H])C([H])(C2([H])[H])C12C([H])([H])C2([H])C(=O)C([H])([H])[H])C([H])([H])[H])C(=C([H])C([H])=C(C([H])([H])[H])C1([H])C([H])([H])C([H])=C(C([H])([H])[H])C1([H])C([H])([H])[H])C([H])([H])[H]

$$$$
69:6:0
     RDKit          3D

 76 79  0  0  1  0  0  0  0  0999 V2000
   -0.3159    1.6686    5.5656 C   0  0  0  0  0  0  0  0  0  0  0  0
   -0.6740    0.3175    6.1760 C   0  0  0  0  0  0  0  0  0  0  0  0
   -1.8359   -0.0939    6.1162 O   0  0  0  0  0  0  0  0  0  0  0  0
    0.4078   -0.5434    6.7878 C   0  0  2  0  0  0  0  0  0  0  0  0
    1.8564   -0.1309    6.6142 C   0  0  0  0  0  0  0  0  0  0  0  0
    1.3291   -1.3377    5.8410 C   0  0  1  0  0  0  0  0  0  0  0  0
    1.7017   -2.7667    6.1438 C   0  0  0  0  0  0  0  0  0  0  0  0
    1.8607   -3.4895    7.2984 C   0  0  0  0  0  0  0  0  0  0  0  0
    1.6979   -2.8646    8.6816 C   0  0  0  0  0  0  0  0  0  0  0  0
    2.1339   -4.9220    7.2930 C   0  0  0  0  0  0  0  0  0  0  0  0
    1.3802   -5.9300    6.7971 C   0  0  0  0  0  0  0  0  0  0  0  0
    0.0380   -5.8787    6.2192 C   0  0  0  0  0  0  0  0  0  0  0  0
   -0.9768   -4.8653    6.7212 C   0  0  0  0  0  0  0  0  0  0  0  0
   -0.3511   -6.7679    5.2798 C   0  0  0  0  0  0  0  0  0  0  0  0
    0.4506   -7.8449    4.7049 C   0  0  0  0  0  0  0  0  0  0  0  0
    0.0731   -8.6846    3.7094 C   0  0  0  0  0  0  0  0  0  0  0  0
   -1.2932   -8.6547    3.0291 C   0  0  0  0  0  0  0  0  0  0  0  0
    1.0020   -9.7630    3.1302 C   0  0  2  0  0  0  0  0  0  0  0  0
    0.8809  -11.1159    3.8762 C   0  0  0  0  0  0  0  0  0  0  0  0
    2.2993  -11.4789    4.2186 C   0  0  0  0  0  0  0  0  0  0  0  0
    3.1820  -10.5823    3.8077 C   0  0  0  0  0  0  0  0  0  0  0  0
    4.6799  -10.6250    3.9883 C   0  0  0  0  0  0  0  0  0  0  0  0
    2.5306   -9.4113    3.0734 C   0  0  1  0  0  0  0  0  0  0  0  0
    3.0384   -9.2928    1.6375 C   0  0  0  0  0  0  0  0  0  0  0  0
    1.7760   -3.3452    4.8423 N   0  0  0  0  0  0  0  0  0  0  0  0
    0.7451   -2.7085    4.0520 C   0  0  0  0  0  0  0  0  0  0  0  0
    1.1011   -1.2700    4.3205 C   0  0  2  0  0  0  0  0  0  0  0  0
    2.3190   -0.7844    3.4760 C   0  0  1  0  0  0  0  0  0  0  0  0
    3.7236   -0.5982    4.0914 C   0  0  0  0  0  0  0  0  0  0  0  0
    2.3848   -1.4143    2.2002 O   0  0  0  0  0  0  0  0  0  0  0  0
    2.8538   -2.7015    1.9806 C   0  0  0  0  0  0  0  0  0  0  0  0
    3.0360   -2.8791    0.4939 C   0  0  0  0  0  0  0  0  0  0  0  0
    3.0907   -3.7237    2.8532 C   0  0  0  0  0  0  0  0  0  0  0  0
    2.9515   -3.7983    4.3179 C   0  0  0  0  0  0  0  0  0  0  0  0
    3.8661   -4.2245    5.0163 O   0  0  0  0  0  0  0  0  0  0  0  0
    0.1197    2.3284    6.3176 H   0  0  0  0  0  0  0  0  0  0  0  0
   -1.1781    2.1550    5.1143 H   0  0  0  0  0  0  0  0  0  0  0  0
    0.4220    1.5296    4.7747 H   0  0  0  0  0  0  0  0  0  0  0  0
    0.1626   -0.9726    7.7589 H   0  0  0  0  0  0  0  0  0  0  0  0
    2.0677    0.7740    6.0442 H   0  0  0  0  0  0  0  0  0  0  0  0
    2.5387   -0.2858    7.4433 H   0  0  0  0  0  0  0  0  0  0  0  0
    2.2234   -3.4626    9.4276 H   0  0  0  0  0  0  0  0  0  0  0  0
    0.6477   -2.8628    8.9677 H   0  0  0  0  0  0  0  0  0  0  0  0
    2.0875   -1.8551    8.7603 H   0  0  0  0  0  0  0  0  0  0  0  0
    3.0864   -5.2114    7.7176 H   0  0  0  0  0  0  0  0  0  0  0  0
    1.8444   -6.8994    6.8805 H   0  0  0  0  0  0  0  0  0  0  0  0
   -0.8799   -4.7087    7.7944 H   0  0  0  0  0  0  0  0  0  0  0  0
   -1.9923   -5.2043    6.5122 H   0  0  0  0  0  0  0  0  0  0  0  0
   -0.8590   -3.9071    6.2304 H   0  0  0  0  0  0  0  0  0  0  0  0
   -1.3653   -6.6647    4.9346 H   0  0  0  0  0  0  0  0  0  0  0  0
    1.4330   -8.0042    5.1167 H   0  0  0  0  0  0  0  0  0  0  0  0
   -1.1961   -8.3058    2.0021 H   0  0  0  0  0  0  0  0  0  0  0  0
   -2.0315   -8.0402    3.5334 H   0  0  0  0  0  0  0  0  0  0  0  0
   -1.7034   -9.6663    2.9984 H   0  0  0  0  0  0  0  0  0  0  0  0
    0.6631   -9.9296    2.1065 H   0  0  0  0  0  0  0  0  0  0  0  0
    0.2828  -11.0516    4.7816 H   0  0  0  0  0  0  0  0  0  0  0  0
    0.4541  -11.8880    3.2392 H   0  0  0  0  0  0  0  0  0  0  0  0
    2.5379  -12.3923    4.7494 H   0  0  0  0  0  0  0  0  0  0  0  0
    5.0310   -9.7406    4.5202 H   0  0  0  0  0  0  0  0  0  0  0  0
    5.1839  -10.6674    3.0222 H   0  0  0  0  0  0  0  0  0  0  0  0
    4.9758  -11.5097    4.5592 H   0  0  0  0  0  0  0  0  0  0  0  0
    2.7947   -8.4993    3.5932 H   0  0  0  0  0  0  0  0  0  0  0  0
    4.0979   -9.0573    1.6037 H   0  0  0  0  0  0  0  0  0  0  0  0
    2.5074   -8.5122    1.0974 H   0  0  0  0  0  0  0  0  0  0  0  0
    2.8914  -10.2251    1.1052 H   0  0  0  0  0  0  0  0  0  0  0  0
    0.6303   -3.0090    3.0114 H   0  0  0  0  0  0  0  0  0  0  0  0
   -0.2332   -2.9040    4.4849 H   0  0  0  0  0  0  0  0  0  0  0  0
    0.2393   -0.6952    4.0063 H   0  0  0  0  0  0  0  0  0  0  0  0
    2.0377    0.2384    3.2115 H   0  0  0  0  0  0  0  0  0  0  0  0
    3.7616    0.2594    4.7601 H   0  0  0  0  0  0  0  0  0  0  0  0
    4.4439   -0.3851    3.3005 H   0  0  0  0  0  0  0  0  0  0  0  0
    4.0891   -1.4569    4.6485 H   0  0  0  0  0  0  0  0  0  0  0  0
    3.3621   -3.8788    0.2285 H   0  0  0  0  0  0  0  0  0  0  0  0
    3.7634   -2.1603    0.1289 H   0  0  0  0  0  0  0  0  0  0  0  0
    2.1007   -2.6767   -0.0208 H   0  0  0  0  0  0  0  0  0  0  0  0
    3.4421   -4.6370    2.3917 H   0  0  0  0  0  0  0  0  0  0  0  0
  1  2  1  0
  1 36  1  0
  1 37  1  0
  1 38  1  0
  2  3  2  0
  2  4  1  0
  4  6  1  0
  4  5  1  0
  4 39  1  1
  6  5  1  6
  5 40  1  0
  5 41  1  0
  6 27  1  0
  6  7  1  0
  7  8  2  3
  7 25  1  0
  8  9  1  0
  8 10  1  0
  9 42  1  0
  9 43  1  0
  9 44  1  0
 10 11  2  3
 10 45  1  0
 11 12  1  0
 11 46  1  0
 12 13  1  0
 12 14  2  3
 13 47  1  0
 13 48  1  0
 13 49  1  0
 14 15  1  0
 14 50  1  0
 15 16  2  3
 15 51  1  0
 16 17  1  0
 16 18  1  0
 17 52  1  0
 17 53  1  0
 17 54  1  0
 18 23  1  0
 18 19  1  0
 18 55  1  6
 19 20  1  0
 19 56  1  0
 19 57  1  0
 20 21  2  0
 20 58  1  0
 21 22  1  0
 21 23  1  0
 22 59  1  0
 22 60  1  0
 22 61  1  0
 23 24  1  0
 23 62  1  1
 24 63  1  0
 24 64  1  0
 24 65  1  0
 25 34  1  0
 25 26  1  0
 26 27  1  0
 26 66  1  0
 26 67  1  0
 27 28  1  0
 27 68  1  1
 28 29  1  0
 28 30  1  0
 28 69  1  6
 29 70  1  0
 29 71  1  0
 29 72  1  0
 30 31  1  0
 31 32  1  0
 31 33  2  3
 32 73  1  0
 32 74  1  0
 32 75  1  0
 33 34  1  0
 33 76  1  0
 34 35  2  0
M  END
>  <i_m_ct_stereo_status>  (231) 
1

>  <s_m_source_file>  (231) 
/var/tmp/pbs.5076255.sched01/tmpk9_hntje/1089a46f3po.sdf

>  <i_m_source_file_index>  (231) 
4

>  <i_lp_mmshare_version>  (231) 
48012

>  <i_f3d_flags>  (231) 
0

>  <s_epik_input>  (231) 
W0NIM11DKD1PKVtDQEhdKFtDSDJdMSlbQ0BAXTEyW0NAQEhdM1tDSDJdTihDKD1PKS9bQ0hdPUMoW0NIM10pXE9bQ0BASF0zW0NIM10pQ1wyPUMoXFtDSDNdKS9bQ0hdPVtDSF0vQyhbQ0gzXSk9W0NIXS9bQ0hdPUMoXFtDSDNdKVtDQEBIXTRbQ0gyXVtDSF09QyhbQ0gzXSlbQ0BIXTRbQ0gzXQ==

>  <s_epik_cmdline>  (231) 
J2VwaWtfcHl0aG9uJywgJy1waHQnLCAnMi4wJywgJy1waCcsICc3LjAnLCAnLXRuJywgJzgnLCAnLW1hJywgJzIwMCcsICctaW1hZScsICc8aW5maWxlLm1hZT4nLCAnLW9tYWUnLCAnPG91dGZpbGUubWFlPic=

>  <r_lp_tautomer_probability>  (231) 
1

>  <r_epik_Ionization_Penalty>  (231) 
1.49479e-07

>  <r_epik_Ionization_Penalty_Charging>  (231) 
0

>  <r_epik_Ionization_Penalty_Neutral>  (231) 
1.49479e-07

>  <r_epik_State_Penalty>  (231) 
-0

>  <r_epik_Charging_Adjusted_Penalty>  (231) 
0

>  <i_epik_Tot_Q>  (231) 
0

>  <i_epik_Tot_abs_Q>  (231) 
0

>  <s_lp_Force_Field>  (231) 
OPLS3e

>  <r_lp_Energy>  (231) 
68.0874

>  <b_lp_Chiralities_Consistent>  (231) 
1

>  <s_lp_Variant>  (231) 
69:0-7

>  <s_i_glide_gridfile>  (231) 
pfpi4k_grid

>  <i_i_glide_lignum>  (231) 
4

>  <i_i_glide_rotatable_bonds>  (231) 
5

>  <r_i_docking_score>  (231) 
-2.10546

>  <r_i_glide_ligand_efficiency>  (231) 
-0.0601559

>  <r_i_glide_ligand_efficiency_sa>  (231) 
-0.196774

>  <r_i_glide_ligand_efficiency_ln>  (231) 
-0.462195

>  <r_i_glide_gscore>  (231) 
-2.10546

>  <r_i_glide_lipo>  (231) 
-0.202731

>  <r_i_glide_hbond>  (231) 
-0.158613

>  <r_i_glide_metal>  (231) 
-0

>  <r_i_glide_rewards>  (231) 
-0.172208

>  <r_i_glide_evdw>  (231) 
-28.9154

>  <r_i_glide_ecoul>  (231) 
-2.96122

>  <r_i_glide_erotb>  (231) 
0.357898

>  <r_i_glide_esite>  (231) 
-0.0398515

>  <r_i_glide_emodel>  (231) 
-31.0949

>  <r_i_glide_energy>  (231) 
-31.8766

>  <r_i_glide_einternal>  (231) 
9.1597

>  <r_i_glide_intrahb_reward>  (231) 
-0

>  <i_i_glide_confnum>  (231) 
3

>  <i_i_glide_posenum>  (231) 
31

>  <r_i_glide_eff_state_penalty>  (231) 
0

>  <ligand_id>  (231) 
69

>  <original_smiles>  (231) 
CC(=O)C1CC12C(=C(C)C=CC(C)=CC=C(C)C1CC=C(C)C1C)N1CC2C(C)OC(C)=CC1=O

>  <smiles>  (231) 
[H]C(=C([H])C(=C1N2C(=O)C([H])=C(C([H])([H])[H])OC([H])(C([H])([H])[H])C([H])(C2([H])[H])C12C([H])([H])C2([H])C(=O)C([H])([H])[H])C([H])([H])[H])C(=C([H])C([H])=C(C([H])([H])[H])C1([H])C([H])([H])C([H])=C(C([H])([H])[H])C1([H])C([H])([H])[H])C([H])([H])[H]

$$$$
69:6:1
     RDKit          3D

 76 79  0  0  1  0  0  0  0  0999 V2000
   -0.4082    2.1225    6.3450 C   0  0  0  0  0  0  0  0  0  0  0  0
   -0.6731    0.6406    6.5986 C   0  0  0  0  0  0  0  0  0  0  0  0
   -1.7896    0.1618    6.3662 O   0  0  0  0  0  0  0  0  0  0  0  0
    0.4371   -0.2513    7.1003 C   0  0  2  0  0  0  0  0  0  0  0  0
    1.8545    0.2902    7.1382 C   0  0  0  0  0  0  0  0  0  0  0  0
    1.4886   -0.7616    6.0885 C   0  0  1  0  0  0  0  0  0  0  0  0
    1.9583   -2.1812    6.1319 C   0  0  0  0  0  0  0  0  0  0  0  0
    2.1165   -3.1181    7.1204 C   0  0  0  0  0  0  0  0  0  0  0  0
    1.8209   -2.8063    8.5880 C   0  0  0  0  0  0  0  0  0  0  0  0
    2.5112   -4.4882    6.8352 C   0  0  0  0  0  0  0  0  0  0  0  0
    1.7740   -5.4972    6.3178 C   0  0  0  0  0  0  0  0  0  0  0  0
    0.3490   -5.5412    5.9714 C   0  0  0  0  0  0  0  0  0  0  0  0
   -0.6127   -4.4979    6.5023 C   0  0  0  0  0  0  0  0  0  0  0  0
   -0.1661   -6.5228    5.1984 C   0  0  0  0  0  0  0  0  0  0  0  0
    0.5548   -7.6444    4.6074 C   0  0  0  0  0  0  0  0  0  0  0  0
    0.0634   -8.5402    3.7175 C   0  0  0  0  0  0  0  0  0  0  0  0
   -1.3701   -8.5330    3.1924 C   0  0  0  0  0  0  0  0  0  0  0  0
    0.9193   -9.6567    3.0985 C   0  0  2  0  0  0  0  0  0  0  0  0
    0.8204  -10.9858    3.8921 C   0  0  0  0  0  0  0  0  0  0  0  0
    2.2517  -11.3824    4.1307 C   0  0  0  0  0  0  0  0  0  0  0  0
    3.1268  -10.5297    3.6288 C   0  0  0  0  0  0  0  0  0  0  0  0
    4.6291  -10.6017    3.6939 C   0  0  0  0  0  0  0  0  0  0  0  0
    2.4509   -9.3481    2.9060 C   0  0  1  0  0  0  0  0  0  0  0  0
    2.8499   -9.2882    1.4356 C   0  0  0  0  0  0  0  0  0  0  0  0
    2.1706   -2.4803    4.7383 N   0  0  0  0  0  0  0  0  0  0  0  0
    1.1384   -1.7671    4.0209 C   0  0  0  0  0  0  0  0  0  0  0  0
    1.3527   -0.3910    4.6015 C   0  0  2  0  0  0  0  0  0  0  0  0
    2.5806    0.3526    3.9851 C   0  0  1  0  0  0  0  0  0  0  0  0
    3.9192    0.5086    4.7390 C   0  0  0  0  0  0  0  0  0  0  0  0
    2.7875    0.0274    2.6184 O   0  0  0  0  0  0  0  0  0  0  0  0
    3.3787   -1.1488    2.1727 C   0  0  0  0  0  0  0  0  0  0  0  0
    3.6788   -0.9868    0.7053 C   0  0  0  0  0  0  0  0  0  0  0  0
    3.6408   -2.3127    2.8324 C   0  0  0  0  0  0  0  0  0  0  0  0
    3.4152   -2.7128    4.2343 C   0  0  0  0  0  0  0  0  0  0  0  0
    4.3170   -3.2032    4.9025 O   0  0  0  0  0  0  0  0  0  0  0  0
   -0.1019    2.6189    7.2691 H   0  0  0  0  0  0  0  0  0  0  0  0
   -1.2749    2.6314    5.9337 H   0  0  0  0  0  0  0  0  0  0  0  0
    0.4020    2.2352    5.6218 H   0  0  0  0  0  0  0  0  0  0  0  0
    0.1673   -0.8943    7.9347 H   0  0  0  0  0  0  0  0  0  0  0  0
    2.0242    1.3108    6.7880 H   0  0  0  0  0  0  0  0  0  0  0  0
    2.4890    0.0139    7.9701 H   0  0  0  0  0  0  0  0  0  0  0  0
    2.3380   -3.5237    9.2267 H   0  0  0  0  0  0  0  0  0  0  0  0
    0.7604   -2.9168    8.8022 H   0  0  0  0  0  0  0  0  0  0  0  0
    2.1221   -1.8131    8.9004 H   0  0  0  0  0  0  0  0  0  0  0  0
    3.5459   -4.7234    7.0453 H   0  0  0  0  0  0  0  0  0  0  0  0
    2.3557   -6.3921    6.1850 H   0  0  0  0  0  0  0  0  0  0  0  0
   -0.3801   -4.2422    7.5275 H   0  0  0  0  0  0  0  0  0  0  0  0
   -1.6385   -4.8697    6.4981 H   0  0  0  0  0  0  0  0  0  0  0  0
   -0.5833   -3.6034    5.8811 H   0  0  0  0  0  0  0  0  0  0  0  0
   -1.2279   -6.4662    5.0272 H   0  0  0  0  0  0  0  0  0  0  0  0
    1.5699   -7.8012    4.9212 H   0  0  0  0  0  0  0  0  0  0  0  0
   -1.3891   -8.2443    2.1422 H   0  0  0  0  0  0  0  0  0  0  0  0
   -2.0429   -7.8825    3.7422 H   0  0  0  0  0  0  0  0  0  0  0  0
   -1.7847   -9.5404    3.2649 H   0  0  0  0  0  0  0  0  0  0  0  0
    0.4955   -9.8383    2.1111 H   0  0  0  0  0  0  0  0  0  0  0  0
    0.2983  -10.8793    4.8378 H   0  0  0  0  0  0  0  0  0  0  0  0
    0.3206  -11.7596    3.3149 H   0  0  0  0  0  0  0  0  0  0  0  0
    2.5051  -12.2860    4.6709 H   0  0  0  0  0  0  0  0  0  0  0  0
    5.0426   -9.7130    4.1712 H   0  0  0  0  0  0  0  0  0  0  0  0
    5.0557  -10.6843    2.6935 H   0  0  0  0  0  0  0  0  0  0  0  0
    4.9471  -11.4783    4.2669 H   0  0  0  0  0  0  0  0  0  0  0  0
    2.7978   -8.4404    3.3710 H   0  0  0  0  0  0  0  0  0  0  0  0
    3.9085   -9.0832    1.3135 H   0  0  0  0  0  0  0  0  0  0  0  0
    2.2986   -8.5070    0.9184 H   0  0  0  0  0  0  0  0  0  0  0  0
    2.6338  -10.2278    0.9398 H   0  0  0  0  0  0  0  0  0  0  0  0
    1.1005   -1.8492    2.9345 H   0  0  0  0  0  0  0  0  0  0  0  0
    0.1667   -2.1492    4.3486 H   0  0  0  0  0  0  0  0  0  0  0  0
    0.4728    0.1810    4.3396 H   0  0  0  0  0  0  0  0  0  0  0  0
    2.2293    1.3863    3.9165 H   0  0  0  0  0  0  0  0  0  0  0  0
    3.8382    1.2052    5.5708 H   0  0  0  0  0  0  0  0  0  0  0  0
    4.6683    0.9385    4.0731 H   0  0  0  0  0  0  0  0  0  0  0  0
    4.3234   -0.4192    5.1345 H   0  0  0  0  0  0  0  0  0  0  0  0
    4.1043   -1.8810    0.2654 H   0  0  0  0  0  0  0  0  0  0  0  0
    4.3647   -0.1572    0.5555 H   0  0  0  0  0  0  0  0  0  0  0  0
    2.7628   -0.7486    0.1695 H   0  0  0  0  0  0  0  0  0  0  0  0
    4.1050   -3.0759    2.2207 H   0  0  0  0  0  0  0  0  0  0  0  0
  1  2  1  0
  1 36  1  0
  1 37  1  0
  1 38  1  0
  2  3  2  0
  2  4  1  0
  4  6  1  0
  4  5  1  0
  4 39  1  1
  6  5  1  1
  5 40  1  0
  5 41  1  0
  6 27  1  0
  6  7  1  0
  7  8  2  3
  7 25  1  0
  8  9  1  0
  8 10  1  0
  9 42  1  0
  9 43  1  0
  9 44  1  0
 10 11  2  3
 10 45  1  0
 11 12  1  0
 11 46  1  0
 12 13  1  0
 12 14  2  3
 13 47  1  0
 13 48  1  0
 13 49  1  0
 14 15  1  0
 14 50  1  0
 15 16  2  3
 15 51  1  0
 16 17  1  0
 16 18  1  0
 17 52  1  0
 17 53  1  0
 17 54  1  0
 18 23  1  0
 18 19  1  0
 18 55  1  6
 19 20  1  0
 19 56  1  0
 19 57  1  0
 20 21  2  0
 20 58  1  0
 21 22  1  0
 21 23  1  0
 22 59  1  0
 22 60  1  0
 22 61  1  0
 23 24  1  0
 23 62  1  1
 24 63  1  0
 24 64  1  0
 24 65  1  0
 25 34  1  0
 25 26  1  0
 26 27  1  0
 26 66  1  0
 26 67  1  0
 27 28  1  0
 27 68  1  1
 28 29  1  0
 28 30  1  0
 28 69  1  6
 29 70  1  0
 29 71  1  0
 29 72  1  0
 30 31  1  0
 31 32  1  0
 31 33  2  3
 32 73  1  0
 32 74  1  0
 32 75  1  0
 33 34  1  0
 33 76  1  0
 34 35  2  0
M  END
>  <i_m_ct_stereo_status>  (232) 
1

>  <s_m_source_file>  (232) 
/var/tmp/pbs.5076255.sched01/tmpk9_hntje/1089a46f3po.sdf

>  <i_m_source_file_index>  (232) 
4

>  <i_lp_mmshare_version>  (232) 
48012

>  <i_f3d_flags>  (232) 
0

>  <s_epik_input>  (232) 
W0NIM11DKD1PKVtDQEhdKFtDSDJdMSlbQ0BAXTEyW0NAQEhdM1tDSDJdTihDKD1PKS9bQ0hdPUMoW0NIM10pXE9bQ0BASF0zW0NIM10pQ1wyPUMoXFtDSDNdKS9bQ0hdPVtDSF0vQyhbQ0gzXSk9W0NIXS9bQ0hdPUMoXFtDSDNdKVtDQEBIXTRbQ0gyXVtDSF09QyhbQ0gzXSlbQ0BIXTRbQ0gzXQ==

>  <s_epik_cmdline>  (232) 
J2VwaWtfcHl0aG9uJywgJy1waHQnLCAnMi4wJywgJy1waCcsICc3LjAnLCAnLXRuJywgJzgnLCAnLW1hJywgJzIwMCcsICctaW1hZScsICc8aW5maWxlLm1hZT4nLCAnLW9tYWUnLCAnPG91dGZpbGUubWFlPic=

>  <r_lp_tautomer_probability>  (232) 
1

>  <r_epik_Ionization_Penalty>  (232) 
1.49479e-07

>  <r_epik_Ionization_Penalty_Charging>  (232) 
0

>  <r_epik_Ionization_Penalty_Neutral>  (232) 
1.49479e-07

>  <r_epik_State_Penalty>  (232) 
-0

>  <r_epik_Charging_Adjusted_Penalty>  (232) 
0

>  <i_epik_Tot_Q>  (232) 
0

>  <i_epik_Tot_abs_Q>  (232) 
0

>  <s_lp_Force_Field>  (232) 
OPLS3e

>  <r_lp_Energy>  (232) 
68.0874

>  <b_lp_Chiralities_Consistent>  (232) 
1

>  <s_lp_Variant>  (232) 
69:0-7

>  <s_i_glide_gridfile>  (232) 
pfpi4k_grid

>  <i_i_glide_lignum>  (232) 
4

>  <i_i_glide_rotatable_bonds>  (232) 
5

>  <r_i_docking_score>  (232) 
-1.9962

>  <r_i_glide_ligand_efficiency>  (232) 
-0.0570342

>  <r_i_glide_ligand_efficiency_sa>  (232) 
-0.186563

>  <r_i_glide_ligand_efficiency_ln>  (232) 
-0.43821

>  <r_i_glide_gscore>  (232) 
-1.9962

>  <r_i_glide_lipo>  (232) 
-0.0727456

>  <r_i_glide_hbond>  (232) 
-0.16

>  <r_i_glide_metal>  (232) 
-0

>  <r_i_glide_rewards>  (232) 
-0.16594

>  <r_i_glide_evdw>  (232) 
-28.004

>  <r_i_glide_ecoul>  (232) 
-3.42331

>  <r_i_glide_erotb>  (232) 
0.357898

>  <r_i_glide_esite>  (232) 
-0.0417137

>  <r_i_glide_emodel>  (232) 
-30.4438

>  <r_i_glide_energy>  (232) 
-31.4273

>  <r_i_glide_einternal>  (232) 
8.91158

>  <r_i_glide_intrahb_reward>  (232) 
-0

>  <i_i_glide_confnum>  (232) 
3

>  <i_i_glide_posenum>  (232) 
27

>  <r_i_glide_eff_state_penalty>  (232) 
0

>  <ligand_id>  (232) 
69

>  <original_smiles>  (232) 
CC(=O)C1CC12C(=C(C)C=CC(C)=CC=C(C)C1CC=C(C)C1C)N1CC2C(C)OC(C)=CC1=O

>  <smiles>  (232) 
[H]C(=C([H])C(=C1N2C(=O)C([H])=C(C([H])([H])[H])OC([H])(C([H])([H])[H])C([H])(C2([H])[H])C12C([H])([H])C2([H])C(=O)C([H])([H])[H])C([H])([H])[H])C(=C([H])C([H])=C(C([H])([H])[H])C1([H])C([H])([H])C([H])=C(C([H])([H])[H])C1([H])C([H])([H])[H])C([H])([H])[H]

$$$$
69:6:2
     RDKit          3D

 76 79  0  0  1  0  0  0  0  0999 V2000
    1.4540    2.4546    2.9051 C   0  0  0  0  0  0  0  0  0  0  0  0
    1.0856    1.0581    3.3795 C   0  0  0  0  0  0  0  0  0  0  0  0
    0.0037    0.5561    3.0567 O   0  0  0  0  0  0  0  0  0  0  0  0
    2.0516    0.2898    4.2504 C   0  0  2  0  0  0  0  0  0  0  0  0
    3.5345    0.5070    4.0444 C   0  0  0  0  0  0  0  0  0  0  0  0
    2.9092   -0.8075    3.5927 C   0  0  1  0  0  0  0  0  0  0  0  0
    3.1174   -2.1413    4.2742 C   0  0  0  0  0  0  0  0  0  0  0  0
    3.1652   -2.5427    5.5832 C   0  0  0  0  0  0  0  0  0  0  0  0
    3.0352   -1.5660    6.7453 C   0  0  0  0  0  0  0  0  0  0  0  0
    3.2858   -3.9485    5.9558 C   0  0  0  0  0  0  0  0  0  0  0  0
    2.3535   -4.9190    5.8867 C   0  0  0  0  0  0  0  0  0  0  0  0
    0.9394   -4.8265    5.5222 C   0  0  0  0  0  0  0  0  0  0  0  0
    0.1323   -3.6026    5.9045 C   0  0  0  0  0  0  0  0  0  0  0  0
    0.3019   -5.8421    4.9023 C   0  0  0  0  0  0  0  0  0  0  0  0
    0.8974   -7.1022    4.4841 C   0  0  0  0  0  0  0  0  0  0  0  0
    0.2878   -8.0764    3.7575 C   0  0  0  0  0  0  0  0  0  0  0  0
   -1.1614   -8.0158    3.2855 C   0  0  0  0  0  0  0  0  0  0  0  0
    1.0071   -9.3535    3.2987 C   0  0  2  0  0  0  0  0  0  0  0  0
    0.7471  -10.5513    4.2465 C   0  0  0  0  0  0  0  0  0  0  0  0
    2.1189  -11.0798    4.5609 C   0  0  0  0  0  0  0  0  0  0  0  0
    3.0868  -10.4026    3.9637 C   0  0  0  0  0  0  0  0  0  0  0  0
    4.5743  -10.6484    4.0750 C   0  0  0  0  0  0  0  0  0  0  0  0
    2.5613   -9.2635    3.0995 C   0  0  1  0  0  0  0  0  0  0  0  0
    2.9656   -9.4251    1.6348 C   0  0  0  0  0  0  0  0  0  0  0  0
    3.1673   -3.0395    3.1735 N   0  0  0  0  0  0  0  0  0  0  0  0
    2.2237   -2.5347    2.1999 C   0  0  0  0  0  0  0  0  0  0  0  0
    2.7358   -1.1165    2.0951 C   0  0  2  0  0  0  0  0  0  0  0  0
    4.0265   -0.9858    1.2241 C   0  0  1  0  0  0  0  0  0  0  0  0
    5.4232   -0.7913    1.8462 C   0  0  0  0  0  0  0  0  0  0  0  0
    4.0684   -1.9218    0.1510 O   0  0  0  0  0  0  0  0  0  0  0  0
    4.3920   -3.2622    0.2951 C   0  0  0  0  0  0  0  0  0  0  0  0
    4.5997   -3.8325   -1.0875 C   0  0  0  0  0  0  0  0  0  0  0  0
    4.4894   -4.0398    1.4116 C   0  0  0  0  0  0  0  0  0  0  0  0
    4.3008   -3.7219    2.8383 C   0  0  0  0  0  0  0  0  0  0  0  0
    5.1449   -4.0362    3.6705 O   0  0  0  0  0  0  0  0  0  0  0  0
    1.5888    3.1292    3.7514 H   0  0  0  0  0  0  0  0  0  0  0  0
    0.6761    2.8555    2.2564 H   0  0  0  0  0  0  0  0  0  0  0  0
    2.3750    2.4374    2.3199 H   0  0  0  0  0  0  0  0  0  0  0  0
    1.7168    0.1307    5.2751 H   0  0  0  0  0  0  0  0  0  0  0  0
    3.8348    1.2102    3.2684 H   0  0  0  0  0  0  0  0  0  0  0  0
    4.1828    0.5153    4.9150 H   0  0  0  0  0  0  0  0  0  0  0  0
    3.4707   -1.9981    7.6459 H   0  0  0  0  0  0  0  0  0  0  0  0
    1.9840   -1.3828    6.9597 H   0  0  0  0  0  0  0  0  0  0  0  0
    3.5317   -0.6137    6.5783 H   0  0  0  0  0  0  0  0  0  0  0  0
    4.2636   -4.2486    6.3034 H   0  0  0  0  0  0  0  0  0  0  0  0
    2.7136   -5.8900    6.1822 H   0  0  0  0  0  0  0  0  0  0  0  0
    0.4329   -3.2311    6.8851 H   0  0  0  0  0  0  0  0  0  0  0  0
   -0.9275   -3.8476    5.9673 H   0  0  0  0  0  0  0  0  0  0  0  0
    0.2519   -2.8108    5.1642 H   0  0  0  0  0  0  0  0  0  0  0  0
   -0.7479   -5.6907    4.7152 H   0  0  0  0  0  0  0  0  0  0  0  0
    1.9074   -7.2841    4.7919 H   0  0  0  0  0  0  0  0  0  0  0  0
   -1.2060   -7.8976    2.2016 H   0  0  0  0  0  0  0  0  0  0  0  0
   -1.7508   -7.2219    3.7366 H   0  0  0  0  0  0  0  0  0  0  0  0
   -1.6683   -8.9544    3.5340 H   0  0  0  0  0  0  0  0  0  0  0  0
    0.5628   -9.6102    2.3348 H   0  0  0  0  0  0  0  0  0  0  0  0
    0.2330  -10.2682    5.1611 H   0  0  0  0  0  0  0  0  0  0  0  0
    0.1637  -11.3335    3.7621 H   0  0  0  0  0  0  0  0  0  0  0  0
    2.2577  -11.9284    5.2230 H   0  0  0  0  0  0  0  0  0  0  0  0
    5.0838   -9.7571    4.4445 H   0  0  0  0  0  0  0  0  0  0  0  0
    4.9911  -10.9031    3.1009 H   0  0  0  0  0  0  0  0  0  0  0  0
    4.7819  -11.4721    4.7609 H   0  0  0  0  0  0  0  0  0  0  0  0
    3.0169   -8.3465    3.4454 H   0  0  0  0  0  0  0  0  0  0  0  0
    4.0415   -9.3667    1.5026 H   0  0  0  0  0  0  0  0  0  0  0  0
    2.5092   -8.6586    1.0107 H   0  0  0  0  0  0  0  0  0  0  0  0
    2.6373  -10.3865    1.2661 H   0  0  0  0  0  0  0  0  0  0  0  0
    2.0983   -3.0791    1.2652 H   0  0  0  0  0  0  0  0  0  0  0  0
    1.2333   -2.5361    2.6641 H   0  0  0  0  0  0  0  0  0  0  0  0
    1.9613   -0.5508    1.5882 H   0  0  0  0  0  0  0  0  0  0  0  0
    3.8651   -0.0434    0.6937 H   0  0  0  0  0  0  0  0  0  0  0  0
    5.5309    0.1932    2.2910 H   0  0  0  0  0  0  0  0  0  0  0  0
    6.1872   -0.8492    1.0711 H   0  0  0  0  0  0  0  0  0  0  0  0
    5.6791   -1.5082    2.6207 H   0  0  0  0  0  0  0  0  0  0  0  0
    4.8228   -4.8962   -1.0692 H   0  0  0  0  0  0  0  0  0  0  0  0
    5.4176   -3.3160   -1.5816 H   0  0  0  0  0  0  0  0  0  0  0  0
    3.7061   -3.6857   -1.6872 H   0  0  0  0  0  0  0  0  0  0  0  0
    4.7580   -5.0690    1.2178 H   0  0  0  0  0  0  0  0  0  0  0  0
  1  2  1  0
  1 36  1  0
  1 37  1  0
  1 38  1  0
  2  3  2  0
  2  4  1  0
  4  6  1  0
  4  5  1  0
  4 39  1  1
  6  5  1  6
  5 40  1  0
  5 41  1  0
  6 27  1  0
  6  7  1  0
  7  8  2  3
  7 25  1  0
  8  9  1  0
  8 10  1  0
  9 42  1  0
  9 43  1  0
  9 44  1  0
 10 11  2  3
 10 45  1  0
 11 12  1  0
 11 46  1  0
 12 13  1  0
 12 14  2  3
 13 47  1  0
 13 48  1  0
 13 49  1  0
 14 15  1  0
 14 50  1  0
 15 16  2  3
 15 51  1  0
 16 17  1  0
 16 18  1  0
 17 52  1  0
 17 53  1  0
 17 54  1  0
 18 23  1  0
 18 19  1  0
 18 55  1  6
 19 20  1  0
 19 56  1  0
 19 57  1  0
 20 21  2  0
 20 58  1  0
 21 22  1  0
 21 23  1  0
 22 59  1  0
 22 60  1  0
 22 61  1  0
 23 24  1  0
 23 62  1  1
 24 63  1  0
 24 64  1  0
 24 65  1  0
 25 34  1  0
 25 26  1  0
 26 27  1  0
 26 66  1  0
 26 67  1  0
 27 28  1  0
 27 68  1  6
 28 29  1  0
 28 30  1  0
 28 69  1  6
 29 70  1  0
 29 71  1  0
 29 72  1  0
 30 31  1  0
 31 32  1  0
 31 33  2  3
 32 73  1  0
 32 74  1  0
 32 75  1  0
 33 34  1  0
 33 76  1  0
 34 35  2  0
M  END
>  <i_m_ct_stereo_status>  (233) 
1

>  <s_m_source_file>  (233) 
/var/tmp/pbs.5076255.sched01/tmpk9_hntje/1089a46f3po.sdf

>  <i_m_source_file_index>  (233) 
4

>  <i_lp_mmshare_version>  (233) 
48012

>  <i_f3d_flags>  (233) 
0

>  <s_epik_input>  (233) 
W0NIM11DKD1PKVtDQEhdKFtDSDJdMSlbQ0BAXTEyW0NAQEhdM1tDSDJdTihDKD1PKS9bQ0hdPUMoW0NIM10pXE9bQ0BASF0zW0NIM10pQ1wyPUMoXFtDSDNdKS9bQ0hdPVtDSF0vQyhbQ0gzXSk9W0NIXS9bQ0hdPUMoXFtDSDNdKVtDQEBIXTRbQ0gyXVtDSF09QyhbQ0gzXSlbQ0BIXTRbQ0gzXQ==

>  <s_epik_cmdline>  (233) 
J2VwaWtfcHl0aG9uJywgJy1waHQnLCAnMi4wJywgJy1waCcsICc3LjAnLCAnLXRuJywgJzgnLCAnLW1hJywgJzIwMCcsICctaW1hZScsICc8aW5maWxlLm1hZT4nLCAnLW9tYWUnLCAnPG91dGZpbGUubWFlPic=

>  <r_lp_tautomer_probability>  (233) 
1

>  <r_epik_Ionization_Penalty>  (233) 
1.49479e-07

>  <r_epik_Ionization_Penalty_Charging>  (233) 
0

>  <r_epik_Ionization_Penalty_Neutral>  (233) 
1.49479e-07

>  <r_epik_State_Penalty>  (233) 
-0

>  <r_epik_Charging_Adjusted_Penalty>  (233) 
0

>  <i_epik_Tot_Q>  (233) 
0

>  <i_epik_Tot_abs_Q>  (233) 
0

>  <s_lp_Force_Field>  (233) 
OPLS3e

>  <r_lp_Energy>  (233) 
68.0874

>  <b_lp_Chiralities_Consistent>  (233) 
1

>  <s_lp_Variant>  (233) 
69:0-7

>  <s_i_glide_gridfile>  (233) 
pfpi4k_grid

>  <i_i_glide_lignum>  (233) 
4

>  <i_i_glide_rotatable_bonds>  (233) 
5

>  <r_i_docking_score>  (233) 
-1.65153

>  <r_i_glide_ligand_efficiency>  (233) 
-0.0471865

>  <r_i_glide_ligand_efficiency_sa>  (233) 
-0.15435

>  <r_i_glide_ligand_efficiency_ln>  (233) 
-0.362547

>  <r_i_glide_gscore>  (233) 
-1.65153

>  <r_i_glide_lipo>  (233) 
-0.163527

>  <r_i_glide_hbond>  (233) 
0

>  <r_i_glide_metal>  (233) 
-0

>  <r_i_glide_rewards>  (233) 
-0.176775

>  <r_i_glide_evdw>  (233) 
-31.2643

>  <r_i_glide_ecoul>  (233) 
-0.58854

>  <r_i_glide_erotb>  (233) 
0.357898

>  <r_i_glide_esite>  (233) 
-0.0176299

>  <r_i_glide_emodel>  (233) 
-29.5665

>  <r_i_glide_energy>  (233) 
-31.8528

>  <r_i_glide_einternal>  (233) 
10.2294

>  <r_i_glide_intrahb_reward>  (233) 
-0

>  <i_i_glide_confnum>  (233) 
1

>  <i_i_glide_posenum>  (233) 
32

>  <r_i_glide_eff_state_penalty>  (233) 
0

>  <ligand_id>  (233) 
69

>  <original_smiles>  (233) 
CC(=O)C1CC12C(=C(C)C=CC(C)=CC=C(C)C1CC=C(C)C1C)N1CC2C(C)OC(C)=CC1=O

>  <smiles>  (233) 
[H]C(=C([H])C(=C1N2C(=O)C([H])=C(C([H])([H])[H])OC([H])(C([H])([H])[H])C([H])(C2([H])[H])C12C([H])([H])C2([H])C(=O)C([H])([H])[H])C([H])([H])[H])C(=C([H])C([H])=C(C([H])([H])[H])C1([H])C([H])([H])C([H])=C(C([H])([H])[H])C1([H])C([H])([H])[H])C([H])([H])[H]

$$$$
69:8:0
     RDKit          3D

 76 79  0  0  1  0  0  0  0  0999 V2000
   -2.6136    2.5916    3.1873 C   0  0  0  0  0  0  0  0  0  0  0  0
   -1.7407    3.5053    4.0229 C   0  0  0  0  0  0  0  0  0  0  0  0
   -1.6562    4.6988    3.7478 O   0  0  0  0  0  0  0  0  0  0  0  0
   -0.9967    2.8798    5.1741 C   0  0  2  0  0  0  0  0  0  0  0  0
    0.3703    3.4210    5.5168 C   0  0  0  0  0  0  0  0  0  0  0  0
    0.2543    2.0484    4.8655 C   0  0  1  0  0  0  0  0  0  0  0  0
    0.4432    0.7144    5.5621 C   0  0  0  0  0  0  0  0  0  0  0  0
    0.1426    0.2240    6.8139 C   0  0  0  0  0  0  0  0  0  0  0  0
   -0.4453    1.0859    7.9311 C   0  0  0  0  0  0  0  0  0  0  0  0
    0.2864   -1.2108    7.0890 C   0  0  0  0  0  0  0  0  0  0  0  0
    0.1090   -1.8510    8.2681 C   0  0  0  0  0  0  0  0  0  0  0  0
    0.2609   -3.2925    8.4867 C   0  0  0  0  0  0  0  0  0  0  0  0
    0.4234   -3.7619    9.9286 C   0  0  0  0  0  0  0  0  0  0  0  0
    0.2663   -4.1535    7.4401 C   0  0  0  0  0  0  0  0  0  0  0  0
    0.4624   -5.5982    7.4775 C   0  0  0  0  0  0  0  0  0  0  0  0
    0.3751   -6.4223    6.4076 C   0  0  0  0  0  0  0  0  0  0  0  0
    0.6829   -7.9062    6.5750 C   0  0  0  0  0  0  0  0  0  0  0  0
    0.0029   -5.9797    4.9770 C   0  0  2  0  0  0  0  0  0  0  0  0
   -1.0620   -6.8698    4.2759 C   0  0  0  0  0  0  0  0  0  0  0  0
   -0.4117   -7.2537    2.9766 C   0  0  0  0  0  0  0  0  0  0  0  0
    0.8102   -6.7531    2.8339 C   0  0  0  0  0  0  0  0  0  0  0  0
    1.7438   -6.9844    1.6659 C   0  0  0  0  0  0  0  0  0  0  0  0
    1.2341   -5.8986    4.0124 C   0  0  1  0  0  0  0  0  0  0  0  0
    1.5638   -4.4579    3.5834 C   0  0  0  0  0  0  0  0  0  0  0  0
    0.9975   -0.0775    4.5133 N   0  0  0  0  0  0  0  0  0  0  0  0
    0.3887    0.3540    3.2726 C   0  0  0  0  0  0  0  0  0  0  0  0
    0.6725    1.8355    3.3999 C   0  0  2  0  0  0  0  0  0  0  0  0
    2.1437    2.2139    3.0648 C   0  0  1  0  0  0  0  0  0  0  0  0
    3.1530    2.5818    4.1709 C   0  0  0  0  0  0  0  0  0  0  0  0
    2.7095    1.3761    2.0586 O   0  0  0  0  0  0  0  0  0  0  0  0
    3.1770    0.0951    2.2743 C   0  0  0  0  0  0  0  0  0  0  0  0
    3.9590   -0.3337    1.0535 C   0  0  0  0  0  0  0  0  0  0  0  0
    2.9933   -0.7525    3.3274 C   0  0  0  0  0  0  0  0  0  0  0  0
    2.2727   -0.5614    4.5905 C   0  0  0  0  0  0  0  0  0  0  0  0
    2.8143   -0.8117    5.6623 O   0  0  0  0  0  0  0  0  0  0  0  0
   -2.0324    1.7689    2.7784 H   0  0  0  0  0  0  0  0  0  0  0  0
   -3.0649    3.1261    2.3506 H   0  0  0  0  0  0  0  0  0  0  0  0
   -3.4039    2.1567    3.7998 H   0  0  0  0  0  0  0  0  0  0  0  0
   -1.6223    2.5986    6.0259 H   0  0  0  0  0  0  0  0  0  0  0  0
    0.7537    4.2325    4.8957 H   0  0  0  0  0  0  0  0  0  0  0  0
    0.6849    3.4774    6.5520 H   0  0  0  0  0  0  0  0  0  0  0  0
   -1.4717    0.7916    8.1342 H   0  0  0  0  0  0  0  0  0  0  0  0
   -0.4484    2.1514    7.7346 H   0  0  0  0  0  0  0  0  0  0  0  0
    0.1307    0.9405    8.8468 H   0  0  0  0  0  0  0  0  0  0  0  0
    0.5540   -1.8131    6.2414 H   0  0  0  0  0  0  0  0  0  0  0  0
   -0.1599   -1.2627    9.1319 H   0  0  0  0  0  0  0  0  0  0  0  0
   -0.2952   -3.2599   10.5805 H   0  0  0  0  0  0  0  0  0  0  0  0
    1.4236   -3.5306   10.2878 H   0  0  0  0  0  0  0  0  0  0  0  0
    0.2696   -4.8289   10.0648 H   0  0  0  0  0  0  0  0  0  0  0  0
    0.1270   -3.7307    6.4660 H   0  0  0  0  0  0  0  0  0  0  0  0
    0.7323   -6.0630    8.4136 H   0  0  0  0  0  0  0  0  0  0  0  0
   -0.1946   -8.5257    6.4091 H   0  0  0  0  0  0  0  0  0  0  0  0
    1.0318   -8.1226    7.5828 H   0  0  0  0  0  0  0  0  0  0  0  0
    1.4584   -8.2161    5.8711 H   0  0  0  0  0  0  0  0  0  0  0  0
   -0.4478   -4.9926    4.9968 H   0  0  0  0  0  0  0  0  0  0  0  0
   -1.3641   -7.7558    4.8249 H   0  0  0  0  0  0  0  0  0  0  0  0
   -1.9716   -6.3155    4.0759 H   0  0  0  0  0  0  0  0  0  0  0  0
   -0.9112   -7.8919    2.2627 H   0  0  0  0  0  0  0  0  0  0  0  0
    2.6708   -7.4502    2.0035 H   0  0  0  0  0  0  0  0  0  0  0  0
    1.9922   -6.0454    1.1710 H   0  0  0  0  0  0  0  0  0  0  0  0
    1.2807   -7.6452    0.9288 H   0  0  0  0  0  0  0  0  0  0  0  0
    2.1179   -6.3475    4.4659 H   0  0  0  0  0  0  0  0  0  0  0  0
    2.4016   -4.4239    2.8869 H   0  0  0  0  0  0  0  0  0  0  0  0
    1.8277   -3.8298    4.4334 H   0  0  0  0  0  0  0  0  0  0  0  0
    0.7144   -3.9939    3.0882 H   0  0  0  0  0  0  0  0  0  0  0  0
    0.6901   -0.1229    2.3389 H   0  0  0  0  0  0  0  0  0  0  0  0
   -0.6843    0.1568    3.3430 H   0  0  0  0  0  0  0  0  0  0  0  0
    0.0743    2.3560    2.6624 H   0  0  0  0  0  0  0  0  0  0  0  0
    2.0345    3.1587    2.5269 H   0  0  0  0  0  0  0  0  0  0  0  0
    2.8705    3.4854    4.7065 H   0  0  0  0  0  0  0  0  0  0  0  0
    4.1078    2.8126    3.7098 H   0  0  0  0  0  0  0  0  0  0  0  0
    3.3362    1.8006    4.9020 H   0  0  0  0  0  0  0  0  0  0  0  0
    4.3392   -1.3455    1.1390 H   0  0  0  0  0  0  0  0  0  0  0  0
    4.7954    0.3411    0.8953 H   0  0  0  0  0  0  0  0  0  0  0  0
    3.3213   -0.2823    0.1755 H   0  0  0  0  0  0  0  0  0  0  0  0
    3.4750   -1.7158    3.2279 H   0  0  0  0  0  0  0  0  0  0  0  0
  1  2  1  0
  1 36  1  0
  1 37  1  0
  1 38  1  0
  2  3  2  0
  2  4  1  0
  4  6  1  0
  4  5  1  0
  4 39  1  1
  6  5  1  1
  5 40  1  0
  5 41  1  0
  6 27  1  0
  6  7  1  0
  7  8  2  3
  7 25  1  0
  8  9  1  0
  8 10  1  0
  9 42  1  0
  9 43  1  0
  9 44  1  0
 10 11  2  3
 10 45  1  0
 11 12  1  0
 11 46  1  0
 12 13  1  0
 12 14  2  3
 13 47  1  0
 13 48  1  0
 13 49  1  0
 14 15  1  0
 14 50  1  0
 15 16  2  3
 15 51  1  0
 16 17  1  0
 16 18  1  0
 17 52  1  0
 17 53  1  0
 17 54  1  0
 18 23  1  0
 18 19  1  0
 18 55  1  1
 19 20  1  0
 19 56  1  0
 19 57  1  0
 20 21  2  0
 20 58  1  0
 21 22  1  0
 21 23  1  0
 22 59  1  0
 22 60  1  0
 22 61  1  0
 23 24  1  0
 23 62  1  1
 24 63  1  0
 24 64  1  0
 24 65  1  0
 25 34  1  0
 25 26  1  0
 26 27  1  0
 26 66  1  0
 26 67  1  0
 27 28  1  0
 27 68  1  6
 28 29  1  0
 28 30  1  0
 28 69  1  6
 29 70  1  0
 29 71  1  0
 29 72  1  0
 30 31  1  0
 31 32  1  0
 31 33  2  3
 32 73  1  0
 32 74  1  0
 32 75  1  0
 33 34  1  0
 33 76  1  0
 34 35  2  0
M  END
>  <i_m_ct_stereo_status>  (234) 
1

>  <s_m_source_file>  (234) 
/var/tmp/pbs.5076255.sched01/tmpk9_hntje/1089a46f3po.sdf

>  <i_m_source_file_index>  (234) 
6

>  <i_lp_mmshare_version>  (234) 
48012

>  <i_f3d_flags>  (234) 
0

>  <s_epik_input>  (234) 
W0NIM11DKD1PKVtDQEhdKFtDSDJdMSlbQ0BAXTEyW0NAQEhdM1tDSDJdTihDKD1PKS9bQ0hdPUMoW0NIM10pXE9bQ0BASF0zW0NIM10pQ1wyPUMoXFtDSDNdKS9bQ0hdPVtDSF0vQyhbQ0gzXSk9W0NIXS9bQ0hdPUMoXFtDSDNdKVtDQEBIXTRbQ0gyXVtDSF09QyhbQ0gzXSlbQ0BIXTRbQ0gzXQ==

>  <s_epik_cmdline>  (234) 
J2VwaWtfcHl0aG9uJywgJy1waHQnLCAnMi4wJywgJy1waCcsICc3LjAnLCAnLXRuJywgJzgnLCAnLW1hJywgJzIwMCcsICctaW1hZScsICc8aW5maWxlLm1hZT4nLCAnLW9tYWUnLCAnPG91dGZpbGUubWFlPic=

>  <r_lp_tautomer_probability>  (234) 
1

>  <r_epik_Ionization_Penalty>  (234) 
1.49479e-07

>  <r_epik_Ionization_Penalty_Charging>  (234) 
0

>  <r_epik_Ionization_Penalty_Neutral>  (234) 
1.49479e-07

>  <r_epik_State_Penalty>  (234) 
-0

>  <r_epik_Charging_Adjusted_Penalty>  (234) 
0

>  <i_epik_Tot_Q>  (234) 
0

>  <i_epik_Tot_abs_Q>  (234) 
0

>  <s_lp_Force_Field>  (234) 
OPLS3e

>  <r_lp_Energy>  (234) 
61.2438

>  <b_lp_Chiralities_Consistent>  (234) 
1

>  <s_lp_Variant>  (234) 
69:0-9

>  <s_i_glide_gridfile>  (234) 
pfpi4k_grid

>  <i_i_glide_lignum>  (234) 
6

>  <i_i_glide_rotatable_bonds>  (234) 
5

>  <r_i_docking_score>  (234) 
-2.18714

>  <r_i_glide_ligand_efficiency>  (234) 
-0.0624898

>  <r_i_glide_ligand_efficiency_sa>  (234) 
-0.204408

>  <r_i_glide_ligand_efficiency_ln>  (234) 
-0.480127

>  <r_i_glide_gscore>  (234) 
-2.18714

>  <r_i_glide_lipo>  (234) 
-0.102976

>  <r_i_glide_hbond>  (234) 
-0.16

>  <r_i_glide_metal>  (234) 
-0

>  <r_i_glide_rewards>  (234) 
-0.16594

>  <r_i_glide_evdw>  (234) 
-26.279

>  <r_i_glide_ecoul>  (234) 
-4.98546

>  <r_i_glide_erotb>  (234) 
0.357898

>  <r_i_glide_esite>  (234) 
-0.0543584

>  <r_i_glide_emodel>  (234) 
-33.1079

>  <r_i_glide_energy>  (234) 
-31.2645

>  <r_i_glide_einternal>  (234) 
4.68984

>  <r_i_glide_intrahb_reward>  (234) 
-0

>  <i_i_glide_confnum>  (234) 
2

>  <i_i_glide_posenum>  (234) 
2

>  <r_i_glide_eff_state_penalty>  (234) 
0

>  <ligand_id>  (234) 
69

>  <original_smiles>  (234) 
CC(=O)C1CC12C(=C(C)C=CC(C)=CC=C(C)C1CC=C(C)C1C)N1CC2C(C)OC(C)=CC1=O

>  <smiles>  (234) 
[H]C(=C([H])C(=C1N2C(=O)C([H])=C(C([H])([H])[H])OC([H])(C([H])([H])[H])C([H])(C2([H])[H])C12C([H])([H])C2([H])C(=O)C([H])([H])[H])C([H])([H])[H])C(=C([H])C([H])=C(C([H])([H])[H])C1([H])C([H])([H])C([H])=C(C([H])([H])[H])C1([H])C([H])([H])[H])C([H])([H])[H]

$$$$
69:8:1
     RDKit          3D

 76 79  0  0  1  0  0  0  0  0999 V2000
   -0.5312   -9.7960    2.8538 C   0  0  0  0  0  0  0  0  0  0  0  0
   -0.6597   -8.3202    2.5008 C   0  0  0  0  0  0  0  0  0  0  0  0
   -1.7573   -7.7563    2.5539 O   0  0  0  0  0  0  0  0  0  0  0  0
    0.5763   -7.5261    2.1578 C   0  0  2  0  0  0  0  0  0  0  0  0
    1.9296   -8.0469    2.6049 C   0  0  0  0  0  0  0  0  0  0  0  0
    1.3403   -6.8275    3.3060 C   0  0  1  0  0  0  0  0  0  0  0  0
    1.8123   -5.4025    3.1322 C   0  0  0  0  0  0  0  0  0  0  0  0
    2.2717   -4.6476    2.0765 C   0  0  0  0  0  0  0  0  0  0  0  0
    2.5264   -5.2482    0.6926 C   0  0  0  0  0  0  0  0  0  0  0  0
    2.4706   -3.1975    2.2130 C   0  0  0  0  0  0  0  0  0  0  0  0
    2.8961   -2.3475    1.2543 C   0  0  0  0  0  0  0  0  0  0  0  0
    3.0849   -0.9135    1.4505 C   0  0  0  0  0  0  0  0  0  0  0  0
    4.3300   -0.2826    0.8467 C   0  0  0  0  0  0  0  0  0  0  0  0
    2.1756   -0.2126    2.1647 C   0  0  0  0  0  0  0  0  0  0  0  0
    2.2229    1.2114    2.4904 C   0  0  0  0  0  0  0  0  0  0  0  0
    1.2495    1.9234    3.1039 C   0  0  0  0  0  0  0  0  0  0  0  0
    1.4774    3.3992    3.4276 C   0  0  0  0  0  0  0  0  0  0  0  0
   -0.1110    1.3532    3.5306 C   0  0  2  0  0  0  0  0  0  0  0  0
   -1.3298    2.0806    2.9049 C   0  0  0  0  0  0  0  0  0  0  0  0
   -2.1748    2.4601    4.0887 C   0  0  0  0  0  0  0  0  0  0  0  0
   -1.6449    2.0898    5.2486 C   0  0  0  0  0  0  0  0  0  0  0  0
   -2.2106    2.3387    6.6272 C   0  0  0  0  0  0  0  0  0  0  0  0
   -0.3269    1.3484    5.0790 C   0  0  1  0  0  0  0  0  0  0  0  0
   -0.3864   -0.0716    5.6534 C   0  0  0  0  0  0  0  0  0  0  0  0
    1.5916   -4.8575    4.4405 N   0  0  0  0  0  0  0  0  0  0  0  0
    0.4029   -5.4954    4.9640 C   0  0  0  0  0  0  0  0  0  0  0  0
    0.7924   -6.9357    4.7434 C   0  0  2  0  0  0  0  0  0  0  0  0
    1.7934   -7.4747    5.8141 C   0  0  1  0  0  0  0  0  0  0  0  0
    3.2884   -7.6980    5.5017 C   0  0  0  0  0  0  0  0  0  0  0  0
    1.6015   -6.8900    7.0999 O   0  0  0  0  0  0  0  0  0  0  0  0
    2.0277   -5.6171    7.4523 C   0  0  0  0  0  0  0  0  0  0  0  0
    1.9049   -5.4779    8.9500 C   0  0  0  0  0  0  0  0  0  0  0  0
    2.4543   -4.5786    6.6783 C   0  0  0  0  0  0  0  0  0  0  0  0
    2.6398   -4.4719    5.2245 C   0  0  0  0  0  0  0  0  0  0  0  0
    3.6991   -4.0696    4.7573 O   0  0  0  0  0  0  0  0  0  0  0  0
   -0.0922  -10.3553    2.0258 H   0  0  0  0  0  0  0  0  0  0  0  0
   -1.4970  -10.2305    3.0991 H   0  0  0  0  0  0  0  0  0  0  0  0
    0.1042   -9.9265    3.7296 H   0  0  0  0  0  0  0  0  0  0  0  0
    0.5437   -7.0333    1.1861 H   0  0  0  0  0  0  0  0  0  0  0  0
    1.9586   -8.9749    3.1792 H   0  0  0  0  0  0  0  0  0  0  0  0
    2.7841   -7.9228    1.9519 H   0  0  0  0  0  0  0  0  0  0  0  0
    1.8154   -4.8557   -0.0305 H   0  0  0  0  0  0  0  0  0  0  0  0
    2.4758   -6.3279    0.6390 H   0  0  0  0  0  0  0  0  0  0  0  0
    3.5253   -4.9745    0.3502 H   0  0  0  0  0  0  0  0  0  0  0  0
    2.2535   -2.7434    3.1660 H   0  0  0  0  0  0  0  0  0  0  0  0
    3.1048   -2.7287    0.2664 H   0  0  0  0  0  0  0  0  0  0  0  0
    4.4712   -0.6497   -0.1711 H   0  0  0  0  0  0  0  0  0  0  0  0
    5.2088   -0.5411    1.4333 H   0  0  0  0  0  0  0  0  0  0  0  0
    4.2782    0.8008    0.7806 H   0  0  0  0  0  0  0  0  0  0  0  0
    1.3403   -0.7857    2.5229 H   0  0  0  0  0  0  0  0  0  0  0  0
    3.1131    1.7647    2.2438 H   0  0  0  0  0  0  0  0  0  0  0  0
    0.7825    4.0357    2.8848 H   0  0  0  0  0  0  0  0  0  0  0  0
    2.4827    3.7207    3.1611 H   0  0  0  0  0  0  0  0  0  0  0  0
    1.3379    3.6081    4.4862 H   0  0  0  0  0  0  0  0  0  0  0  0
   -0.2124    0.3276    3.1919 H   0  0  0  0  0  0  0  0  0  0  0  0
   -1.0703    2.9543    2.3162 H   0  0  0  0  0  0  0  0  0  0  0  0
   -1.8831    1.4085    2.2515 H   0  0  0  0  0  0  0  0  0  0  0  0
   -3.1135    2.9805    3.9689 H   0  0  0  0  0  0  0  0  0  0  0  0
   -1.5125    2.9165    7.2329 H   0  0  0  0  0  0  0  0  0  0  0  0
   -2.4128    1.3984    7.1372 H   0  0  0  0  0  0  0  0  0  0  0  0
   -3.1493    2.8925    6.5605 H   0  0  0  0  0  0  0  0  0  0  0  0
    0.4507    1.9041    5.5991 H   0  0  0  0  0  0  0  0  0  0  0  0
   -0.5590   -0.0555    6.7265 H   0  0  0  0  0  0  0  0  0  0  0  0
    0.5481   -0.6028    5.4805 H   0  0  0  0  0  0  0  0  0  0  0  0
   -1.1869   -0.6439    5.1905 H   0  0  0  0  0  0  0  0  0  0  0  0
    0.0576   -5.2248    5.9619 H   0  0  0  0  0  0  0  0  0  0  0  0
   -0.4360   -5.2436    4.3116 H   0  0  0  0  0  0  0  0  0  0  0  0
   -0.1116   -7.5222    4.8564 H   0  0  0  0  0  0  0  0  0  0  0  0
    1.4395   -8.4950    5.9831 H   0  0  0  0  0  0  0  0  0  0  0  0
    3.4379   -8.4589    4.7388 H   0  0  0  0  0  0  0  0  0  0  0  0
    3.7946   -8.0737    6.3913 H   0  0  0  0  0  0  0  0  0  0  0  0
    3.8202   -6.8081    5.1789 H   0  0  0  0  0  0  0  0  0  0  0  0
    2.2017   -4.4946    9.3013 H   0  0  0  0  0  0  0  0  0  0  0  0
    2.5319   -6.2211    9.4373 H   0  0  0  0  0  0  0  0  0  0  0  0
    0.8770   -5.6577    9.2560 H   0  0  0  0  0  0  0  0  0  0  0  0
    2.7250   -3.6851    7.2256 H   0  0  0  0  0  0  0  0  0  0  0  0
  1  2  1  0
  1 36  1  0
  1 37  1  0
  1 38  1  0
  2  3  2  0
  2  4  1  0
  4  6  1  0
  4  5  1  0
  4 39  1  6
  6  5  1  1
  5 40  1  0
  5 41  1  0
  6 27  1  0
  6  7  1  0
  7  8  2  3
  7 25  1  0
  8  9  1  0
  8 10  1  0
  9 42  1  0
  9 43  1  0
  9 44  1  0
 10 11  2  3
 10 45  1  0
 11 12  1  0
 11 46  1  0
 12 13  1  0
 12 14  2  3
 13 47  1  0
 13 48  1  0
 13 49  1  0
 14 15  1  0
 14 50  1  0
 15 16  2  3
 15 51  1  0
 16 17  1  0
 16 18  1  0
 17 52  1  0
 17 53  1  0
 17 54  1  0
 18 23  1  0
 18 19  1  0
 18 55  1  6
 19 20  1  0
 19 56  1  0
 19 57  1  0
 20 21  2  0
 20 58  1  0
 21 22  1  0
 21 23  1  0
 22 59  1  0
 22 60  1  0
 22 61  1  0
 23 24  1  0
 23 62  1  1
 24 63  1  0
 24 64  1  0
 24 65  1  0
 25 34  1  0
 25 26  1  0
 26 27  1  0
 26 66  1  0
 26 67  1  0
 27 28  1  0
 27 68  1  6
 28 29  1  0
 28 30  1  0
 28 69  1  1
 29 70  1  0
 29 71  1  0
 29 72  1  0
 30 31  1  0
 31 32  1  0
 31 33  2  3
 32 73  1  0
 32 74  1  0
 32 75  1  0
 33 34  1  0
 33 76  1  0
 34 35  2  0
M  END
>  <i_m_ct_stereo_status>  (235) 
1

>  <s_m_source_file>  (235) 
/var/tmp/pbs.5076255.sched01/tmpk9_hntje/1089a46f3po.sdf

>  <i_m_source_file_index>  (235) 
6

>  <i_lp_mmshare_version>  (235) 
48012

>  <i_f3d_flags>  (235) 
0

>  <s_epik_input>  (235) 
W0NIM11DKD1PKVtDQEhdKFtDSDJdMSlbQ0BAXTEyW0NAQEhdM1tDSDJdTihDKD1PKS9bQ0hdPUMoW0NIM10pXE9bQ0BASF0zW0NIM10pQ1wyPUMoXFtDSDNdKS9bQ0hdPVtDSF0vQyhbQ0gzXSk9W0NIXS9bQ0hdPUMoXFtDSDNdKVtDQEBIXTRbQ0gyXVtDSF09QyhbQ0gzXSlbQ0BIXTRbQ0gzXQ==

>  <s_epik_cmdline>  (235) 
J2VwaWtfcHl0aG9uJywgJy1waHQnLCAnMi4wJywgJy1waCcsICc3LjAnLCAnLXRuJywgJzgnLCAnLW1hJywgJzIwMCcsICctaW1hZScsICc8aW5maWxlLm1hZT4nLCAnLW9tYWUnLCAnPG91dGZpbGUubWFlPic=

>  <r_lp_tautomer_probability>  (235) 
1

>  <r_epik_Ionization_Penalty>  (235) 
1.49479e-07

>  <r_epik_Ionization_Penalty_Charging>  (235) 
0

>  <r_epik_Ionization_Penalty_Neutral>  (235) 
1.49479e-07

>  <r_epik_State_Penalty>  (235) 
-0

>  <r_epik_Charging_Adjusted_Penalty>  (235) 
0

>  <i_epik_Tot_Q>  (235) 
0

>  <i_epik_Tot_abs_Q>  (235) 
0

>  <s_lp_Force_Field>  (235) 
OPLS3e

>  <r_lp_Energy>  (235) 
61.2438

>  <b_lp_Chiralities_Consistent>  (235) 
1

>  <s_lp_Variant>  (235) 
69:0-9

>  <s_i_glide_gridfile>  (235) 
pfpi4k_grid

>  <i_i_glide_lignum>  (235) 
6

>  <i_i_glide_rotatable_bonds>  (235) 
5

>  <r_i_docking_score>  (235) 
-2.04925

>  <r_i_glide_ligand_efficiency>  (235) 
-0.0585499

>  <r_i_glide_ligand_efficiency_sa>  (235) 
-0.191521

>  <r_i_glide_ligand_efficiency_ln>  (235) 
-0.449855

>  <r_i_glide_gscore>  (235) 
-2.04925

>  <r_i_glide_lipo>  (235) 
-0.204449

>  <r_i_glide_hbond>  (235) 
0

>  <r_i_glide_metal>  (235) 
-0

>  <r_i_glide_rewards>  (235) 
-0.16594

>  <r_i_glide_evdw>  (235) 
-33.1388

>  <r_i_glide_ecoul>  (235) 
-2.18737

>  <r_i_glide_erotb>  (235) 
0.357898

>  <r_i_glide_esite>  (235) 
-0.0517075

>  <r_i_glide_emodel>  (235) 
-37.2019

>  <r_i_glide_energy>  (235) 
-35.3262

>  <r_i_glide_einternal>  (235) 
4.67578

>  <r_i_glide_intrahb_reward>  (235) 
-0

>  <i_i_glide_confnum>  (235) 
2

>  <i_i_glide_posenum>  (235) 
39

>  <r_i_glide_eff_state_penalty>  (235) 
0

>  <ligand_id>  (235) 
69

>  <original_smiles>  (235) 
CC(=O)C1CC12C(=C(C)C=CC(C)=CC=C(C)C1CC=C(C)C1C)N1CC2C(C)OC(C)=CC1=O

>  <smiles>  (235) 
[H]C(=C([H])C(=C1N2C(=O)C([H])=C(C([H])([H])[H])OC([H])(C([H])([H])[H])C([H])(C2([H])[H])C12C([H])([H])C2([H])C(=O)C([H])([H])[H])C([H])([H])[H])C(=C([H])C([H])=C(C([H])([H])[H])C1([H])C([H])([H])C([H])=C(C([H])([H])[H])C1([H])C([H])([H])[H])C([H])([H])[H]

$$$$
69:8:2
     RDKit          3D

 76 79  0  0  1  0  0  0  0  0999 V2000
   -0.0819    1.3155    2.1176 C   0  0  0  0  0  0  0  0  0  0  0  0
    1.3213    1.5568    2.6429 C   0  0  0  0  0  0  0  0  0  0  0  0
    2.0285    2.4377    2.1559 O   0  0  0  0  0  0  0  0  0  0  0  0
    1.8300    0.6222    3.7129 C   0  0  2  0  0  0  0  0  0  0  0  0
    3.2819    0.7241    4.1313 C   0  0  0  0  0  0  0  0  0  0  0  0
    2.8274   -0.4799    3.3169 C   0  0  1  0  0  0  0  0  0  0  0  0
    2.6195   -1.8837    3.8532 C   0  0  0  0  0  0  0  0  0  0  0  0
    2.1182   -2.4073    5.0223 C   0  0  0  0  0  0  0  0  0  0  0  0
    1.7460   -1.5519    6.2334 C   0  0  0  0  0  0  0  0  0  0  0  0
    1.8317   -3.8411    5.1177 C   0  0  0  0  0  0  0  0  0  0  0  0
    1.3499   -4.5258    6.1827 C   0  0  0  0  0  0  0  0  0  0  0  0
    1.1285   -5.9750    6.2310 C   0  0  0  0  0  0  0  0  0  0  0  0
    0.2331   -6.5125    7.3419 C   0  0  0  0  0  0  0  0  0  0  0  0
    1.7369   -6.7888    5.3352 C   0  0  0  0  0  0  0  0  0  0  0  0
    1.6434   -8.2407    5.2296 C   0  0  0  0  0  0  0  0  0  0  0  0
    2.2332   -8.9869    4.2664 C   0  0  0  0  0  0  0  0  0  0  0  0
    2.1056  -10.5068    4.3136 C   0  0  0  0  0  0  0  0  0  0  0  0
    3.0672   -8.4313    3.0912 C   0  0  2  0  0  0  0  0  0  0  0  0
    2.5570   -8.8533    1.6903 C   0  0  0  0  0  0  0  0  0  0  0  0
    3.7719   -9.4521    1.0344 C   0  0  0  0  0  0  0  0  0  0  0  0
    4.8463   -9.4494    1.8160 C   0  0  0  0  0  0  0  0  0  0  0  0
    6.2117  -10.0102    1.4786 C   0  0  0  0  0  0  0  0  0  0  0  0
    4.5820   -8.8151    3.1637 C   0  0  1  0  0  0  0  0  0  0  0  0
    5.4833   -7.5959    3.4052 C   0  0  0  0  0  0  0  0  0  0  0  0
    2.9916   -2.6778    2.7278 N   0  0  0  0  0  0  0  0  0  0  0  0
    2.5756   -1.9640    1.5412 C   0  0  0  0  0  0  0  0  0  0  0  0
    3.2319   -0.6380    1.8396 C   0  0  2  0  0  0  0  0  0  0  0  0
    4.7679   -0.6358    1.5609 C   0  0  1  0  0  0  0  0  0  0  0  0
    5.8050   -0.6749    2.7035 C   0  0  0  0  0  0  0  0  0  0  0  0
    5.1556   -1.4730    0.4739 O   0  0  0  0  0  0  0  0  0  0  0  0
    5.2386   -2.8510    0.5457 C   0  0  0  0  0  0  0  0  0  0  0  0
    5.9272   -3.3429   -0.7072 C   0  0  0  0  0  0  0  0  0  0  0  0
    4.7863   -3.7269    1.4898 C   0  0  0  0  0  0  0  0  0  0  0  0
    4.0901   -3.4897    2.7628 C   0  0  0  0  0  0  0  0  0  0  0  0
    4.5022   -3.9926    3.8031 O   0  0  0  0  0  0  0  0  0  0  0  0
   -0.1514    0.2970    1.7398 H   0  0  0  0  0  0  0  0  0  0  0  0
   -0.3002    1.9915    1.2917 H   0  0  0  0  0  0  0  0  0  0  0  0
   -0.8281    1.4548    2.9015 H   0  0  0  0  0  0  0  0  0  0  0  0
    1.1039    0.3893    4.4962 H   0  0  0  0  0  0  0  0  0  0  0  0
    3.9003    1.4627    3.6197 H   0  0  0  0  0  0  0  0  0  0  0  0
    3.5505    0.5767    5.1703 H   0  0  0  0  0  0  0  0  0  0  0  0
    0.6687   -1.5880    6.3874 H   0  0  0  0  0  0  0  0  0  0  0  0
    2.0409   -0.5108    6.1686 H   0  0  0  0  0  0  0  0  0  0  0  0
    2.2269   -1.9609    7.1247 H   0  0  0  0  0  0  0  0  0  0  0  0
    2.0179   -4.4050    4.2238 H   0  0  0  0  0  0  0  0  0  0  0  0
    1.1131   -3.9767    7.0825 H   0  0  0  0  0  0  0  0  0  0  0  0
   -0.6534   -5.8864    7.4636 H   0  0  0  0  0  0  0  0  0  0  0  0
    0.7824   -6.5170    8.2832 H   0  0  0  0  0  0  0  0  0  0  0  0
   -0.1091   -7.5308    7.1768 H   0  0  0  0  0  0  0  0  0  0  0  0
    2.3833   -6.3138    4.6274 H   0  0  0  0  0  0  0  0  0  0  0  0
    1.0805   -8.7902    5.9697 H   0  0  0  0  0  0  0  0  0  0  0  0
    1.5619  -10.8935    3.4528 H   0  0  0  0  0  0  0  0  0  0  0  0
    1.5764  -10.8283    5.2105 H   0  0  0  0  0  0  0  0  0  0  0  0
    3.0881  -10.9805    4.3335 H   0  0  0  0  0  0  0  0  0  0  0  0
    3.0302   -7.3473    3.0492 H   0  0  0  0  0  0  0  0  0  0  0  0
    1.7346   -9.5658    1.6999 H   0  0  0  0  0  0  0  0  0  0  0  0
    2.2286   -7.9871    1.1211 H   0  0  0  0  0  0  0  0  0  0  0  0
    3.7316   -9.8571    0.0341 H   0  0  0  0  0  0  0  0  0  0  0  0
    6.4893  -10.7854    2.1933 H   0  0  0  0  0  0  0  0  0  0  0  0
    6.9672   -9.2265    1.5016 H   0  0  0  0  0  0  0  0  0  0  0  0
    6.2088  -10.4558    0.4806 H   0  0  0  0  0  0  0  0  0  0  0  0
    4.7735   -9.5531    3.9411 H   0  0  0  0  0  0  0  0  0  0  0  0
    6.5349   -7.8758    3.4292 H   0  0  0  0  0  0  0  0  0  0  0  0
    5.2536   -7.1096    4.3532 H   0  0  0  0  0  0  0  0  0  0  0  0
    5.3586   -6.8565    2.6172 H   0  0  0  0  0  0  0  0  0  0  0  0
    2.7746   -2.3993    0.5608 H   0  0  0  0  0  0  0  0  0  0  0  0
    1.4882   -1.8495    1.5700 H   0  0  0  0  0  0  0  0  0  0  0  0
    2.7889    0.0794    1.1583 H   0  0  0  0  0  0  0  0  0  0  0  0
    4.9269    0.3561    1.1356 H   0  0  0  0  0  0  0  0  0  0  0  0
    5.7471    0.2012    3.3450 H   0  0  0  0  0  0  0  0  0  0  0  0
    6.8091   -0.6627    2.2802 H   0  0  0  0  0  0  0  0  0  0  0  0
    5.7387   -1.5504    3.3428 H   0  0  0  0  0  0  0  0  0  0  0  0
    6.0123   -4.4246   -0.7262 H   0  0  0  0  0  0  0  0  0  0  0  0
    6.9244   -2.9151   -0.7690 H   0  0  0  0  0  0  0  0  0  0  0  0
    5.3693   -3.0254   -1.5852 H   0  0  0  0  0  0  0  0  0  0  0  0
    4.9931   -4.7670    1.2795 H   0  0  0  0  0  0  0  0  0  0  0  0
  1  2  1  0
  1 36  1  0
  1 37  1  0
  1 38  1  0
  2  3  2  0
  2  4  1  0
  4  6  1  0
  4  5  1  0
  4 39  1  1
  6  5  1  1
  5 40  1  0
  5 41  1  0
  6 27  1  0
  6  7  1  0
  7  8  2  3
  7 25  1  0
  8  9  1  0
  8 10  1  0
  9 42  1  0
  9 43  1  0
  9 44  1  0
 10 11  2  3
 10 45  1  0
 11 12  1  0
 11 46  1  0
 12 13  1  0
 12 14  2  3
 13 47  1  0
 13 48  1  0
 13 49  1  0
 14 15  1  0
 14 50  1  0
 15 16  2  3
 15 51  1  0
 16 17  1  0
 16 18  1  0
 17 52  1  0
 17 53  1  0
 17 54  1  0
 18 23  1  0
 18 19  1  0
 18 55  1  6
 19 20  1  0
 19 56  1  0
 19 57  1  0
 20 21  2  0
 20 58  1  0
 21 22  1  0
 21 23  1  0
 22 59  1  0
 22 60  1  0
 22 61  1  0
 23 24  1  0
 23 62  1  1
 24 63  1  0
 24 64  1  0
 24 65  1  0
 25 34  1  0
 25 26  1  0
 26 27  1  0
 26 66  1  0
 26 67  1  0
 27 28  1  0
 27 68  1  6
 28 29  1  0
 28 30  1  0
 28 69  1  6
 29 70  1  0
 29 71  1  0
 29 72  1  0
 30 31  1  0
 31 32  1  0
 31 33  2  3
 32 73  1  0
 32 74  1  0
 32 75  1  0
 33 34  1  0
 33 76  1  0
 34 35  2  0
M  END
>  <i_m_ct_stereo_status>  (236) 
1

>  <s_m_source_file>  (236) 
/var/tmp/pbs.5076255.sched01/tmpk9_hntje/1089a46f3po.sdf

>  <i_m_source_file_index>  (236) 
6

>  <i_lp_mmshare_version>  (236) 
48012

>  <i_f3d_flags>  (236) 
0

>  <s_epik_input>  (236) 
W0NIM11DKD1PKVtDQEhdKFtDSDJdMSlbQ0BAXTEyW0NAQEhdM1tDSDJdTihDKD1PKS9bQ0hdPUMoW0NIM10pXE9bQ0BASF0zW0NIM10pQ1wyPUMoXFtDSDNdKS9bQ0hdPVtDSF0vQyhbQ0gzXSk9W0NIXS9bQ0hdPUMoXFtDSDNdKVtDQEBIXTRbQ0gyXVtDSF09QyhbQ0gzXSlbQ0BIXTRbQ0gzXQ==

>  <s_epik_cmdline>  (236) 
J2VwaWtfcHl0aG9uJywgJy1waHQnLCAnMi4wJywgJy1waCcsICc3LjAnLCAnLXRuJywgJzgnLCAnLW1hJywgJzIwMCcsICctaW1hZScsICc8aW5maWxlLm1hZT4nLCAnLW9tYWUnLCAnPG91dGZpbGUubWFlPic=

>  <r_lp_tautomer_probability>  (236) 
1

>  <r_epik_Ionization_Penalty>  (236) 
1.49479e-07

>  <r_epik_Ionization_Penalty_Charging>  (236) 
0

>  <r_epik_Ionization_Penalty_Neutral>  (236) 
1.49479e-07

>  <r_epik_State_Penalty>  (236) 
-0

>  <r_epik_Charging_Adjusted_Penalty>  (236) 
0

>  <i_epik_Tot_Q>  (236) 
0

>  <i_epik_Tot_abs_Q>  (236) 
0

>  <s_lp_Force_Field>  (236) 
OPLS3e

>  <r_lp_Energy>  (236) 
61.2438

>  <b_lp_Chiralities_Consistent>  (236) 
1

>  <s_lp_Variant>  (236) 
69:0-9

>  <s_i_glide_gridfile>  (236) 
pfpi4k_grid

>  <i_i_glide_lignum>  (236) 
6

>  <i_i_glide_rotatable_bonds>  (236) 
5

>  <r_i_docking_score>  (236) 
-1.82333

>  <r_i_glide_ligand_efficiency>  (236) 
-0.0520952

>  <r_i_glide_ligand_efficiency_sa>  (236) 
-0.170407

>  <r_i_glide_ligand_efficiency_ln>  (236) 
-0.400262

>  <r_i_glide_gscore>  (236) 
-1.82333

>  <r_i_glide_lipo>  (236) 
-0.352793

>  <r_i_glide_hbond>  (236) 
0

>  <r_i_glide_metal>  (236) 
-0

>  <r_i_glide_rewards>  (236) 
-0.167931

>  <r_i_glide_evdw>  (236) 
-31.6513

>  <r_i_glide_ecoul>  (236) 
-0.326688

>  <r_i_glide_erotb>  (236) 
0.357898

>  <r_i_glide_esite>  (236) 
-0.0289387

>  <r_i_glide_emodel>  (236) 
-33.4939

>  <r_i_glide_energy>  (236) 
-31.978

>  <r_i_glide_einternal>  (236) 
3.16705

>  <r_i_glide_intrahb_reward>  (236) 
-0

>  <i_i_glide_confnum>  (236) 
2

>  <i_i_glide_posenum>  (236) 
3

>  <r_i_glide_eff_state_penalty>  (236) 
0

>  <ligand_id>  (236) 
69

>  <original_smiles>  (236) 
CC(=O)C1CC12C(=C(C)C=CC(C)=CC=C(C)C1CC=C(C)C1C)N1CC2C(C)OC(C)=CC1=O

>  <smiles>  (236) 
[H]C(=C([H])C(=C1N2C(=O)C([H])=C(C([H])([H])[H])OC([H])(C([H])([H])[H])C([H])(C2([H])[H])C12C([H])([H])C2([H])C(=O)C([H])([H])[H])C([H])([H])[H])C(=C([H])C([H])=C(C([H])([H])[H])C1([H])C([H])([H])C([H])=C(C([H])([H])[H])C1([H])C([H])([H])[H])C([H])([H])[H]

$$$$
69:9:0
     RDKit          3D

 76 79  0  0  1  0  0  0  0  0999 V2000
   -0.8325   -5.1614    7.6838 C   0  0  0  0  0  0  0  0  0  0  0  0
    0.1898   -6.2607    7.9375 C   0  0  0  0  0  0  0  0  0  0  0  0
   -0.0514   -7.1224    8.7929 O   0  0  0  0  0  0  0  0  0  0  0  0
    1.4639   -6.2863    7.1246 C   0  0  2  0  0  0  0  0  0  0  0  0
    1.3631   -5.8461    5.6720 C   0  0  0  0  0  0  0  0  0  0  0  0
    1.6118   -7.3178    5.9848 C   0  0  1  0  0  0  0  0  0  0  0  0
    2.9205   -8.0209    5.7010 C   0  0  0  0  0  0  0  0  0  0  0  0
    4.2423   -7.6466    5.6568 C   0  0  0  0  0  0  0  0  0  0  0  0
    5.3512   -8.6550    5.3415 C   0  0  0  0  0  0  0  0  0  0  0  0
    4.6450   -6.2679    5.9538 C   0  0  0  0  0  0  0  0  0  0  0  0
    5.9144   -5.8039    5.9828 C   0  0  0  0  0  0  0  0  0  0  0  0
    6.2362   -4.4135    6.2699 C   0  0  0  0  0  0  0  0  0  0  0  0
    7.2659   -4.1514    7.3528 C   0  0  0  0  0  0  0  0  0  0  0  0
    5.6203   -3.4474    5.5552 C   0  0  0  0  0  0  0  0  0  0  0  0
    5.8149   -2.0058    5.7081 C   0  0  0  0  0  0  0  0  0  0  0  0
    5.3282   -1.0307    4.8963 C   0  0  0  0  0  0  0  0  0  0  0  0
    5.6356    0.4312    5.2131 C   0  0  0  0  0  0  0  0  0  0  0  0
    4.4887   -1.2802    3.6416 C   0  0  2  0  0  0  0  0  0  0  0  0
    5.1236   -0.7268    2.3343 C   0  0  0  0  0  0  0  0  0  0  0  0
    4.0447    0.1431    1.7513 C   0  0  0  0  0  0  0  0  0  0  0  0
    2.9430    0.1785    2.4919 C   0  0  0  0  0  0  0  0  0  0  0  0
    1.6913    0.9783    2.2116 C   0  0  0  0  0  0  0  0  0  0  0  0
    3.0441   -0.6892    3.7319 C   0  0  1  0  0  0  0  0  0  0  0  0
    1.9671   -1.7803    3.7648 C   0  0  0  0  0  0  0  0  0  0  0  0
    2.5044   -9.3701    5.4308 N   0  0  0  0  0  0  0  0  0  0  0  0
    1.2387   -9.6282    6.0808 C   0  0  0  0  0  0  0  0  0  0  0  0
    0.5062   -8.3500    5.7396 C   0  0  2  0  0  0  0  0  0  0  0  0
    0.0020   -8.3750    4.2689 C   0  0  1  0  0  0  0  0  0  0  0  0
   -1.3838   -7.7106    4.1724 C   0  0  0  0  0  0  0  0  0  0  0  0
    0.8257   -7.6000    3.4034 O   0  0  0  0  0  0  0  0  0  0  0  0
    1.9086   -8.1394    2.7309 C   0  0  0  0  0  0  0  0  0  0  0  0
    2.1452   -7.3456    1.4767 C   0  0  0  0  0  0  0  0  0  0  0  0
    2.6923   -9.2012    3.0593 C   0  0  0  0  0  0  0  0  0  0  0  0
    2.6405  -10.0324    4.2586 C   0  0  0  0  0  0  0  0  0  0  0  0
    2.6270  -11.2608    4.2181 O   0  0  0  0  0  0  0  0  0  0  0  0
   -1.1595   -5.1649    6.6434 H   0  0  0  0  0  0  0  0  0  0  0  0
   -0.4170   -4.1815    7.9246 H   0  0  0  0  0  0  0  0  0  0  0  0
   -1.7263   -5.3256    8.2854 H   0  0  0  0  0  0  0  0  0  0  0  0
    2.3747   -6.0513    7.6793 H   0  0  0  0  0  0  0  0  0  0  0  0
    0.3818   -5.6108    5.2696 H   0  0  0  0  0  0  0  0  0  0  0  0
    2.1510   -5.2439    5.2373 H   0  0  0  0  0  0  0  0  0  0  0  0
    6.1970   -8.5455    6.0216 H   0  0  0  0  0  0  0  0  0  0  0  0
    5.7109   -8.5096    4.3189 H   0  0  0  0  0  0  0  0  0  0  0  0
    5.0541   -9.7033    5.4351 H   0  0  0  0  0  0  0  0  0  0  0  0
    3.9040   -5.5322    6.1954 H   0  0  0  0  0  0  0  0  0  0  0  0
    6.7578   -6.4544    5.7807 H   0  0  0  0  0  0  0  0  0  0  0  0
    7.0726   -4.8038    8.2078 H   0  0  0  0  0  0  0  0  0  0  0  0
    7.2785   -3.1259    7.7200 H   0  0  0  0  0  0  0  0  0  0  0  0
    8.2603   -4.3782    6.9702 H   0  0  0  0  0  0  0  0  0  0  0  0
    4.9126   -3.7934    4.8228 H   0  0  0  0  0  0  0  0  0  0  0  0
    6.3921   -1.6579    6.5416 H   0  0  0  0  0  0  0  0  0  0  0  0
    4.7269    1.0274    5.2934 H   0  0  0  0  0  0  0  0  0  0  0  0
    6.2530    0.8752    4.4343 H   0  0  0  0  0  0  0  0  0  0  0  0
    6.1746    0.5356    6.1508 H   0  0  0  0  0  0  0  0  0  0  0  0
    4.3914   -2.3482    3.4666 H   0  0  0  0  0  0  0  0  0  0  0  0
    6.0451   -0.1649    2.4853 H   0  0  0  0  0  0  0  0  0  0  0  0
    5.3501   -1.5341    1.6389 H   0  0  0  0  0  0  0  0  0  0  0  0
    4.1910    0.6818    0.8278 H   0  0  0  0  0  0  0  0  0  0  0  0
    0.8351    0.3173    2.0810 H   0  0  0  0  0  0  0  0  0  0  0  0
    1.7991    1.5660    1.2959 H   0  0  0  0  0  0  0  0  0  0  0  0
    1.4761    1.6641    3.0313 H   0  0  0  0  0  0  0  0  0  0  0  0
    2.9164   -0.0534    4.6040 H   0  0  0  0  0  0  0  0  0  0  0  0
    0.9650   -1.3540    3.8061 H   0  0  0  0  0  0  0  0  0  0  0  0
    2.0797   -2.4258    4.6357 H   0  0  0  0  0  0  0  0  0  0  0  0
    2.0196   -2.4085    2.8782 H   0  0  0  0  0  0  0  0  0  0  0  0
    0.7088  -10.5403    5.7761 H   0  0  0  0  0  0  0  0  0  0  0  0
    1.4032   -9.7049    7.1565 H   0  0  0  0  0  0  0  0  0  0  0  0
   -0.3518   -8.3017    6.3983 H   0  0  0  0  0  0  0  0  0  0  0  0
   -0.1125   -9.3936    3.8973 H   0  0  0  0  0  0  0  0  0  0  0  0
   -2.0959   -8.2139    4.8282 H   0  0  0  0  0  0  0  0  0  0  0  0
   -1.7810   -7.7595    3.1590 H   0  0  0  0  0  0  0  0  0  0  0  0
   -1.3674   -6.6612    4.4680 H   0  0  0  0  0  0  0  0  0  0  0  0
    2.9813   -7.7419    0.9059 H   0  0  0  0  0  0  0  0  0  0  0  0
    2.3619   -6.3105    1.7210 H   0  0  0  0  0  0  0  0  0  0  0  0
    1.2611   -7.3738    0.8442 H   0  0  0  0  0  0  0  0  0  0  0  0
    3.4664   -9.4576    2.3439 H   0  0  0  0  0  0  0  0  0  0  0  0
  1  2  1  0
  1 36  1  0
  1 37  1  0
  1 38  1  0
  2  3  2  0
  2  4  1  0
  4  6  1  0
  4  5  1  0
  4 39  1  1
  6  5  1  6
  5 40  1  0
  5 41  1  0
  6 27  1  0
  6  7  1  0
  7  8  2  3
  7 25  1  0
  8  9  1  0
  8 10  1  0
  9 42  1  0
  9 43  1  0
  9 44  1  0
 10 11  2  3
 10 45  1  0
 11 12  1  0
 11 46  1  0
 12 13  1  0
 12 14  2  3
 13 47  1  0
 13 48  1  0
 13 49  1  0
 14 15  1  0
 14 50  1  0
 15 16  2  3
 15 51  1  0
 16 17  1  0
 16 18  1  0
 17 52  1  0
 17 53  1  0
 17 54  1  0
 18 23  1  0
 18 19  1  0
 18 55  1  6
 19 20  1  0
 19 56  1  0
 19 57  1  0
 20 21  2  0
 20 58  1  0
 21 22  1  0
 21 23  1  0
 22 59  1  0
 22 60  1  0
 22 61  1  0
 23 24  1  0
 23 62  1  1
 24 63  1  0
 24 64  1  0
 24 65  1  0
 25 34  1  0
 25 26  1  0
 26 27  1  0
 26 66  1  0
 26 67  1  0
 27 28  1  0
 27 68  1  1
 28 29  1  0
 28 30  1  0
 28 69  1  6
 29 70  1  0
 29 71  1  0
 29 72  1  0
 30 31  1  0
 31 32  1  0
 31 33  2  3
 32 73  1  0
 32 74  1  0
 32 75  1  0
 33 34  1  0
 33 76  1  0
 34 35  2  0
M  END
>  <i_m_ct_stereo_status>  (237) 
1

>  <s_m_source_file>  (237) 
/var/tmp/pbs.5076255.sched01/tmpk9_hntje/1089a46f3po.sdf

>  <i_m_source_file_index>  (237) 
7

>  <i_lp_mmshare_version>  (237) 
48012

>  <i_f3d_flags>  (237) 
0

>  <s_epik_input>  (237) 
W0NIM11DKD1PKVtDQEhdKFtDSDJdMSlbQ0BAXTEyW0NAQEhdM1tDSDJdTihDKD1PKS9bQ0hdPUMoW0NIM10pXE9bQ0BASF0zW0NIM10pQ1wyPUMoXFtDSDNdKS9bQ0hdPVtDSF0vQyhbQ0gzXSk9W0NIXS9bQ0hdPUMoXFtDSDNdKVtDQEBIXTRbQ0gyXVtDSF09QyhbQ0gzXSlbQ0BIXTRbQ0gzXQ==

>  <s_epik_cmdline>  (237) 
J2VwaWtfcHl0aG9uJywgJy1waHQnLCAnMi4wJywgJy1waCcsICc3LjAnLCAnLXRuJywgJzgnLCAnLW1hJywgJzIwMCcsICctaW1hZScsICc8aW5maWxlLm1hZT4nLCAnLW9tYWUnLCAnPG91dGZpbGUubWFlPic=

>  <r_lp_tautomer_probability>  (237) 
1

>  <r_epik_Ionization_Penalty>  (237) 
1.49479e-07

>  <r_epik_Ionization_Penalty_Charging>  (237) 
0

>  <r_epik_Ionization_Penalty_Neutral>  (237) 
1.49479e-07

>  <r_epik_State_Penalty>  (237) 
-0

>  <r_epik_Charging_Adjusted_Penalty>  (237) 
0

>  <i_epik_Tot_Q>  (237) 
0

>  <i_epik_Tot_abs_Q>  (237) 
0

>  <s_lp_Force_Field>  (237) 
OPLS3e

>  <r_lp_Energy>  (237) 
55.8911

>  <b_lp_Chiralities_Consistent>  (237) 
1

>  <s_lp_Variant>  (237) 
69:0-10

>  <s_i_glide_gridfile>  (237) 
pfpi4k_grid

>  <i_i_glide_lignum>  (237) 
7

>  <i_i_glide_rotatable_bonds>  (237) 
5

>  <r_i_docking_score>  (237) 
-2.26881

>  <r_i_glide_ligand_efficiency>  (237) 
-0.0648232

>  <r_i_glide_ligand_efficiency_sa>  (237) 
-0.212041

>  <r_i_glide_ligand_efficiency_ln>  (237) 
-0.498055

>  <r_i_glide_gscore>  (237) 
-2.26881

>  <r_i_glide_lipo>  (237) 
-0.464841

>  <r_i_glide_hbond>  (237) 
-0.303649

>  <r_i_glide_metal>  (237) 
-0

>  <r_i_glide_rewards>  (237) 
-0.16594

>  <r_i_glide_evdw>  (237) 
-27.1475

>  <r_i_glide_ecoul>  (237) 
-1.91617

>  <r_i_glide_erotb>  (237) 
0.357898

>  <r_i_glide_esite>  (237) 
-0.0474766

>  <r_i_glide_emodel>  (237) 
-30.2034

>  <r_i_glide_energy>  (237) 
-29.0637

>  <r_i_glide_einternal>  (237) 
4.89823

>  <r_i_glide_intrahb_reward>  (237) 
-0

>  <i_i_glide_confnum>  (237) 
4

>  <i_i_glide_posenum>  (237) 
27

>  <r_i_glide_eff_state_penalty>  (237) 
0

>  <ligand_id>  (237) 
69

>  <original_smiles>  (237) 
CC(=O)C1CC12C(=C(C)C=CC(C)=CC=C(C)C1CC=C(C)C1C)N1CC2C(C)OC(C)=CC1=O

>  <smiles>  (237) 
[H]C(=C([H])C(=C1N2C(=O)C([H])=C(C([H])([H])[H])OC([H])(C([H])([H])[H])C([H])(C2([H])[H])C12C([H])([H])C2([H])C(=O)C([H])([H])[H])C([H])([H])[H])C(=C([H])C([H])=C(C([H])([H])[H])C1([H])C([H])([H])C([H])=C(C([H])([H])[H])C1([H])C([H])([H])[H])C([H])([H])[H]

$$$$
69:9:1
     RDKit          3D

 76 79  0  0  1  0  0  0  0  0999 V2000
    1.2778   -3.2972    3.4912 C   0  0  0  0  0  0  0  0  0  0  0  0
    1.7423   -3.8127    4.8431 C   0  0  0  0  0  0  0  0  0  0  0  0
    1.3070   -3.2918    5.8753 O   0  0  0  0  0  0  0  0  0  0  0  0
    2.7117   -4.9762    4.9124 C   0  0  2  0  0  0  0  0  0  0  0  0
    2.5135   -6.1165    3.9314 C   0  0  0  0  0  0  0  0  0  0  0  0
    2.2095   -6.3542    5.3999 C   0  0  1  0  0  0  0  0  0  0  0  0
    3.0418   -7.2620    6.2938 C   0  0  0  0  0  0  0  0  0  0  0  0
    4.3537   -7.6745    6.3206 C   0  0  0  0  0  0  0  0  0  0  0  0
    4.9072   -8.6139    7.4003 C   0  0  0  0  0  0  0  0  0  0  0  0
    5.3015   -7.1424    5.3593 C   0  0  0  0  0  0  0  0  0  0  0  0
    6.5780   -7.5414    5.1554 C   0  0  0  0  0  0  0  0  0  0  0  0
    7.5177   -6.9922    4.1712 C   0  0  0  0  0  0  0  0  0  0  0  0
    8.9545   -7.4933    4.2278 C   0  0  0  0  0  0  0  0  0  0  0  0
    7.0993   -6.1055    3.2388 C   0  0  0  0  0  0  0  0  0  0  0  0
    7.8780   -5.4684    2.1910 C   0  0  0  0  0  0  0  0  0  0  0  0
    7.3952   -4.5520    1.3137 C   0  0  0  0  0  0  0  0  0  0  0  0
    8.3336   -3.9475    0.2823 C   0  0  0  0  0  0  0  0  0  0  0  0
    5.9386   -4.0402    1.2588 C   0  0  2  0  0  0  0  0  0  0  0  0
    5.2334   -4.2645   -0.1123 C   0  0  0  0  0  0  0  0  0  0  0  0
    4.7468   -2.8958   -0.4967 C   0  0  0  0  0  0  0  0  0  0  0  0
    5.0496   -1.9675    0.4065 C   0  0  0  0  0  0  0  0  0  0  0  0
    4.7199   -0.4979    0.3248 C   0  0  0  0  0  0  0  0  0  0  0  0
    5.8036   -2.5188    1.5985 C   0  0  1  0  0  0  0  0  0  0  0  0
    5.0555   -2.2808    2.9133 C   0  0  0  0  0  0  0  0  0  0  0  0
    2.0911   -7.7405    7.2404 N   0  0  0  0  0  0  0  0  0  0  0  0
    0.9940   -6.8044    7.3465 C   0  0  0  0  0  0  0  0  0  0  0  0
    0.7635   -6.5057    5.8808 C   0  0  2  0  0  0  0  0  0  0  0  0
   -0.0015   -7.6559    5.1745 C   0  0  1  0  0  0  0  0  0  0  0  0
   -1.0120   -7.0786    4.1648 C   0  0  0  0  0  0  0  0  0  0  0  0
    0.8592   -8.4813    4.3969 O   0  0  0  0  0  0  0  0  0  0  0  0
    1.4663   -9.6064    4.9213 C   0  0  0  0  0  0  0  0  0  0  0  0
    1.7178  -10.5993    3.8089 C   0  0  0  0  0  0  0  0  0  0  0  0
    1.8284   -9.8710    6.2096 C   0  0  0  0  0  0  0  0  0  0  0  0
    1.6987   -9.0278    7.3952 C   0  0  0  0  0  0  0  0  0  0  0  0
    1.1691   -9.3851    8.4522 O   0  0  0  0  0  0  0  0  0  0  0  0
    0.8366   -4.0956    2.8936 H   0  0  0  0  0  0  0  0  0  0  0  0
    2.0915   -2.8694    2.9192 H   0  0  0  0  0  0  0  0  0  0  0  0
    0.5253   -2.5189    3.6123 H   0  0  0  0  0  0  0  0  0  0  0  0
    3.7333   -4.6955    5.1774 H   0  0  0  0  0  0  0  0  0  0  0  0
    1.6589   -6.0830    3.2614 H   0  0  0  0  0  0  0  0  0  0  0  0
    3.3742   -6.5919    3.4712 H   0  0  0  0  0  0  0  0  0  0  0  0
    5.8648   -8.2376    7.7690 H   0  0  0  0  0  0  0  0  0  0  0  0
    5.0714   -9.6116    6.9774 H   0  0  0  0  0  0  0  0  0  0  0  0
    4.2671   -8.7202    8.2805 H   0  0  0  0  0  0  0  0  0  0  0  0
    4.9269   -6.3263    4.7965 H   0  0  0  0  0  0  0  0  0  0  0  0
    6.9667   -8.3460    5.7622 H   0  0  0  0  0  0  0  0  0  0  0  0
    9.3102   -7.5291    5.2602 H   0  0  0  0  0  0  0  0  0  0  0  0
    9.6645   -6.8788    3.6729 H   0  0  0  0  0  0  0  0  0  0  0  0
    9.0201   -8.4976    3.8094 H   0  0  0  0  0  0  0  0  0  0  0  0
    6.0719   -5.8299    3.2627 H   0  0  0  0  0  0  0  0  0  0  0  0
    8.9224   -5.7193    2.0879 H   0  0  0  0  0  0  0  0  0  0  0  0
    8.3412   -2.8589    0.3397 H   0  0  0  0  0  0  0  0  0  0  0  0
    8.0428   -4.2364   -0.7227 H   0  0  0  0  0  0  0  0  0  0  0  0
    9.3505   -4.2941    0.4453 H   0  0  0  0  0  0  0  0  0  0  0  0
    5.2875   -4.5657    1.9498 H   0  0  0  0  0  0  0  0  0  0  0  0
    5.8748   -4.6640   -0.8910 H   0  0  0  0  0  0  0  0  0  0  0  0
    4.3805   -4.9396   -0.0164 H   0  0  0  0  0  0  0  0  0  0  0  0
    4.2119   -2.7250   -1.4205 H   0  0  0  0  0  0  0  0  0  0  0  0
    4.0597   -0.1941    1.1364 H   0  0  0  0  0  0  0  0  0  0  0  0
    4.2195   -0.2666   -0.6189 H   0  0  0  0  0  0  0  0  0  0  0  0
    5.6308    0.0991    0.3830 H   0  0  0  0  0  0  0  0  0  0  0  0
    6.7679   -2.0243    1.6533 H   0  0  0  0  0  0  0  0  0  0  0  0
    4.9117   -1.2198    3.1231 H   0  0  0  0  0  0  0  0  0  0  0  0
    5.5645   -2.7227    3.7688 H   0  0  0  0  0  0  0  0  0  0  0  0
    4.0830   -2.7430    2.8512 H   0  0  0  0  0  0  0  0  0  0  0  0
    0.1004   -7.1598    7.8641 H   0  0  0  0  0  0  0  0  0  0  0  0
    1.3463   -5.9135    7.8722 H   0  0  0  0  0  0  0  0  0  0  0  0
    0.1477   -5.6140    5.8294 H   0  0  0  0  0  0  0  0  0  0  0  0
   -0.5644   -8.2589    5.8826 H   0  0  0  0  0  0  0  0  0  0  0  0
   -1.7069   -6.3894    4.6492 H   0  0  0  0  0  0  0  0  0  0  0  0
   -1.5991   -7.8672    3.6984 H   0  0  0  0  0  0  0  0  0  0  0  0
   -0.5160   -6.5277    3.3650 H   0  0  0  0  0  0  0  0  0  0  0  0
    2.1860  -11.5085    4.1725 H   0  0  0  0  0  0  0  0  0  0  0  0
    2.3661  -10.1540    3.0600 H   0  0  0  0  0  0  0  0  0  0  0  0
    0.7825  -10.8726    3.3250 H   0  0  0  0  0  0  0  0  0  0  0  0
    2.2806  -10.8418    6.3687 H   0  0  0  0  0  0  0  0  0  0  0  0
  1  2  1  0
  1 36  1  0
  1 37  1  0
  1 38  1  0
  2  3  2  0
  2  4  1  0
  4  6  1  0
  4  5  1  0
  4 39  1  1
  6  5  1  6
  5 40  1  0
  5 41  1  0
  6 27  1  0
  6  7  1  0
  7  8  2  3
  7 25  1  0
  8  9  1  0
  8 10  1  0
  9 42  1  0
  9 43  1  0
  9 44  1  0
 10 11  2  3
 10 45  1  0
 11 12  1  0
 11 46  1  0
 12 13  1  0
 12 14  2  3
 13 47  1  0
 13 48  1  0
 13 49  1  0
 14 15  1  0
 14 50  1  0
 15 16  2  3
 15 51  1  0
 16 17  1  0
 16 18  1  0
 17 52  1  0
 17 53  1  0
 17 54  1  0
 18 23  1  0
 18 19  1  0
 18 55  1  1
 19 20  1  0
 19 56  1  0
 19 57  1  0
 20 21  2  0
 20 58  1  0
 21 22  1  0
 21 23  1  0
 22 59  1  0
 22 60  1  0
 22 61  1  0
 23 24  1  0
 23 62  1  1
 24 63  1  0
 24 64  1  0
 24 65  1  0
 25 34  1  0
 25 26  1  0
 26 27  1  0
 26 66  1  0
 26 67  1  0
 27 28  1  0
 27 68  1  1
 28 29  1  0
 28 30  1  0
 28 69  1  1
 29 70  1  0
 29 71  1  0
 29 72  1  0
 30 31  1  0
 31 32  1  0
 31 33  2  3
 32 73  1  0
 32 74  1  0
 32 75  1  0
 33 34  1  0
 33 76  1  0
 34 35  2  0
M  END
>  <i_m_ct_stereo_status>  (238) 
1

>  <s_m_source_file>  (238) 
/var/tmp/pbs.5076255.sched01/tmpk9_hntje/1089a46f3po.sdf

>  <i_m_source_file_index>  (238) 
7

>  <i_lp_mmshare_version>  (238) 
48012

>  <i_f3d_flags>  (238) 
0

>  <s_epik_input>  (238) 
W0NIM11DKD1PKVtDQEhdKFtDSDJdMSlbQ0BAXTEyW0NAQEhdM1tDSDJdTihDKD1PKS9bQ0hdPUMoW0NIM10pXE9bQ0BASF0zW0NIM10pQ1wyPUMoXFtDSDNdKS9bQ0hdPVtDSF0vQyhbQ0gzXSk9W0NIXS9bQ0hdPUMoXFtDSDNdKVtDQEBIXTRbQ0gyXVtDSF09QyhbQ0gzXSlbQ0BIXTRbQ0gzXQ==

>  <s_epik_cmdline>  (238) 
J2VwaWtfcHl0aG9uJywgJy1waHQnLCAnMi4wJywgJy1waCcsICc3LjAnLCAnLXRuJywgJzgnLCAnLW1hJywgJzIwMCcsICctaW1hZScsICc8aW5maWxlLm1hZT4nLCAnLW9tYWUnLCAnPG91dGZpbGUubWFlPic=

>  <r_lp_tautomer_probability>  (238) 
1

>  <r_epik_Ionization_Penalty>  (238) 
1.49479e-07

>  <r_epik_Ionization_Penalty_Charging>  (238) 
0

>  <r_epik_Ionization_Penalty_Neutral>  (238) 
1.49479e-07

>  <r_epik_State_Penalty>  (238) 
-0

>  <r_epik_Charging_Adjusted_Penalty>  (238) 
0

>  <i_epik_Tot_Q>  (238) 
0

>  <i_epik_Tot_abs_Q>  (238) 
0

>  <s_lp_Force_Field>  (238) 
OPLS3e

>  <r_lp_Energy>  (238) 
55.8911

>  <b_lp_Chiralities_Consistent>  (238) 
1

>  <s_lp_Variant>  (238) 
69:0-10

>  <s_i_glide_gridfile>  (238) 
pfpi4k_grid

>  <i_i_glide_lignum>  (238) 
7

>  <i_i_glide_rotatable_bonds>  (238) 
5

>  <r_i_docking_score>  (238) 
-2.2

>  <r_i_glide_ligand_efficiency>  (238) 
-0.0628572

>  <r_i_glide_ligand_efficiency_sa>  (238) 
-0.20561

>  <r_i_glide_ligand_efficiency_ln>  (238) 
-0.482949

>  <r_i_glide_gscore>  (238) 
-2.2

>  <r_i_glide_lipo>  (238) 
-0.830796

>  <r_i_glide_hbond>  (238) 
0

>  <r_i_glide_metal>  (238) 
-0

>  <r_i_glide_rewards>  (238) 
-0.170432

>  <r_i_glide_evdw>  (238) 
-26.5437

>  <r_i_glide_ecoul>  (238) 
-1.06998

>  <r_i_glide_erotb>  (238) 
0.357898

>  <r_i_glide_esite>  (238) 
-0.0689895

>  <r_i_glide_emodel>  (238) 
-28.1595

>  <r_i_glide_energy>  (238) 
-27.6137

>  <r_i_glide_einternal>  (238) 
4.80562

>  <r_i_glide_intrahb_reward>  (238) 
-0

>  <i_i_glide_confnum>  (238) 
4

>  <i_i_glide_posenum>  (238) 
28

>  <r_i_glide_eff_state_penalty>  (238) 
0

>  <ligand_id>  (238) 
69

>  <original_smiles>  (238) 
CC(=O)C1CC12C(=C(C)C=CC(C)=CC=C(C)C1CC=C(C)C1C)N1CC2C(C)OC(C)=CC1=O

>  <smiles>  (238) 
[H]C(=C([H])C(=C1N2C(=O)C([H])=C(C([H])([H])[H])OC([H])(C([H])([H])[H])C([H])(C2([H])[H])C12C([H])([H])C2([H])C(=O)C([H])([H])[H])C([H])([H])[H])C(=C([H])C([H])=C(C([H])([H])[H])C1([H])C([H])([H])C([H])=C(C([H])([H])[H])C1([H])C([H])([H])[H])C([H])([H])[H]

$$$$
69:9:2
     RDKit          3D

 76 79  0  0  1  0  0  0  0  0999 V2000
    3.4266   -4.4045    7.3629 C   0  0  0  0  0  0  0  0  0  0  0  0
    3.8543   -5.8574    7.2208 C   0  0  0  0  0  0  0  0  0  0  0  0
    4.1027   -6.5238    8.2316 O   0  0  0  0  0  0  0  0  0  0  0  0
    3.9410   -6.4723    5.8396 C   0  0  2  0  0  0  0  0  0  0  0  0
    2.9513   -5.9827    4.7973 C   0  0  0  0  0  0  0  0  0  0  0  0
    2.7984   -7.3858    5.3627 C   0  0  1  0  0  0  0  0  0  0  0  0
    3.0417   -8.6423    4.5495 C   0  0  0  0  0  0  0  0  0  0  0  0
    3.8604   -8.9693    3.4967 C   0  0  0  0  0  0  0  0  0  0  0  0
    3.8703  -10.3811    2.9025 C   0  0  0  0  0  0  0  0  0  0  0  0
    4.7939   -7.9946    2.9268 C   0  0  0  0  0  0  0  0  0  0  0  0
    5.6337   -8.2210    1.8953 C   0  0  0  0  0  0  0  0  0  0  0  0
    6.5223   -7.1948    1.3740 C   0  0  0  0  0  0  0  0  0  0  0  0
    7.9915   -7.5343    1.2815 C   0  0  0  0  0  0  0  0  0  0  0  0
    6.0053   -6.0012    1.0140 C   0  0  0  0  0  0  0  0  0  0  0  0
    6.7481   -4.8676    0.4748 C   0  0  0  0  0  0  0  0  0  0  0  0
    6.2503   -3.6487    0.1570 C   0  0  0  0  0  0  0  0  0  0  0  0
    7.1786   -2.5631   -0.3812 C   0  0  0  0  0  0  0  0  0  0  0  0
    4.7752   -3.2549    0.3011 C   0  0  2  0  0  0  0  0  0  0  0  0
    4.1413   -2.6618   -0.9871 C   0  0  0  0  0  0  0  0  0  0  0  0
    3.5785   -1.3514   -0.5271 C   0  0  0  0  0  0  0  0  0  0  0  0
    3.7903   -1.1040    0.7624 C   0  0  0  0  0  0  0  0  0  0  0  0
    3.3624    0.1258    1.5353 C   0  0  0  0  0  0  0  0  0  0  0  0
    4.5282   -2.2277    1.4526 C   0  0  1  0  0  0  0  0  0  0  0  0
    3.7028   -2.8317    2.6001 C   0  0  0  0  0  0  0  0  0  0  0  0
    2.1287   -9.5822    5.1224 N   0  0  0  0  0  0  0  0  0  0  0  0
    1.8405   -9.2072    6.4911 C   0  0  0  0  0  0  0  0  0  0  0  0
    1.6421   -7.7159    6.3098 C   0  0  2  0  0  0  0  0  0  0  0  0
    0.2511   -7.4028    5.6989 C   0  0  1  0  0  0  0  0  0  0  0  0
   -0.3164   -6.1148    6.3351 C   0  0  0  0  0  0  0  0  0  0  0  0
    0.3091   -7.1101    4.3043 O   0  0  0  0  0  0  0  0  0  0  0  0
    0.1936   -8.0896    3.3352 C   0  0  0  0  0  0  0  0  0  0  0  0
   -0.3564   -7.4717    2.0740 C   0  0  0  0  0  0  0  0  0  0  0  0
    0.4990   -9.4131    3.3868 C   0  0  0  0  0  0  0  0  0  0  0  0
    1.0887  -10.1704    4.4845 C   0  0  0  0  0  0  0  0  0  0  0  0
    0.6349  -11.2500    4.8609 O   0  0  0  0  0  0  0  0  0  0  0  0
    2.4398   -4.2448    6.9282 H   0  0  0  0  0  0  0  0  0  0  0  0
    4.1379   -3.7417    6.8669 H   0  0  0  0  0  0  0  0  0  0  0  0
    3.3546   -4.1223    8.4122 H   0  0  0  0  0  0  0  0  0  0  0  0
    4.9475   -6.7456    5.5138 H   0  0  0  0  0  0  0  0  0  0  0  0
    2.1931   -5.2640    5.0944 H   0  0  0  0  0  0  0  0  0  0  0  0
    3.2757   -5.8485    3.7720 H   0  0  0  0  0  0  0  0  0  0  0  0
    4.8880  -10.7374    2.7327 H   0  0  0  0  0  0  0  0  0  0  0  0
    3.3396  -10.3870    1.9478 H   0  0  0  0  0  0  0  0  0  0  0  0
    3.4104  -11.1476    3.5353 H   0  0  0  0  0  0  0  0  0  0  0  0
    4.8642   -7.0106    3.3443 H   0  0  0  0  0  0  0  0  0  0  0  0
    5.6776   -9.1847    1.4042 H   0  0  0  0  0  0  0  0  0  0  0  0
    8.3137   -8.0542    2.1880 H   0  0  0  0  0  0  0  0  0  0  0  0
    8.6426   -6.6695    1.1614 H   0  0  0  0  0  0  0  0  0  0  0  0
    8.1754   -8.1986    0.4364 H   0  0  0  0  0  0  0  0  0  0  0  0
    4.9397   -5.9082    1.1445 H   0  0  0  0  0  0  0  0  0  0  0  0
    7.8029   -4.9829    0.3012 H   0  0  0  0  0  0  0  0  0  0  0  0
    7.1045   -1.6587    0.2223 H   0  0  0  0  0  0  0  0  0  0  0  0
    6.9354   -2.3057   -1.4104 H   0  0  0  0  0  0  0  0  0  0  0  0
    8.2189   -2.8824   -0.3765 H   0  0  0  0  0  0  0  0  0  0  0  0
    4.1758   -4.1359    0.5101 H   0  0  0  0  0  0  0  0  0  0  0  0
    4.8234   -2.5045   -1.8205 H   0  0  0  0  0  0  0  0  0  0  0  0
    3.3255   -3.2870   -1.3483 H   0  0  0  0  0  0  0  0  0  0  0  0
    3.0406   -0.7285   -1.2207 H   0  0  0  0  0  0  0  0  0  0  0  0
    2.6579   -0.1309    2.3247 H   0  0  0  0  0  0  0  0  0  0  0  0
    2.8789    0.8535    0.8797 H   0  0  0  0  0  0  0  0  0  0  0  0
    4.2221    0.6022    1.9998 H   0  0  0  0  0  0  0  0  0  0  0  0
    5.4627   -1.8382    1.8553 H   0  0  0  0  0  0  0  0  0  0  0  0
    3.5044   -2.1050    3.3894 H   0  0  0  0  0  0  0  0  0  0  0  0
    4.2141   -3.6756    3.0634 H   0  0  0  0  0  0  0  0  0  0  0  0
    2.7375   -3.1893    2.2432 H   0  0  0  0  0  0  0  0  0  0  0  0
    0.9969   -9.7210    6.9644 H   0  0  0  0  0  0  0  0  0  0  0  0
    2.7204   -9.4040    7.1057 H   0  0  0  0  0  0  0  0  0  0  0  0
    1.6903   -7.2663    7.2974 H   0  0  0  0  0  0  0  0  0  0  0  0
   -0.4574   -8.2087    5.8892 H   0  0  0  0  0  0  0  0  0  0  0  0
   -0.3951   -6.2150    7.4202 H   0  0  0  0  0  0  0  0  0  0  0  0
   -1.3177   -5.9047    5.9587 H   0  0  0  0  0  0  0  0  0  0  0  0
    0.2874   -5.2315    6.1359 H   0  0  0  0  0  0  0  0  0  0  0  0
   -0.4736   -8.2135    1.2909 H   0  0  0  0  0  0  0  0  0  0  0  0
    0.3229   -6.7007    1.7223 H   0  0  0  0  0  0  0  0  0  0  0  0
   -1.3315   -7.0316    2.2654 H   0  0  0  0  0  0  0  0  0  0  0  0
    0.2889   -9.9894    2.4928 H   0  0  0  0  0  0  0  0  0  0  0  0
  1  2  1  0
  1 36  1  0
  1 37  1  0
  1 38  1  0
  2  3  2  0
  2  4  1  0
  4  6  1  0
  4  5  1  0
  4 39  1  6
  6  5  1  6
  5 40  1  0
  5 41  1  0
  6 27  1  0
  6  7  1  0
  7  8  2  3
  7 25  1  0
  8  9  1  0
  8 10  1  0
  9 42  1  0
  9 43  1  0
  9 44  1  0
 10 11  2  3
 10 45  1  0
 11 12  1  0
 11 46  1  0
 12 13  1  0
 12 14  2  3
 13 47  1  0
 13 48  1  0
 13 49  1  0
 14 15  1  0
 14 50  1  0
 15 16  2  3
 15 51  1  0
 16 17  1  0
 16 18  1  0
 17 52  1  0
 17 53  1  0
 17 54  1  0
 18 23  1  0
 18 19  1  0
 18 55  1  1
 19 20  1  0
 19 56  1  0
 19 57  1  0
 20 21  2  0
 20 58  1  0
 21 22  1  0
 21 23  1  0
 22 59  1  0
 22 60  1  0
 22 61  1  0
 23 24  1  0
 23 62  1  1
 24 63  1  0
 24 64  1  0
 24 65  1  0
 25 34  1  0
 25 26  1  0
 26 27  1  0
 26 66  1  0
 26 67  1  0
 27 28  1  0
 27 68  1  1
 28 29  1  0
 28 30  1  0
 28 69  1  6
 29 70  1  0
 29 71  1  0
 29 72  1  0
 30 31  1  0
 31 32  1  0
 31 33  2  3
 32 73  1  0
 32 74  1  0
 32 75  1  0
 33 34  1  0
 33 76  1  0
 34 35  2  0
M  END
>  <i_m_ct_stereo_status>  (239) 
1

>  <s_m_source_file>  (239) 
/var/tmp/pbs.5076255.sched01/tmpk9_hntje/1089a46f3po.sdf

>  <i_m_source_file_index>  (239) 
7

>  <i_lp_mmshare_version>  (239) 
48012

>  <i_f3d_flags>  (239) 
0

>  <s_epik_input>  (239) 
W0NIM11DKD1PKVtDQEhdKFtDSDJdMSlbQ0BAXTEyW0NAQEhdM1tDSDJdTihDKD1PKS9bQ0hdPUMoW0NIM10pXE9bQ0BASF0zW0NIM10pQ1wyPUMoXFtDSDNdKS9bQ0hdPVtDSF0vQyhbQ0gzXSk9W0NIXS9bQ0hdPUMoXFtDSDNdKVtDQEBIXTRbQ0gyXVtDSF09QyhbQ0gzXSlbQ0BIXTRbQ0gzXQ==

>  <s_epik_cmdline>  (239) 
J2VwaWtfcHl0aG9uJywgJy1waHQnLCAnMi4wJywgJy1waCcsICc3LjAnLCAnLXRuJywgJzgnLCAnLW1hJywgJzIwMCcsICctaW1hZScsICc8aW5maWxlLm1hZT4nLCAnLW9tYWUnLCAnPG91dGZpbGUubWFlPic=

>  <r_lp_tautomer_probability>  (239) 
1

>  <r_epik_Ionization_Penalty>  (239) 
1.49479e-07

>  <r_epik_Ionization_Penalty_Charging>  (239) 
0

>  <r_epik_Ionization_Penalty_Neutral>  (239) 
1.49479e-07

>  <r_epik_State_Penalty>  (239) 
-0

>  <r_epik_Charging_Adjusted_Penalty>  (239) 
0

>  <i_epik_Tot_Q>  (239) 
0

>  <i_epik_Tot_abs_Q>  (239) 
0

>  <s_lp_Force_Field>  (239) 
OPLS3e

>  <r_lp_Energy>  (239) 
55.8911

>  <b_lp_Chiralities_Consistent>  (239) 
1

>  <s_lp_Variant>  (239) 
69:0-10

>  <s_i_glide_gridfile>  (239) 
pfpi4k_grid

>  <i_i_glide_lignum>  (239) 
7

>  <i_i_glide_rotatable_bonds>  (239) 
5

>  <r_i_docking_score>  (239) 
-1.82117

>  <r_i_glide_ligand_efficiency>  (239) 
-0.0520334

>  <r_i_glide_ligand_efficiency_sa>  (239) 
-0.170205

>  <r_i_glide_ligand_efficiency_ln>  (239) 
-0.399787

>  <r_i_glide_gscore>  (239) 
-1.82117

>  <r_i_glide_lipo>  (239) 
-0.52317

>  <r_i_glide_hbond>  (239) 
0

>  <r_i_glide_metal>  (239) 
-0

>  <r_i_glide_rewards>  (239) 
-0.16594

>  <r_i_glide_evdw>  (239) 
-29.1372

>  <r_i_glide_ecoul>  (239) 
0.206807

>  <r_i_glide_erotb>  (239) 
0.357898

>  <r_i_glide_esite>  (239) 
-0.064118

>  <r_i_glide_emodel>  (239) 
-29.2644

>  <r_i_glide_energy>  (239) 
-28.9304

>  <r_i_glide_einternal>  (239) 
4.70275

>  <r_i_glide_intrahb_reward>  (239) 
-0

>  <i_i_glide_confnum>  (239) 
4

>  <i_i_glide_posenum>  (239) 
18

>  <r_i_glide_eff_state_penalty>  (239) 
0

>  <ligand_id>  (239) 
69

>  <original_smiles>  (239) 
CC(=O)C1CC12C(=C(C)C=CC(C)=CC=C(C)C1CC=C(C)C1C)N1CC2C(C)OC(C)=CC1=O

>  <smiles>  (239) 
[H]C(=C([H])C(=C1N2C(=O)C([H])=C(C([H])([H])[H])OC([H])(C([H])([H])[H])C([H])(C2([H])[H])C12C([H])([H])C2([H])C(=O)C([H])([H])[H])C([H])([H])[H])C(=C([H])C([H])=C(C([H])([H])[H])C1([H])C([H])([H])C([H])=C(C([H])([H])[H])C1([H])C([H])([H])[H])C([H])([H])[H]

$$$$
69:10:0
     RDKit          3D

 76 79  0  0  1  0  0  0  0  0999 V2000
    6.2512  -10.8890    2.6667 C   0  0  0  0  0  0  0  0  0  0  0  0
    5.8589  -10.0291    3.8588 C   0  0  0  0  0  0  0  0  0  0  0  0
    5.7754  -10.5220    4.9829 O   0  0  0  0  0  0  0  0  0  0  0  0
    5.5771   -8.5707    3.5803 C   0  0  2  0  0  0  0  0  0  0  0  0
    4.7329   -7.8161    4.5815 C   0  0  0  0  0  0  0  0  0  0  0  0
    4.1421   -8.1724    3.2244 C   0  0  1  0  0  0  0  0  0  0  0  0
    3.8557   -7.1629    2.1093 C   0  0  0  0  0  0  0  0  0  0  0  0
    4.5637   -6.1012    1.6046 C   0  0  0  0  0  0  0  0  0  0  0  0
    5.9473   -5.7429    2.1638 C   0  0  0  0  0  0  0  0  0  0  0  0
    4.1006   -5.4602    0.3540 C   0  0  0  0  0  0  0  0  0  0  0  0
    4.3677   -4.2437   -0.1614 C   0  0  0  0  0  0  0  0  0  0  0  0
    5.1701   -3.1837    0.4225 C   0  0  0  0  0  0  0  0  0  0  0  0
    6.4063   -2.7390   -0.3369 C   0  0  0  0  0  0  0  0  0  0  0  0
    4.7759   -2.6619    1.6010 C   0  0  0  0  0  0  0  0  0  0  0  0
    5.4423   -1.5960    2.3548 C   0  0  0  0  0  0  0  0  0  0  0  0
    5.0119   -1.0318    3.5061 C   0  0  0  0  0  0  0  0  0  0  0  0
    5.8033    0.1146    4.1350 C   0  0  0  0  0  0  0  0  0  0  0  0
    3.7309   -1.4485    4.2462 C   0  0  2  0  0  0  0  0  0  0  0  0
    2.6352   -0.3597    4.2271 C   0  0  0  0  0  0  0  0  0  0  0  0
    2.2418   -0.2195    5.6685 C   0  0  0  0  0  0  0  0  0  0  0  0
    2.9488   -1.0150    6.4806 C   0  0  0  0  0  0  0  0  0  0  0  0
    2.8043   -1.1285    7.9801 C   0  0  0  0  0  0  0  0  0  0  0  0
    3.9440   -1.8663    5.7348 C   0  0  1  0  0  0  0  0  0  0  0  0
    3.6688   -3.3653    5.9591 C   0  0  0  0  0  0  0  0  0  0  0  0
    2.6481   -7.6753    1.5922 N   0  0  0  0  0  0  0  0  0  0  0  0
    2.7102   -9.1231    1.6439 C   0  0  0  0  0  0  0  0  0  0  0  0
    3.0520   -9.2621    3.1119 C   0  0  2  0  0  0  0  0  0  0  0  0
    1.8086   -9.0714    4.0407 C   0  0  1  0  0  0  0  0  0  0  0  0
    1.5900   -7.7821    4.8647 C   0  0  0  0  0  0  0  0  0  0  0  0
    0.5926   -9.5163    3.4464 O   0  0  0  0  0  0  0  0  0  0  0  0
   -0.1188   -8.7941    2.5053 C   0  0  0  0  0  0  0  0  0  0  0  0
   -1.4803   -9.4275    2.3722 C   0  0  0  0  0  0  0  0  0  0  0  0
    0.2352   -7.7316    1.7388 C   0  0  0  0  0  0  0  0  0  0  0  0
    1.4806   -6.9637    1.6722 C   0  0  0  0  0  0  0  0  0  0  0  0
    1.4629   -5.7418    1.7185 O   0  0  0  0  0  0  0  0  0  0  0  0
    5.4604  -10.8303    1.9202 H   0  0  0  0  0  0  0  0  0  0  0  0
    6.3550  -11.9355    2.9604 H   0  0  0  0  0  0  0  0  0  0  0  0
    7.1832  -10.5451    2.2144 H   0  0  0  0  0  0  0  0  0  0  0  0
    6.4092   -8.0210    3.1293 H   0  0  0  0  0  0  0  0  0  0  0  0
    4.3787   -8.3632    5.4569 H   0  0  0  0  0  0  0  0  0  0  0  0
    4.9579   -6.7746    4.7853 H   0  0  0  0  0  0  0  0  0  0  0  0
    6.2546   -4.7071    2.0129 H   0  0  0  0  0  0  0  0  0  0  0  0
    6.7034   -6.3522    1.6643 H   0  0  0  0  0  0  0  0  0  0  0  0
    6.0129   -5.8932    3.2377 H   0  0  0  0  0  0  0  0  0  0  0  0
    3.4521   -6.0489   -0.2815 H   0  0  0  0  0  0  0  0  0  0  0  0
    3.9023   -4.0269   -1.1189 H   0  0  0  0  0  0  0  0  0  0  0  0
    6.9377   -3.6321   -0.6733 H   0  0  0  0  0  0  0  0  0  0  0  0
    7.1060   -2.1674    0.2691 H   0  0  0  0  0  0  0  0  0  0  0  0
    6.1369   -2.1346   -1.2088 H   0  0  0  0  0  0  0  0  0  0  0  0
    3.8601   -3.0889    1.9834 H   0  0  0  0  0  0  0  0  0  0  0  0
    6.3645   -1.1962    1.9722 H   0  0  0  0  0  0  0  0  0  0  0  0
    5.1624    0.9763    4.3140 H   0  0  0  0  0  0  0  0  0  0  0  0
    6.6068    0.4495    3.4810 H   0  0  0  0  0  0  0  0  0  0  0  0
    6.2601   -0.1661    5.0834 H   0  0  0  0  0  0  0  0  0  0  0  0
    3.2869   -2.3134    3.7557 H   0  0  0  0  0  0  0  0  0  0  0  0
    2.9650    0.5927    3.8192 H   0  0  0  0  0  0  0  0  0  0  0  0
    1.7903   -0.6905    3.6281 H   0  0  0  0  0  0  0  0  0  0  0  0
    1.4538    0.4535    5.9731 H   0  0  0  0  0  0  0  0  0  0  0  0
    3.7767   -0.9937    8.4529 H   0  0  0  0  0  0  0  0  0  0  0  0
    2.4339   -2.1187    8.2478 H   0  0  0  0  0  0  0  0  0  0  0  0
    2.1092   -0.3850    8.3812 H   0  0  0  0  0  0  0  0  0  0  0  0
    4.9487   -1.6485    6.0988 H   0  0  0  0  0  0  0  0  0  0  0  0
    3.7775   -3.6620    7.0010 H   0  0  0  0  0  0  0  0  0  0  0  0
    4.3280   -4.0149    5.3811 H   0  0  0  0  0  0  0  0  0  0  0  0
    2.6539   -3.6128    5.6703 H   0  0  0  0  0  0  0  0  0  0  0  0
    1.8609   -9.7047    1.2722 H   0  0  0  0  0  0  0  0  0  0  0  0
    3.5526   -9.4615    1.0345 H   0  0  0  0  0  0  0  0  0  0  0  0
    3.3926  -10.2859    3.2473 H   0  0  0  0  0  0  0  0  0  0  0  0
    1.9640   -9.8261    4.8115 H   0  0  0  0  0  0  0  0  0  0  0  0
    2.2480   -7.7491    5.7289 H   0  0  0  0  0  0  0  0  0  0  0  0
    0.5749   -7.7680    5.2654 H   0  0  0  0  0  0  0  0  0  0  0  0
    1.7413   -6.8608    4.3081 H   0  0  0  0  0  0  0  0  0  0  0  0
   -2.0995   -8.9375    1.6256 H   0  0  0  0  0  0  0  0  0  0  0  0
   -2.0069   -9.4203    3.3229 H   0  0  0  0  0  0  0  0  0  0  0  0
   -1.3432  -10.4577    2.0596 H   0  0  0  0  0  0  0  0  0  0  0  0
   -0.5378   -7.3919    1.0630 H   0  0  0  0  0  0  0  0  0  0  0  0
  1  2  1  0
  1 36  1  0
  1 37  1  0
  1 38  1  0
  2  3  2  0
  2  4  1  0
  4  6  1  0
  4  5  1  0
  4 39  1  6
  6  5  1  1
  5 40  1  0
  5 41  1  0
  6 27  1  0
  6  7  1  0
  7  8  2  3
  7 25  1  0
  8  9  1  0
  8 10  1  0
  9 42  1  0
  9 43  1  0
  9 44  1  0
 10 11  2  3
 10 45  1  0
 11 12  1  0
 11 46  1  0
 12 13  1  0
 12 14  2  3
 13 47  1  0
 13 48  1  0
 13 49  1  0
 14 15  1  0
 14 50  1  0
 15 16  2  3
 15 51  1  0
 16 17  1  0
 16 18  1  0
 17 52  1  0
 17 53  1  0
 17 54  1  0
 18 23  1  0
 18 19  1  0
 18 55  1  6
 19 20  1  0
 19 56  1  0
 19 57  1  0
 20 21  2  0
 20 58  1  0
 21 22  1  0
 21 23  1  0
 22 59  1  0
 22 60  1  0
 22 61  1  0
 23 24  1  0
 23 62  1  1
 24 63  1  0
 24 64  1  0
 24 65  1  0
 25 34  1  0
 25 26  1  0
 26 27  1  0
 26 66  1  0
 26 67  1  0
 27 28  1  0
 27 68  1  6
 28 29  1  0
 28 30  1  0
 28 69  1  1
 29 70  1  0
 29 71  1  0
 29 72  1  0
 30 31  1  0
 31 32  1  0
 31 33  2  3
 32 73  1  0
 32 74  1  0
 32 75  1  0
 33 34  1  0
 33 76  1  0
 34 35  2  0
M  END
>  <i_m_ct_stereo_status>  (240) 
1

>  <s_m_source_file>  (240) 
/var/tmp/pbs.5076255.sched01/tmpk9_hntje/1089a46f3po.sdf

>  <i_m_source_file_index>  (240) 
8

>  <i_lp_mmshare_version>  (240) 
48012

>  <i_f3d_flags>  (240) 
0

>  <s_epik_input>  (240) 
W0NIM11DKD1PKVtDQEhdKFtDSDJdMSlbQ0BAXTEyW0NAQEhdM1tDSDJdTihDKD1PKS9bQ0hdPUMoW0NIM10pXE9bQ0BASF0zW0NIM10pQ1wyPUMoXFtDSDNdKS9bQ0hdPVtDSF0vQyhbQ0gzXSk9W0NIXS9bQ0hdPUMoXFtDSDNdKVtDQEBIXTRbQ0gyXVtDSF09QyhbQ0gzXSlbQ0BIXTRbQ0gzXQ==

>  <s_epik_cmdline>  (240) 
J2VwaWtfcHl0aG9uJywgJy1waHQnLCAnMi4wJywgJy1waCcsICc3LjAnLCAnLXRuJywgJzgnLCAnLW1hJywgJzIwMCcsICctaW1hZScsICc8aW5maWxlLm1hZT4nLCAnLW9tYWUnLCAnPG91dGZpbGUubWFlPic=

>  <r_lp_tautomer_probability>  (240) 
1

>  <r_epik_Ionization_Penalty>  (240) 
1.49479e-07

>  <r_epik_Ionization_Penalty_Charging>  (240) 
0

>  <r_epik_Ionization_Penalty_Neutral>  (240) 
1.49479e-07

>  <r_epik_State_Penalty>  (240) 
-0

>  <r_epik_Charging_Adjusted_Penalty>  (240) 
0

>  <i_epik_Tot_Q>  (240) 
0

>  <i_epik_Tot_abs_Q>  (240) 
0

>  <s_lp_Force_Field>  (240) 
OPLS3e

>  <r_lp_Energy>  (240) 
61.6635

>  <b_lp_Chiralities_Consistent>  (240) 
1

>  <s_lp_Variant>  (240) 
69:0-11

>  <s_i_glide_gridfile>  (240) 
pfpi4k_grid

>  <i_i_glide_lignum>  (240) 
8

>  <i_i_glide_rotatable_bonds>  (240) 
5

>  <r_i_docking_score>  (240) 
-2.37459

>  <r_i_glide_ligand_efficiency>  (240) 
-0.0678454

>  <r_i_glide_ligand_efficiency_sa>  (240) 
-0.221927

>  <r_i_glide_ligand_efficiency_ln>  (240) 
-0.521275

>  <r_i_glide_gscore>  (240) 
-2.37459

>  <r_i_glide_lipo>  (240) 
-0.818461

>  <r_i_glide_hbond>  (240) 
-0.0878345

>  <r_i_glide_metal>  (240) 
-0

>  <r_i_glide_rewards>  (240) 
-0.16594

>  <r_i_glide_evdw>  (240) 
-28.9587

>  <r_i_glide_ecoul>  (240) 
-1.0751

>  <r_i_glide_erotb>  (240) 
0.357898

>  <r_i_glide_esite>  (240) 
-0.0510518

>  <r_i_glide_emodel>  (240) 
-31.1945

>  <r_i_glide_energy>  (240) 
-30.0338

>  <r_i_glide_einternal>  (240) 
6.02029

>  <r_i_glide_intrahb_reward>  (240) 
-0

>  <i_i_glide_confnum>  (240) 
3

>  <i_i_glide_posenum>  (240) 
9

>  <r_i_glide_eff_state_penalty>  (240) 
0

>  <ligand_id>  (240) 
69

>  <original_smiles>  (240) 
CC(=O)C1CC12C(=C(C)C=CC(C)=CC=C(C)C1CC=C(C)C1C)N1CC2C(C)OC(C)=CC1=O

>  <smiles>  (240) 
[H]C(=C([H])C(=C1N2C(=O)C([H])=C(C([H])([H])[H])OC([H])(C([H])([H])[H])C([H])(C2([H])[H])C12C([H])([H])C2([H])C(=O)C([H])([H])[H])C([H])([H])[H])C(=C([H])C([H])=C(C([H])([H])[H])C1([H])C([H])([H])C([H])=C(C([H])([H])[H])C1([H])C([H])([H])[H])C([H])([H])[H]

$$$$
69:10:1
     RDKit          3D

 76 79  0  0  1  0  0  0  0  0999 V2000
    5.7502  -10.4384    5.3369 C   0  0  0  0  0  0  0  0  0  0  0  0
    5.9390   -9.9066    3.9198 C   0  0  0  0  0  0  0  0  0  0  0  0
    6.3356  -10.6624    3.0288 O   0  0  0  0  0  0  0  0  0  0  0  0
    5.6365   -8.4546    3.6186 C   0  0  2  0  0  0  0  0  0  0  0  0
    4.7641   -7.6738    4.5811 C   0  0  0  0  0  0  0  0  0  0  0  0
    4.1991   -8.0759    3.2294 C   0  0  1  0  0  0  0  0  0  0  0  0
    3.9161   -7.0856    2.1091 C   0  0  0  0  0  0  0  0  0  0  0  0
    4.6035   -6.0124    1.6037 C   0  0  0  0  0  0  0  0  0  0  0  0
    5.9800   -5.6276    2.1633 C   0  0  0  0  0  0  0  0  0  0  0  0
    4.1392   -5.3768    0.3524 C   0  0  0  0  0  0  0  0  0  0  0  0
    4.3811   -4.1522   -0.1582 C   0  0  0  0  0  0  0  0  0  0  0  0
    5.1531   -3.0720    0.4310 C   0  0  0  0  0  0  0  0  0  0  0  0
    6.3293   -2.5467   -0.3658 C   0  0  0  0  0  0  0  0  0  0  0  0
    4.7777   -2.6089    1.6412 C   0  0  0  0  0  0  0  0  0  0  0  0
    5.4300   -1.5413    2.4030 C   0  0  0  0  0  0  0  0  0  0  0  0
    5.0320   -1.0441    3.5944 C   0  0  0  0  0  0  0  0  0  0  0  0
    5.7940    0.1202    4.2336 C   0  0  0  0  0  0  0  0  0  0  0  0
    3.8025   -1.5524    4.3725 C   0  0  2  0  0  0  0  0  0  0  0  0
    2.6566   -0.5191    4.4404 C   0  0  0  0  0  0  0  0  0  0  0  0
    2.3249   -0.4553    5.9059 C   0  0  0  0  0  0  0  0  0  0  0  0
    3.1021   -1.2366    6.6521 C   0  0  0  0  0  0  0  0  0  0  0  0
    3.0335   -1.4131    8.1524 C   0  0  0  0  0  0  0  0  0  0  0  0
    4.1040   -2.0144    5.8336 C   0  0  1  0  0  0  0  0  0  0  0  0
    3.9132   -3.5256    6.0127 C   0  0  0  0  0  0  0  0  0  0  0  0
    2.7077   -7.6104    1.5903 N   0  0  0  0  0  0  0  0  0  0  0  0
    2.7909   -9.0562    1.6483 C   0  0  0  0  0  0  0  0  0  0  0  0
    3.1322   -9.1844    3.1171 C   0  0  2  0  0  0  0  0  0  0  0  0
    1.8830   -9.0098    4.0454 C   0  0  1  0  0  0  0  0  0  0  0  0
    1.6356   -7.7253    4.8633 C   0  0  0  0  0  0  0  0  0  0  0  0
    0.6724   -9.4762    3.4504 O   0  0  0  0  0  0  0  0  0  0  0  0
   -0.0483   -8.7711    2.5036 C   0  0  0  0  0  0  0  0  0  0  0  0
   -1.3974   -9.4304    2.3668 C   0  0  0  0  0  0  0  0  0  0  0  0
    0.2893   -7.7076    1.7339 C   0  0  0  0  0  0  0  0  0  0  0  0
    1.5262   -6.9161    1.6716 C   0  0  0  0  0  0  0  0  0  0  0  0
    1.4845   -5.7004    1.7165 O   0  0  0  0  0  0  0  0  0  0  0  0
    6.3884   -9.9096    6.0514 H   0  0  0  0  0  0  0  0  0  0  0  0
    5.9752  -11.5037    5.3940 H   0  0  0  0  0  0  0  0  0  0  0  0
    4.7100  -10.3161    5.6453 H   0  0  0  0  0  0  0  0  0  0  0  0
    6.4649   -7.9171    3.1560 H   0  0  0  0  0  0  0  0  0  0  0  0
    4.3940   -8.1937    5.4662 H   0  0  0  0  0  0  0  0  0  0  0  0
    5.0038   -6.6296    4.7576 H   0  0  0  0  0  0  0  0  0  0  0  0
    6.2778   -4.5928    1.9974 H   0  0  0  0  0  0  0  0  0  0  0  0
    6.7330   -6.2544    1.6907 H   0  0  0  0  0  0  0  0  0  0  0  0
    6.0489   -5.7714    3.2346 H   0  0  0  0  0  0  0  0  0  0  0  0
    3.4937   -5.9830   -0.2713 H   0  0  0  0  0  0  0  0  0  0  0  0
    3.9093   -3.9510   -1.1145 H   0  0  0  0  0  0  0  0  0  0  0  0
    6.8858   -3.3981   -0.7650 H   0  0  0  0  0  0  0  0  0  0  0  0
    7.0277   -1.9623    0.2316 H   0  0  0  0  0  0  0  0  0  0  0  0
    5.9923   -1.9289   -1.2009 H   0  0  0  0  0  0  0  0  0  0  0  0
    3.8942   -3.0755    2.0467 H   0  0  0  0  0  0  0  0  0  0  0  0
    6.3110   -1.0806    1.9903 H   0  0  0  0  0  0  0  0  0  0  0  0
    5.1196    0.9445    4.4718 H   0  0  0  0  0  0  0  0  0  0  0  0
    6.5484    0.5150    3.5590 H   0  0  0  0  0  0  0  0  0  0  0  0
    6.3000   -0.1759    5.1422 H   0  0  0  0  0  0  0  0  0  0  0  0
    3.3849   -2.4195    3.8644 H   0  0  0  0  0  0  0  0  0  0  0  0
    2.9223    0.4614    4.0584 H   0  0  0  0  0  0  0  0  0  0  0  0
    1.8002   -0.8704    3.8711 H   0  0  0  0  0  0  0  0  0  0  0  0
    1.5218    0.1711    6.2690 H   0  0  0  0  0  0  0  0  0  0  0  0
    4.0179   -1.2412    8.5903 H   0  0  0  0  0  0  0  0  0  0  0  0
    2.7205   -2.4284    8.3992 H   0  0  0  0  0  0  0  0  0  0  0  0
    2.3198   -0.7164    8.6115 H   0  0  0  0  0  0  0  0  0  0  0  0
    5.1050   -1.7574    6.1588 H   0  0  0  0  0  0  0  0  0  0  0  0
    4.0844   -3.8578    7.0368 H   0  0  0  0  0  0  0  0  0  0  0  0
    4.5742   -4.1204    5.3851 H   0  0  0  0  0  0  0  0  0  0  0  0
    2.9007   -3.8200    5.7598 H   0  0  0  0  0  0  0  0  0  0  0  0
    1.9513   -9.6532    1.2752 H   0  0  0  0  0  0  0  0  0  0  0  0
    3.6445   -9.3905    1.0449 H   0  0  0  0  0  0  0  0  0  0  0  0
    3.4953  -10.2012    3.2520 H   0  0  0  0  0  0  0  0  0  0  0  0
    2.0431   -9.7638    4.8194 H   0  0  0  0  0  0  0  0  0  0  0  0
    2.2878   -7.6786    5.7319 H   0  0  0  0  0  0  0  0  0  0  0  0
    0.6204   -7.7241    5.2600 H   0  0  0  0  0  0  0  0  0  0  0  0
    1.7761   -6.8024    4.3058 H   0  0  0  0  0  0  0  0  0  0  0  0
   -2.0186   -8.9519    1.6160 H   0  0  0  0  0  0  0  0  0  0  0  0
   -1.9280   -9.4227    3.3128 H   0  0  0  0  0  0  0  0  0  0  0  0
   -1.2438  -10.4579    2.0624 H   0  0  0  0  0  0  0  0  0  0  0  0
   -0.4834   -7.3746    1.0494 H   0  0  0  0  0  0  0  0  0  0  0  0
  1  2  1  0
  1 36  1  0
  1 37  1  0
  1 38  1  0
  2  3  2  0
  2  4  1  0
  4  6  1  0
  4  5  1  0
  4 39  1  6
  6  5  1  1
  5 40  1  0
  5 41  1  0
  6 27  1  0
  6  7  1  0
  7  8  2  3
  7 25  1  0
  8  9  1  0
  8 10  1  0
  9 42  1  0
  9 43  1  0
  9 44  1  0
 10 11  2  3
 10 45  1  0
 11 12  1  0
 11 46  1  0
 12 13  1  0
 12 14  2  3
 13 47  1  0
 13 48  1  0
 13 49  1  0
 14 15  1  0
 14 50  1  0
 15 16  2  3
 15 51  1  0
 16 17  1  0
 16 18  1  0
 17 52  1  0
 17 53  1  0
 17 54  1  0
 18 23  1  0
 18 19  1  0
 18 55  1  6
 19 20  1  0
 19 56  1  0
 19 57  1  0
 20 21  2  0
 20 58  1  0
 21 22  1  0
 21 23  1  0
 22 59  1  0
 22 60  1  0
 22 61  1  0
 23 24  1  0
 23 62  1  1
 24 63  1  0
 24 64  1  0
 24 65  1  0
 25 34  1  0
 25 26  1  0
 26 27  1  0
 26 66  1  0
 26 67  1  0
 27 28  1  0
 27 68  1  6
 28 29  1  0
 28 30  1  0
 28 69  1  1
 29 70  1  0
 29 71  1  0
 29 72  1  0
 30 31  1  0
 31 32  1  0
 31 33  2  3
 32 73  1  0
 32 74  1  0
 32 75  1  0
 33 34  1  0
 33 76  1  0
 34 35  2  0
M  END
>  <i_m_ct_stereo_status>  (241) 
1

>  <s_m_source_file>  (241) 
/var/tmp/pbs.5076255.sched01/tmpk9_hntje/1089a46f3po.sdf

>  <i_m_source_file_index>  (241) 
8

>  <i_lp_mmshare_version>  (241) 
48012

>  <i_f3d_flags>  (241) 
0

>  <s_epik_input>  (241) 
W0NIM11DKD1PKVtDQEhdKFtDSDJdMSlbQ0BAXTEyW0NAQEhdM1tDSDJdTihDKD1PKS9bQ0hdPUMoW0NIM10pXE9bQ0BASF0zW0NIM10pQ1wyPUMoXFtDSDNdKS9bQ0hdPVtDSF0vQyhbQ0gzXSk9W0NIXS9bQ0hdPUMoXFtDSDNdKVtDQEBIXTRbQ0gyXVtDSF09QyhbQ0gzXSlbQ0BIXTRbQ0gzXQ==

>  <s_epik_cmdline>  (241) 
J2VwaWtfcHl0aG9uJywgJy1waHQnLCAnMi4wJywgJy1waCcsICc3LjAnLCAnLXRuJywgJzgnLCAnLW1hJywgJzIwMCcsICctaW1hZScsICc8aW5maWxlLm1hZT4nLCAnLW9tYWUnLCAnPG91dGZpbGUubWFlPic=

>  <r_lp_tautomer_probability>  (241) 
1

>  <r_epik_Ionization_Penalty>  (241) 
1.49479e-07

>  <r_epik_Ionization_Penalty_Charging>  (241) 
0

>  <r_epik_Ionization_Penalty_Neutral>  (241) 
1.49479e-07

>  <r_epik_State_Penalty>  (241) 
-0

>  <r_epik_Charging_Adjusted_Penalty>  (241) 
0

>  <i_epik_Tot_Q>  (241) 
0

>  <i_epik_Tot_abs_Q>  (241) 
0

>  <s_lp_Force_Field>  (241) 
OPLS3e

>  <r_lp_Energy>  (241) 
61.6635

>  <b_lp_Chiralities_Consistent>  (241) 
1

>  <s_lp_Variant>  (241) 
69:0-11

>  <s_i_glide_gridfile>  (241) 
pfpi4k_grid

>  <i_i_glide_lignum>  (241) 
8

>  <i_i_glide_rotatable_bonds>  (241) 
5

>  <r_i_docking_score>  (241) 
-2.36651

>  <r_i_glide_ligand_efficiency>  (241) 
-0.0676146

>  <r_i_glide_ligand_efficiency_sa>  (241) 
-0.221172

>  <r_i_glide_ligand_efficiency_ln>  (241) 
-0.519502

>  <r_i_glide_gscore>  (241) 
-2.36651

>  <r_i_glide_lipo>  (241) 
-0.793939

>  <r_i_glide_hbond>  (241) 
-0.0871865

>  <r_i_glide_metal>  (241) 
-0

>  <r_i_glide_rewards>  (241) 
-0.16594

>  <r_i_glide_evdw>  (241) 
-28.4259

>  <r_i_glide_ecoul>  (241) 
-1.40076

>  <r_i_glide_erotb>  (241) 
0.357898

>  <r_i_glide_esite>  (241) 
-0.0459366

>  <r_i_glide_emodel>  (241) 
-30.2933

>  <r_i_glide_energy>  (241) 
-29.8266

>  <r_i_glide_einternal>  (241) 
7.19955

>  <r_i_glide_intrahb_reward>  (241) 
-0

>  <i_i_glide_confnum>  (241) 
3

>  <i_i_glide_posenum>  (241) 
3

>  <r_i_glide_eff_state_penalty>  (241) 
0

>  <ligand_id>  (241) 
69

>  <original_smiles>  (241) 
CC(=O)C1CC12C(=C(C)C=CC(C)=CC=C(C)C1CC=C(C)C1C)N1CC2C(C)OC(C)=CC1=O

>  <smiles>  (241) 
[H]C(=C([H])C(=C1N2C(=O)C([H])=C(C([H])([H])[H])OC([H])(C([H])([H])[H])C([H])(C2([H])[H])C12C([H])([H])C2([H])C(=O)C([H])([H])[H])C([H])([H])[H])C(=C([H])C([H])=C(C([H])([H])[H])C1([H])C([H])([H])C([H])=C(C([H])([H])[H])C1([H])C([H])([H])[H])C([H])([H])[H]

$$$$
69:10:2
     RDKit          3D

 76 79  0  0  1  0  0  0  0  0999 V2000
    4.1562   -8.2564    8.6882 C   0  0  0  0  0  0  0  0  0  0  0  0
    3.6135   -6.9585    8.1291 C   0  0  0  0  0  0  0  0  0  0  0  0
    2.7677   -6.3158    8.7648 O   0  0  0  0  0  0  0  0  0  0  0  0
    4.0823   -6.5519    6.7540 C   0  0  2  0  0  0  0  0  0  0  0  0
    3.4275   -5.3563    6.1055 C   0  0  0  0  0  0  0  0  0  0  0  0
    3.1360   -6.7526    5.5526 C   0  0  1  0  0  0  0  0  0  0  0  0
    3.6565   -7.2696    4.2369 C   0  0  0  0  0  0  0  0  0  0  0  0
    4.8591   -7.1940    3.5652 C   0  0  0  0  0  0  0  0  0  0  0  0
    6.0570   -6.4807    4.2000 C   0  0  0  0  0  0  0  0  0  0  0  0
    5.0839   -8.0262    2.3749 C   0  0  0  0  0  0  0  0  0  0  0  0
    5.8961   -7.8143    1.3170 C   0  0  0  0  0  0  0  0  0  0  0  0
    6.7292   -6.6532    1.0504 C   0  0  0  0  0  0  0  0  0  0  0  0
    8.2193   -6.8830    0.8796 C   0  0  0  0  0  0  0  0  0  0  0  0
    6.1491   -5.4323    1.0018 C   0  0  0  0  0  0  0  0  0  0  0  0
    6.8240   -4.1635    0.7610 C   0  0  0  0  0  0  0  0  0  0  0  0
    6.2808   -2.9323    0.8636 C   0  0  0  0  0  0  0  0  0  0  0  0
    7.1016   -1.6994    0.5015 C   0  0  0  0  0  0  0  0  0  0  0  0
    4.8379   -2.6653    1.3301 C   0  0  2  0  0  0  0  0  0  0  0  0
    3.9383   -2.0669    0.2212 C   0  0  0  0  0  0  0  0  0  0  0  0
    3.3210   -0.8645    0.8766 C   0  0  0  0  0  0  0  0  0  0  0  0
    3.7355   -0.6605    2.1124 C   0  0  0  0  0  0  0  0  0  0  0  0
    3.3125    0.4296    3.0663 C   0  0  0  0  0  0  0  0  0  0  0  0
    4.7206   -1.7335    2.5829 C   0  0  1  0  0  0  0  0  0  0  0  0
    4.1741   -2.4825    3.8013 C   0  0  0  0  0  0  0  0  0  0  0  0
    2.5433   -8.0327    3.7597 N   0  0  0  0  0  0  0  0  0  0  0  0
    1.9298   -8.6460    4.9262 C   0  0  0  0  0  0  0  0  0  0  0  0
    1.7551   -7.4027    5.7684 C   0  0  2  0  0  0  0  0  0  0  0  0
    0.5383   -6.5269    5.3284 C   0  0  1  0  0  0  0  0  0  0  0  0
    0.7133   -5.2093    4.5499 C   0  0  0  0  0  0  0  0  0  0  0  0
   -0.5435   -7.2897    4.8047 O   0  0  0  0  0  0  0  0  0  0  0  0
   -0.5738   -7.8363    3.5312 C   0  0  0  0  0  0  0  0  0  0  0  0
   -1.9702   -8.3106    3.2583 C   0  0  0  0  0  0  0  0  0  0  0  0
    0.4236   -8.0046    2.6100 C   0  0  0  0  0  0  0  0  0  0  0  0
    1.8475   -7.6537    2.6547 C   0  0  0  0  0  0  0  0  0  0  0  0
    2.3649   -7.0041    1.7465 O   0  0  0  0  0  0  0  0  0  0  0  0
    3.9469   -9.0620    7.9851 H   0  0  0  0  0  0  0  0  0  0  0  0
    3.6772   -8.5001    9.6368 H   0  0  0  0  0  0  0  0  0  0  0  0
    5.2392   -8.1926    8.8372 H   0  0  0  0  0  0  0  0  0  0  0  0
    5.1556   -6.6741    6.5825 H   0  0  0  0  0  0  0  0  0  0  0  0
    2.6420   -4.8475    6.6646 H   0  0  0  0  0  0  0  0  0  0  0  0
    4.0444   -4.6901    5.5260 H   0  0  0  0  0  0  0  0  0  0  0  0
    6.8114   -6.1569    3.4933 H   0  0  0  0  0  0  0  0  0  0  0  0
    6.5811   -7.1629    4.8678 H   0  0  0  0  0  0  0  0  0  0  0  0
    5.7746   -5.5841    4.7427 H   0  0  0  0  0  0  0  0  0  0  0  0
    4.5416   -8.9573    2.3307 H   0  0  0  0  0  0  0  0  0  0  0  0
    5.8895   -8.6022    0.5688 H   0  0  0  0  0  0  0  0  0  0  0  0
    8.5594   -7.5642    1.6604 H   0  0  0  0  0  0  0  0  0  0  0  0
    8.8191   -5.9835    0.9722 H   0  0  0  0  0  0  0  0  0  0  0  0
    8.4414   -7.3326   -0.0869 H   0  0  0  0  0  0  0  0  0  0  0  0
    5.0819   -5.4532    1.1477 H   0  0  0  0  0  0  0  0  0  0  0  0
    7.8538   -4.1838    0.4399 H   0  0  0  0  0  0  0  0  0  0  0  0
    6.5645   -1.0684   -0.2106 H   0  0  0  0  0  0  0  0  0  0  0  0
    8.0501   -1.9730    0.0342 H   0  0  0  0  0  0  0  0  0  0  0  0
    7.3331   -1.0821    1.3659 H   0  0  0  0  0  0  0  0  0  0  0  0
    4.3638   -3.5950    1.6162 H   0  0  0  0  0  0  0  0  0  0  0  0
    4.4697   -1.7849   -0.6830 H   0  0  0  0  0  0  0  0  0  0  0  0
    3.1650   -2.7790   -0.0664 H   0  0  0  0  0  0  0  0  0  0  0  0
    2.5935   -0.2562    0.3537 H   0  0  0  0  0  0  0  0  0  0  0  0
    4.1911    0.9372    3.4640 H   0  0  0  0  0  0  0  0  0  0  0  0
    2.7523    0.0175    3.9039 H   0  0  0  0  0  0  0  0  0  0  0  0
    2.6783    1.1686    2.5628 H   0  0  0  0  0  0  0  0  0  0  0  0
    5.6617   -1.2596    2.8454 H   0  0  0  0  0  0  0  0  0  0  0  0
    4.0481   -1.8369    4.6668 H   0  0  0  0  0  0  0  0  0  0  0  0
    4.8444   -3.2829    4.0864 H   0  0  0  0  0  0  0  0  0  0  0  0
    3.2036   -2.9180    3.5873 H   0  0  0  0  0  0  0  0  0  0  0  0
    1.0479   -9.2756    4.7920 H   0  0  0  0  0  0  0  0  0  0  0  0
    2.6622   -9.3032    5.4010 H   0  0  0  0  0  0  0  0  0  0  0  0
    1.5513   -7.7458    6.7773 H   0  0  0  0  0  0  0  0  0  0  0  0
    0.1208   -6.1912    6.2822 H   0  0  0  0  0  0  0  0  0  0  0  0
    1.0494   -4.3982    5.1967 H   0  0  0  0  0  0  0  0  0  0  0  0
   -0.2432   -4.8830    4.1589 H   0  0  0  0  0  0  0  0  0  0  0  0
    1.4051   -5.2678    3.7127 H   0  0  0  0  0  0  0  0  0  0  0  0
   -2.0719   -8.7759    2.2797 H   0  0  0  0  0  0  0  0  0  0  0  0
   -2.6589   -7.4744    3.3210 H   0  0  0  0  0  0  0  0  0  0  0  0
   -2.2610   -9.0392    4.0090 H   0  0  0  0  0  0  0  0  0  0  0  0
    0.1046   -8.4704    1.6882 H   0  0  0  0  0  0  0  0  0  0  0  0
  1  2  1  0
  1 36  1  0
  1 37  1  0
  1 38  1  0
  2  3  2  0
  2  4  1  0
  4  6  1  0
  4  5  1  0
  4 39  1  6
  6  5  1  6
  5 40  1  0
  5 41  1  0
  6 27  1  0
  6  7  1  0
  7  8  2  3
  7 25  1  0
  8  9  1  0
  8 10  1  0
  9 42  1  0
  9 43  1  0
  9 44  1  0
 10 11  2  3
 10 45  1  0
 11 12  1  0
 11 46  1  0
 12 13  1  0
 12 14  2  3
 13 47  1  0
 13 48  1  0
 13 49  1  0
 14 15  1  0
 14 50  1  0
 15 16  2  3
 15 51  1  0
 16 17  1  0
 16 18  1  0
 17 52  1  0
 17 53  1  0
 17 54  1  0
 18 23  1  0
 18 19  1  0
 18 55  1  1
 19 20  1  0
 19 56  1  0
 19 57  1  0
 20 21  2  0
 20 58  1  0
 21 22  1  0
 21 23  1  0
 22 59  1  0
 22 60  1  0
 22 61  1  0
 23 24  1  0
 23 62  1  1
 24 63  1  0
 24 64  1  0
 24 65  1  0
 25 34  1  0
 25 26  1  0
 26 27  1  0
 26 66  1  0
 26 67  1  0
 27 28  1  0
 27 68  1  1
 28 29  1  0
 28 30  1  0
 28 69  1  1
 29 70  1  0
 29 71  1  0
 29 72  1  0
 30 31  1  0
 31 32  1  0
 31 33  2  3
 32 73  1  0
 32 74  1  0
 32 75  1  0
 33 34  1  0
 33 76  1  0
 34 35  2  0
M  END
>  <i_m_ct_stereo_status>  (242) 
1

>  <s_m_source_file>  (242) 
/var/tmp/pbs.5076255.sched01/tmpk9_hntje/1089a46f3po.sdf

>  <i_m_source_file_index>  (242) 
8

>  <i_lp_mmshare_version>  (242) 
48012

>  <i_f3d_flags>  (242) 
0

>  <s_epik_input>  (242) 
W0NIM11DKD1PKVtDQEhdKFtDSDJdMSlbQ0BAXTEyW0NAQEhdM1tDSDJdTihDKD1PKS9bQ0hdPUMoW0NIM10pXE9bQ0BASF0zW0NIM10pQ1wyPUMoXFtDSDNdKS9bQ0hdPVtDSF0vQyhbQ0gzXSk9W0NIXS9bQ0hdPUMoXFtDSDNdKVtDQEBIXTRbQ0gyXVtDSF09QyhbQ0gzXSlbQ0BIXTRbQ0gzXQ==

>  <s_epik_cmdline>  (242) 
J2VwaWtfcHl0aG9uJywgJy1waHQnLCAnMi4wJywgJy1waCcsICc3LjAnLCAnLXRuJywgJzgnLCAnLW1hJywgJzIwMCcsICctaW1hZScsICc8aW5maWxlLm1hZT4nLCAnLW9tYWUnLCAnPG91dGZpbGUubWFlPic=

>  <r_lp_tautomer_probability>  (242) 
1

>  <r_epik_Ionization_Penalty>  (242) 
1.49479e-07

>  <r_epik_Ionization_Penalty_Charging>  (242) 
0

>  <r_epik_Ionization_Penalty_Neutral>  (242) 
1.49479e-07

>  <r_epik_State_Penalty>  (242) 
-0

>  <r_epik_Charging_Adjusted_Penalty>  (242) 
0

>  <i_epik_Tot_Q>  (242) 
0

>  <i_epik_Tot_abs_Q>  (242) 
0

>  <s_lp_Force_Field>  (242) 
OPLS3e

>  <r_lp_Energy>  (242) 
61.6635

>  <b_lp_Chiralities_Consistent>  (242) 
1

>  <s_lp_Variant>  (242) 
69:0-11

>  <s_i_glide_gridfile>  (242) 
pfpi4k_grid

>  <i_i_glide_lignum>  (242) 
8

>  <i_i_glide_rotatable_bonds>  (242) 
5

>  <r_i_docking_score>  (242) 
-2.02837

>  <r_i_glide_ligand_efficiency>  (242) 
-0.0579534

>  <r_i_glide_ligand_efficiency_sa>  (242) 
-0.18957

>  <r_i_glide_ligand_efficiency_ln>  (242) 
-0.445272

>  <r_i_glide_gscore>  (242) 
-2.02837

>  <r_i_glide_lipo>  (242) 
-0.576702

>  <r_i_glide_hbond>  (242) 
0

>  <r_i_glide_metal>  (242) 
-0

>  <r_i_glide_rewards>  (242) 
-0.16594

>  <r_i_glide_evdw>  (242) 
-27.0527

>  <r_i_glide_ecoul>  (242) 
-1.8288

>  <r_i_glide_erotb>  (242) 
0.357898

>  <r_i_glide_esite>  (242) 
-0.0166707

>  <r_i_glide_emodel>  (242) 
-29.071

>  <r_i_glide_energy>  (242) 
-28.8815

>  <r_i_glide_einternal>  (242) 
6.53971

>  <r_i_glide_intrahb_reward>  (242) 
-0

>  <i_i_glide_confnum>  (242) 
3

>  <i_i_glide_posenum>  (242) 
12

>  <r_i_glide_eff_state_penalty>  (242) 
0

>  <ligand_id>  (242) 
69

>  <original_smiles>  (242) 
CC(=O)C1CC12C(=C(C)C=CC(C)=CC=C(C)C1CC=C(C)C1C)N1CC2C(C)OC(C)=CC1=O

>  <smiles>  (242) 
[H]C(=C([H])C(=C1N2C(=O)C([H])=C(C([H])([H])[H])OC([H])(C([H])([H])[H])C([H])(C2([H])[H])C12C([H])([H])C2([H])C(=O)C([H])([H])[H])C([H])([H])[H])C(=C([H])C([H])=C(C([H])([H])[H])C1([H])C([H])([H])C([H])=C(C([H])([H])[H])C1([H])C([H])([H])[H])C([H])([H])[H]

$$$$
69:13:0
     RDKit          3D

 76 79  0  0  1  0  0  0  0  0999 V2000
    4.4916   -4.1786    6.5473 C   0  0  0  0  0  0  0  0  0  0  0  0
    3.0324   -4.0242    6.1647 C   0  0  0  0  0  0  0  0  0  0  0  0
    2.1525   -4.0710    7.0208 O   0  0  0  0  0  0  0  0  0  0  0  0
    2.7623   -3.7960    4.6953 C   0  0  2  0  0  0  0  0  0  0  0  0
    1.3690   -3.5509    4.2078 C   0  0  0  0  0  0  0  0  0  0  0  0
    2.0362   -4.8813    3.8685 C   0  0  1  0  0  0  0  0  0  0  0  0
    2.4310   -5.2255    2.4381 C   0  0  0  0  0  0  0  0  0  0  0  0
    3.1326   -4.5648    1.4526 C   0  0  0  0  0  0  0  0  0  0  0  0
    3.5845   -5.2913    0.1786 C   0  0  0  0  0  0  0  0  0  0  0  0
    3.5506   -3.1847    1.5907 C   0  0  0  0  0  0  0  0  0  0  0  0
    4.2209   -2.4413    0.6761 C   0  0  0  0  0  0  0  0  0  0  0  0
    4.5932   -1.0489    0.8524 C   0  0  0  0  0  0  0  0  0  0  0  0
    5.9602   -0.6486    0.3487 C   0  0  0  0  0  0  0  0  0  0  0  0
    3.8187   -0.1200    1.4653 C   0  0  0  0  0  0  0  0  0  0  0  0
    2.4872   -0.3261    2.0113 C   0  0  0  0  0  0  0  0  0  0  0  0
    1.8947    0.3860    3.0052 C   0  0  0  0  0  0  0  0  0  0  0  0
    0.5056   -0.0093    3.4898 C   0  0  0  0  0  0  0  0  0  0  0  0
    2.5565    1.5671    3.7241 C   0  0  2  0  0  0  0  0  0  0  0  0
    2.8582    1.2869    5.2284 C   0  0  0  0  0  0  0  0  0  0  0  0
    2.2138    2.4357    5.9492 C   0  0  0  0  0  0  0  0  0  0  0  0
    1.5929    3.2835    5.1334 C   0  0  0  0  0  0  0  0  0  0  0  0
    0.8261    4.5250    5.5334 C   0  0  0  0  0  0  0  0  0  0  0  0
    1.7154    2.8928    3.6792 C   0  0  1  0  0  0  0  0  0  0  0  0
    2.3920    3.9795    2.8408 C   0  0  0  0  0  0  0  0  0  0  0  0
    1.9343   -6.5382    2.2714 N   0  0  0  0  0  0  0  0  0  0  0  0
    2.1578   -7.2549    3.5250 C   0  0  0  0  0  0  0  0  0  0  0  0
    1.6876   -6.2382    4.5639 C   0  0  2  0  0  0  0  0  0  0  0  0
    0.2008   -6.5266    4.9234 C   0  0  1  0  0  0  0  0  0  0  0  0
   -0.4119   -5.7834    6.1371 C   0  0  0  0  0  0  0  0  0  0  0  0
   -0.6292   -6.3131    3.7900 O   0  0  0  0  0  0  0  0  0  0  0  0
   -0.8531   -7.4351    3.0356 C   0  0  0  0  0  0  0  0  0  0  0  0
   -1.9565   -8.3323    3.5547 C   0  0  0  0  0  0  0  0  0  0  0  0
   -0.1395   -7.7069    1.9342 C   0  0  0  0  0  0  0  0  0  0  0  0
    0.8847   -6.7870    1.4234 C   0  0  0  0  0  0  0  0  0  0  0  0
    0.7135   -6.1968    0.3667 O   0  0  0  0  0  0  0  0  0  0  0  0
    4.9332   -4.9893    5.9695 H   0  0  0  0  0  0  0  0  0  0  0  0
    4.5854   -4.4205    7.6075 H   0  0  0  0  0  0  0  0  0  0  0  0
    5.0578   -3.2640    6.3401 H   0  0  0  0  0  0  0  0  0  0  0  0
    3.5769   -3.2182    4.2534 H   0  0  0  0  0  0  0  0  0  0  0  0
    0.6081   -3.4389    4.9727 H   0  0  0  0  0  0  0  0  0  0  0  0
    1.2221   -2.8916    3.3514 H   0  0  0  0  0  0  0  0  0  0  0  0
    4.6746   -5.2357    0.1050 H   0  0  0  0  0  0  0  0  0  0  0  0
    3.1386   -4.8156   -0.6975 H   0  0  0  0  0  0  0  0  0  0  0  0
    3.3349   -6.3554    0.1468 H   0  0  0  0  0  0  0  0  0  0  0  0
    3.3011   -2.6498    2.4820 H   0  0  0  0  0  0  0  0  0  0  0  0
    4.5284   -2.8806   -0.2629 H   0  0  0  0  0  0  0  0  0  0  0  0
    6.7658   -1.1603    0.8748 H   0  0  0  0  0  0  0  0  0  0  0  0
    6.1170    0.4273    0.4893 H   0  0  0  0  0  0  0  0  0  0  0  0
    6.0285   -0.8308   -0.7255 H   0  0  0  0  0  0  0  0  0  0  0  0
    4.2167    0.8813    1.5247 H   0  0  0  0  0  0  0  0  0  0  0  0
    1.9082   -1.1182    1.5750 H   0  0  0  0  0  0  0  0  0  0  0  0
   -0.2346    0.7794    3.3519 H   0  0  0  0  0  0  0  0  0  0  0  0
    0.5215   -0.2762    4.5484 H   0  0  0  0  0  0  0  0  0  0  0  0
    0.1434   -0.8734    2.9443 H   0  0  0  0  0  0  0  0  0  0  0  0
    3.5158    1.7742    3.2779 H   0  0  0  0  0  0  0  0  0  0  0  0
    2.4711    0.3391    5.5895 H   0  0  0  0  0  0  0  0  0  0  0  0
    3.9350    1.2965    5.4161 H   0  0  0  0  0  0  0  0  0  0  0  0
    2.2695    2.5326    7.0227 H   0  0  0  0  0  0  0  0  0  0  0  0
   -0.2013    4.4731    5.1770 H   0  0  0  0  0  0  0  0  0  0  0  0
    1.2925    5.4104    5.1053 H   0  0  0  0  0  0  0  0  0  0  0  0
    0.8112    4.6378    6.6186 H   0  0  0  0  0  0  0  0  0  0  0  0
    0.7183    2.7462    3.2826 H   0  0  0  0  0  0  0  0  0  0  0  0
    1.7911    4.8903    2.8006 H   0  0  0  0  0  0  0  0  0  0  0  0
    2.4972    3.6452    1.8138 H   0  0  0  0  0  0  0  0  0  0  0  0
    3.3792    4.2272    3.2226 H   0  0  0  0  0  0  0  0  0  0  0  0
    1.7215   -8.2533    3.5988 H   0  0  0  0  0  0  0  0  0  0  0  0
    3.2431   -7.3969    3.6157 H   0  0  0  0  0  0  0  0  0  0  0  0
    2.2873   -6.4464    5.4448 H   0  0  0  0  0  0  0  0  0  0  0  0
    0.1668   -7.5837    5.2028 H   0  0  0  0  0  0  0  0  0  0  0  0
    0.2459   -5.8218    7.0130 H   0  0  0  0  0  0  0  0  0  0  0  0
   -1.3331   -6.2581    6.4288 H   0  0  0  0  0  0  0  0  0  0  0  0
   -0.7645   -4.7734    5.9689 H   0  0  0  0  0  0  0  0  0  0  0  0
   -2.1351   -9.1709    2.8939 H   0  0  0  0  0  0  0  0  0  0  0  0
   -2.8766   -7.7766    3.6485 H   0  0  0  0  0  0  0  0  0  0  0  0
   -1.7052   -8.7401    4.5240 H   0  0  0  0  0  0  0  0  0  0  0  0
   -0.3840   -8.6051    1.3724 H   0  0  0  0  0  0  0  0  0  0  0  0
  1  2  1  0
  1 36  1  0
  1 37  1  0
  1 38  1  0
  2  3  2  0
  2  4  1  0
  4  6  1  0
  4  5  1  0
  4 39  1  6
  6  5  1  6
  5 40  1  0
  5 41  1  0
  6 27  1  0
  6  7  1  0
  7  8  2  3
  7 25  1  0
  8  9  1  0
  8 10  1  0
  9 42  1  0
  9 43  1  0
  9 44  1  0
 10 11  2  3
 10 45  1  0
 11 12  1  0
 11 46  1  0
 12 13  1  0
 12 14  2  3
 13 47  1  0
 13 48  1  0
 13 49  1  0
 14 15  1  0
 14 50  1  0
 15 16  2  3
 15 51  1  0
 16 17  1  0
 16 18  1  0
 17 52  1  0
 17 53  1  0
 17 54  1  0
 18 23  1  0
 18 19  1  0
 18 55  1  6
 19 20  1  0
 19 56  1  0
 19 57  1  0
 20 21  2  0
 20 58  1  0
 21 22  1  0
 21 23  1  0
 22 59  1  0
 22 60  1  0
 22 61  1  0
 23 24  1  0
 23 62  1  6
 24 63  1  0
 24 64  1  0
 24 65  1  0
 25 34  1  0
 25 26  1  0
 26 27  1  0
 26 66  1  0
 26 67  1  0
 27 28  1  0
 27 68  1  1
 28 29  1  0
 28 30  1  0
 28 69  1  1
 29 70  1  0
 29 71  1  0
 29 72  1  0
 30 31  1  0
 31 32  1  0
 31 33  2  3
 32 73  1  0
 32 74  1  0
 32 75  1  0
 33 34  1  0
 33 76  1  0
 34 35  2  0
M  END
>  <i_m_ct_stereo_status>  (243) 
1

>  <s_m_source_file>  (243) 
/var/tmp/pbs.5076255.sched01/tmpk9_hntje/1089a46f3po.sdf

>  <i_m_source_file_index>  (243) 
11

>  <i_lp_mmshare_version>  (243) 
48012

>  <i_f3d_flags>  (243) 
0

>  <s_epik_input>  (243) 
W0NIM11DKD1PKVtDQEhdKFtDSDJdMSlbQ0BAXTEyW0NAQEhdM1tDSDJdTihDKD1PKS9bQ0hdPUMoW0NIM10pXE9bQ0BASF0zW0NIM10pQ1wyPUMoXFtDSDNdKS9bQ0hdPVtDSF0vQyhbQ0gzXSk9W0NIXS9bQ0hdPUMoXFtDSDNdKVtDQEBIXTRbQ0gyXVtDSF09QyhbQ0gzXSlbQ0BIXTRbQ0gzXQ==

>  <s_epik_cmdline>  (243) 
J2VwaWtfcHl0aG9uJywgJy1waHQnLCAnMi4wJywgJy1waCcsICc3LjAnLCAnLXRuJywgJzgnLCAnLW1hJywgJzIwMCcsICctaW1hZScsICc8aW5maWxlLm1hZT4nLCAnLW9tYWUnLCAnPG91dGZpbGUubWFlPic=

>  <r_lp_tautomer_probability>  (243) 
1

>  <r_epik_Ionization_Penalty>  (243) 
1.49479e-07

>  <r_epik_Ionization_Penalty_Charging>  (243) 
0

>  <r_epik_Ionization_Penalty_Neutral>  (243) 
1.49479e-07

>  <r_epik_State_Penalty>  (243) 
-0

>  <r_epik_Charging_Adjusted_Penalty>  (243) 
0

>  <i_epik_Tot_Q>  (243) 
0

>  <i_epik_Tot_abs_Q>  (243) 
0

>  <s_lp_Force_Field>  (243) 
OPLS3e

>  <r_lp_Energy>  (243) 
53.0426

>  <b_lp_Chiralities_Consistent>  (243) 
1

>  <s_lp_Variant>  (243) 
69:0-14

>  <s_i_glide_gridfile>  (243) 
pfpi4k_grid

>  <i_i_glide_lignum>  (243) 
11

>  <i_i_glide_rotatable_bonds>  (243) 
5

>  <r_i_docking_score>  (243) 
-2.75811

>  <r_i_glide_ligand_efficiency>  (243) 
-0.0788032

>  <r_i_glide_ligand_efficiency_sa>  (243) 
-0.25777

>  <r_i_glide_ligand_efficiency_ln>  (243) 
-0.605467

>  <r_i_glide_gscore>  (243) 
-2.75811

>  <r_i_glide_lipo>  (243) 
-0.244027

>  <r_i_glide_hbond>  (243) 
-0.38162

>  <r_i_glide_metal>  (243) 
-0

>  <r_i_glide_rewards>  (243) 
-0.16594

>  <r_i_glide_evdw>  (243) 
-25.82

>  <r_i_glide_ecoul>  (243) 
-6.22013

>  <r_i_glide_erotb>  (243) 
0.357898

>  <r_i_glide_esite>  (243) 
-0.100406

>  <r_i_glide_emodel>  (243) 
-34.6072

>  <r_i_glide_energy>  (243) 
-32.0401

>  <r_i_glide_einternal>  (243) 
5.31561

>  <r_i_glide_intrahb_reward>  (243) 
-0

>  <i_i_glide_confnum>  (243) 
4

>  <i_i_glide_posenum>  (243) 
13

>  <r_i_glide_eff_state_penalty>  (243) 
0

>  <ligand_id>  (243) 
69

>  <original_smiles>  (243) 
CC(=O)C1CC12C(=C(C)C=CC(C)=CC=C(C)C1CC=C(C)C1C)N1CC2C(C)OC(C)=CC1=O

>  <smiles>  (243) 
[H]C(=C([H])C(=C1N2C(=O)C([H])=C(C([H])([H])[H])OC([H])(C([H])([H])[H])C([H])(C2([H])[H])C12C([H])([H])C2([H])C(=O)C([H])([H])[H])C([H])([H])[H])C(=C([H])C([H])=C(C([H])([H])[H])C1([H])C([H])([H])C([H])=C(C([H])([H])[H])C1([H])C([H])([H])[H])C([H])([H])[H]

$$$$
69:13:1
     RDKit          3D

 76 79  0  0  1  0  0  0  0  0999 V2000
    0.7689    1.5904    1.8337 C   0  0  0  0  0  0  0  0  0  0  0  0
    1.7368    1.4717    2.9890 C   0  0  0  0  0  0  0  0  0  0  0  0
    2.6345    2.2992    3.1172 O   0  0  0  0  0  0  0  0  0  0  0  0
    1.6080    0.3165    3.9436 C   0  0  2  0  0  0  0  0  0  0  0  0
    0.2418   -0.1897    4.3132 C   0  0  0  0  0  0  0  0  0  0  0  0
    1.0337    0.5827    5.3508 C   0  0  1  0  0  0  0  0  0  0  0  0
    1.5833   -0.1023    6.6094 C   0  0  0  0  0  0  0  0  0  0  0  0
    2.3403   -1.2257    6.8223 C   0  0  0  0  0  0  0  0  0  0  0  0
    2.9554   -1.5009    8.2058 C   0  0  0  0  0  0  0  0  0  0  0  0
    2.6447   -2.1909    5.7618 C   0  0  0  0  0  0  0  0  0  0  0  0
    3.4473   -3.2710    5.8765 C   0  0  0  0  0  0  0  0  0  0  0  0
    3.7466   -4.1908    4.7845 C   0  0  0  0  0  0  0  0  0  0  0  0
    3.5411   -5.6748    5.0219 C   0  0  0  0  0  0  0  0  0  0  0  0
    4.1836   -3.7857    3.5699 C   0  0  0  0  0  0  0  0  0  0  0  0
    4.4607   -2.4193    3.1403 C   0  0  0  0  0  0  0  0  0  0  0  0
    4.7614   -2.0058    1.8858 C   0  0  0  0  0  0  0  0  0  0  0  0
    5.0147   -0.5251    1.6157 C   0  0  0  0  0  0  0  0  0  0  0  0
    4.8732   -2.9260    0.6591 C   0  0  2  0  0  0  0  0  0  0  0  0
    6.2868   -2.9404    0.0188 C   0  0  0  0  0  0  0  0  0  0  0  0
    6.0307   -2.6487   -1.4337 C   0  0  0  0  0  0  0  0  0  0  0  0
    4.7395   -2.4560   -1.7044 C   0  0  0  0  0  0  0  0  0  0  0  0
    4.1502   -2.1352   -3.0634 C   0  0  0  0  0  0  0  0  0  0  0  0
    3.8622   -2.5982   -0.4848 C   0  0  1  0  0  0  0  0  0  0  0  0
    2.8163   -3.7090   -0.6517 C   0  0  0  0  0  0  0  0  0  0  0  0
    1.1797    0.7738    7.6235 N   0  0  0  0  0  0  0  0  0  0  0  0
    1.3265    2.1415    7.1368 C   0  0  0  0  0  0  0  0  0  0  0  0
    0.6866    2.0447    5.7519 C   0  0  2  0  0  0  0  0  0  0  0  0
   -0.8131    2.4722    5.8367 C   0  0  1  0  0  0  0  0  0  0  0  0
   -1.5730    2.7291    4.5146 C   0  0  0  0  0  0  0  0  0  0  0  0
   -1.5662    1.5668    6.6422 O   0  0  0  0  0  0  0  0  0  0  0  0
   -1.6238    1.9129    7.9635 C   0  0  0  0  0  0  0  0  0  0  0  0
   -2.7100    2.9255    8.2820 C   0  0  0  0  0  0  0  0  0  0  0  0
   -0.7791    1.3877    8.8840 C   0  0  0  0  0  0  0  0  0  0  0  0
    0.2261    0.3844    8.5335 C   0  0  0  0  0  0  0  0  0  0  0  0
    0.1420   -0.7693    8.9552 O   0  0  0  0  0  0  0  0  0  0  0  0
    0.8439    0.7324    1.1638 H   0  0  0  0  0  0  0  0  0  0  0  0
    1.0138    2.4965    1.2797 H   0  0  0  0  0  0  0  0  0  0  0  0
   -0.2581    1.6882    2.1813 H   0  0  0  0  0  0  0  0  0  0  0  0
    2.4134   -0.4065    3.8160 H   0  0  0  0  0  0  0  0  0  0  0  0
   -0.6064    0.2736    3.8197 H   0  0  0  0  0  0  0  0  0  0  0  0
    0.1249   -1.2587    4.4801 H   0  0  0  0  0  0  0  0  0  0  0  0
    4.0428   -1.5621    8.1158 H   0  0  0  0  0  0  0  0  0  0  0  0
    2.5861   -2.4451    8.6145 H   0  0  0  0  0  0  0  0  0  0  0  0
    2.7699   -0.7230    8.9500 H   0  0  0  0  0  0  0  0  0  0  0  0
    2.1968   -2.0680    4.7919 H   0  0  0  0  0  0  0  0  0  0  0  0
    3.9187   -3.4997    6.8215 H   0  0  0  0  0  0  0  0  0  0  0  0
    4.2037   -6.0347    5.8116 H   0  0  0  0  0  0  0  0  0  0  0  0
    3.7525   -6.2621    4.1255 H   0  0  0  0  0  0  0  0  0  0  0  0
    2.5074   -5.8753    5.3091 H   0  0  0  0  0  0  0  0  0  0  0  0
    4.3521   -4.5799    2.8614 H   0  0  0  0  0  0  0  0  0  0  0  0
    4.4349   -1.6529    3.8949 H   0  0  0  0  0  0  0  0  0  0  0  0
    4.3048   -0.1152    0.8964 H   0  0  0  0  0  0  0  0  0  0  0  0
    6.0173   -0.3579    1.2227 H   0  0  0  0  0  0  0  0  0  0  0  0
    4.9214    0.0673    2.5239 H   0  0  0  0  0  0  0  0  0  0  0  0
    4.6865   -3.9550    0.9535 H   0  0  0  0  0  0  0  0  0  0  0  0
    6.9721   -2.2093    0.4418 H   0  0  0  0  0  0  0  0  0  0  0  0
    6.7524   -3.9210    0.1190 H   0  0  0  0  0  0  0  0  0  0  0  0
    6.8308   -2.6205   -2.1595 H   0  0  0  0  0  0  0  0  0  0  0  0
    3.5815   -1.2062   -3.0244 H   0  0  0  0  0  0  0  0  0  0  0  0
    3.4827   -2.9333   -3.3857 H   0  0  0  0  0  0  0  0  0  0  0  0
    4.9360   -2.0277   -3.8103 H   0  0  0  0  0  0  0  0  0  0  0  0
    3.3361   -1.6598   -0.3218 H   0  0  0  0  0  0  0  0  0  0  0  0
    2.1165   -3.4890   -1.4601 H   0  0  0  0  0  0  0  0  0  0  0  0
    2.2338   -3.8444    0.2583 H   0  0  0  0  0  0  0  0  0  0  0  0
    3.2996   -4.6577   -0.8769 H   0  0  0  0  0  0  0  0  0  0  0  0
    0.9411    2.9405    7.7756 H   0  0  0  0  0  0  0  0  0  0  0  0
    2.3986    2.3329    7.0318 H   0  0  0  0  0  0  0  0  0  0  0  0
    1.2018    2.7963    5.1585 H   0  0  0  0  0  0  0  0  0  0  0  0
   -0.7970    3.4570    6.3078 H   0  0  0  0  0  0  0  0  0  0  0  0
   -0.9606    3.2795    3.7976 H   0  0  0  0  0  0  0  0  0  0  0  0
   -2.4545    3.3465    4.7067 H   0  0  0  0  0  0  0  0  0  0  0  0
   -1.9388    1.8273    4.0257 H   0  0  0  0  0  0  0  0  0  0  0  0
   -2.7875    3.1038    9.3502 H   0  0  0  0  0  0  0  0  0  0  0  0
   -3.6702    2.5651    7.9313 H   0  0  0  0  0  0  0  0  0  0  0  0
   -2.5165    3.8799    7.8037 H   0  0  0  0  0  0  0  0  0  0  0  0
   -0.8844    1.6881    9.9232 H   0  0  0  0  0  0  0  0  0  0  0  0
  1  2  1  0
  1 36  1  0
  1 37  1  0
  1 38  1  0
  2  3  2  0
  2  4  1  0
  4  6  1  0
  4  5  1  0
  4 39  1  1
  6  5  1  6
  5 40  1  0
  5 41  1  0
  6 27  1  0
  6  7  1  0
  7  8  2  3
  7 25  1  0
  8  9  1  0
  8 10  1  0
  9 42  1  0
  9 43  1  0
  9 44  1  0
 10 11  2  3
 10 45  1  0
 11 12  1  0
 11 46  1  0
 12 13  1  0
 12 14  2  3
 13 47  1  0
 13 48  1  0
 13 49  1  0
 14 15  1  0
 14 50  1  0
 15 16  2  3
 15 51  1  0
 16 17  1  0
 16 18  1  0
 17 52  1  0
 17 53  1  0
 17 54  1  0
 18 23  1  0
 18 19  1  0
 18 55  1  1
 19 20  1  0
 19 56  1  0
 19 57  1  0
 20 21  2  0
 20 58  1  0
 21 22  1  0
 21 23  1  0
 22 59  1  0
 22 60  1  0
 22 61  1  0
 23 24  1  0
 23 62  1  1
 24 63  1  0
 24 64  1  0
 24 65  1  0
 25 34  1  0
 25 26  1  0
 26 27  1  0
 26 66  1  0
 26 67  1  0
 27 28  1  0
 27 68  1  6
 28 29  1  0
 28 30  1  0
 28 69  1  1
 29 70  1  0
 29 71  1  0
 29 72  1  0
 30 31  1  0
 31 32  1  0
 31 33  2  3
 32 73  1  0
 32 74  1  0
 32 75  1  0
 33 34  1  0
 33 76  1  0
 34 35  2  0
M  END
>  <i_m_ct_stereo_status>  (244) 
1

>  <s_m_source_file>  (244) 
/var/tmp/pbs.5076255.sched01/tmpk9_hntje/1089a46f3po.sdf

>  <i_m_source_file_index>  (244) 
11

>  <i_lp_mmshare_version>  (244) 
48012

>  <i_f3d_flags>  (244) 
0

>  <s_epik_input>  (244) 
W0NIM11DKD1PKVtDQEhdKFtDSDJdMSlbQ0BAXTEyW0NAQEhdM1tDSDJdTihDKD1PKS9bQ0hdPUMoW0NIM10pXE9bQ0BASF0zW0NIM10pQ1wyPUMoXFtDSDNdKS9bQ0hdPVtDSF0vQyhbQ0gzXSk9W0NIXS9bQ0hdPUMoXFtDSDNdKVtDQEBIXTRbQ0gyXVtDSF09QyhbQ0gzXSlbQ0BIXTRbQ0gzXQ==

>  <s_epik_cmdline>  (244) 
J2VwaWtfcHl0aG9uJywgJy1waHQnLCAnMi4wJywgJy1waCcsICc3LjAnLCAnLXRuJywgJzgnLCAnLW1hJywgJzIwMCcsICctaW1hZScsICc8aW5maWxlLm1hZT4nLCAnLW9tYWUnLCAnPG91dGZpbGUubWFlPic=

>  <r_lp_tautomer_probability>  (244) 
1

>  <r_epik_Ionization_Penalty>  (244) 
1.49479e-07

>  <r_epik_Ionization_Penalty_Charging>  (244) 
0

>  <r_epik_Ionization_Penalty_Neutral>  (244) 
1.49479e-07

>  <r_epik_State_Penalty>  (244) 
-0

>  <r_epik_Charging_Adjusted_Penalty>  (244) 
0

>  <i_epik_Tot_Q>  (244) 
0

>  <i_epik_Tot_abs_Q>  (244) 
0

>  <s_lp_Force_Field>  (244) 
OPLS3e

>  <r_lp_Energy>  (244) 
53.0426

>  <b_lp_Chiralities_Consistent>  (244) 
1

>  <s_lp_Variant>  (244) 
69:0-14

>  <s_i_glide_gridfile>  (244) 
pfpi4k_grid

>  <i_i_glide_lignum>  (244) 
11

>  <i_i_glide_rotatable_bonds>  (244) 
5

>  <r_i_docking_score>  (244) 
-2.21871

>  <r_i_glide_ligand_efficiency>  (244) 
-0.0633916

>  <r_i_glide_ligand_efficiency_sa>  (244) 
-0.207358

>  <r_i_glide_ligand_efficiency_ln>  (244) 
-0.487056

>  <r_i_glide_gscore>  (244) 
-2.21871

>  <r_i_glide_lipo>  (244) 
-0.519818

>  <r_i_glide_hbond>  (244) 
-0.0341335

>  <r_i_glide_metal>  (244) 
-0

>  <r_i_glide_rewards>  (244) 
-0.16594

>  <r_i_glide_evdw>  (244) 
-29.3678

>  <r_i_glide_ecoul>  (244) 
-2.33437

>  <r_i_glide_erotb>  (244) 
0.357898

>  <r_i_glide_esite>  (244) 
-0.0381684

>  <r_i_glide_emodel>  (244) 
-33.4841

>  <r_i_glide_energy>  (244) 
-31.7022

>  <r_i_glide_einternal>  (244) 
5.25366

>  <r_i_glide_intrahb_reward>  (244) 
-0

>  <i_i_glide_confnum>  (244) 
3

>  <i_i_glide_posenum>  (244) 
3

>  <r_i_glide_eff_state_penalty>  (244) 
0

>  <ligand_id>  (244) 
69

>  <original_smiles>  (244) 
CC(=O)C1CC12C(=C(C)C=CC(C)=CC=C(C)C1CC=C(C)C1C)N1CC2C(C)OC(C)=CC1=O

>  <smiles>  (244) 
[H]C(=C([H])C(=C1N2C(=O)C([H])=C(C([H])([H])[H])OC([H])(C([H])([H])[H])C([H])(C2([H])[H])C12C([H])([H])C2([H])C(=O)C([H])([H])[H])C([H])([H])[H])C(=C([H])C([H])=C(C([H])([H])[H])C1([H])C([H])([H])C([H])=C(C([H])([H])[H])C1([H])C([H])([H])[H])C([H])([H])[H]

$$$$
69:13:2
     RDKit          3D

 76 79  0  0  1  0  0  0  0  0999 V2000
    3.8437   -0.6118    2.0996 C   0  0  0  0  0  0  0  0  0  0  0  0
    3.8793   -0.2678    3.5927 C   0  0  0  0  0  0  0  0  0  0  0  0
    4.8043    0.3848    4.0664 O   0  0  0  0  0  0  0  0  0  0  0  0
    2.8284   -0.8375    4.5121 C   0  0  2  0  0  0  0  0  0  0  0  0
    1.4540   -1.2213    3.9915 C   0  0  0  0  0  0  0  0  0  0  0  0
    1.5899    0.0174    4.8578 C   0  0  1  0  0  0  0  0  0  0  0  0
    0.9492    0.0939    6.2656 C   0  0  0  0  0  0  0  0  0  0  0  0
    1.0266   -0.7025    7.3807 C   0  0  0  0  0  0  0  0  0  0  0  0
    0.4124   -0.2405    8.7301 C   0  0  0  0  0  0  0  0  0  0  0  0
    1.7343   -1.9769    7.3834 C   0  0  0  0  0  0  0  0  0  0  0  0
    1.7884   -2.8981    8.3845 C   0  0  0  0  0  0  0  0  0  0  0  0
    2.4333   -4.2069    8.2798 C   0  0  0  0  0  0  0  0  0  0  0  0
    3.1428   -4.7318    9.5097 C   0  0  0  0  0  0  0  0  0  0  0  0
    2.4081   -4.9881    7.1784 C   0  0  0  0  0  0  0  0  0  0  0  0
    1.7565   -4.7279    5.8836 C   0  0  0  0  0  0  0  0  0  0  0  0
    1.6393   -5.5566    4.8214 C   0  0  0  0  0  0  0  0  0  0  0  0
    1.0108   -5.0628    3.5184 C   0  0  0  0  0  0  0  0  0  0  0  0
    2.0721   -7.0283    4.8236 C   0  0  2  0  0  0  0  0  0  0  0  0
    3.0960   -7.3632    3.7220 C   0  0  0  0  0  0  0  0  0  0  0  0
    2.4563   -8.5087    2.9756 C   0  0  0  0  0  0  0  0  0  0  0  0
    1.2575   -8.8402    3.4606 C   0  0  0  0  0  0  0  0  0  0  0  0
    0.3475   -9.9316    2.9469 C   0  0  0  0  0  0  0  0  0  0  0  0
    0.8583   -7.9817    4.6451 C   0  0  1  0  0  0  0  0  0  0  0  0
    0.5805   -8.8038    5.9189 C   0  0  0  0  0  0  0  0  0  0  0  0
    0.2283    1.2925    6.1998 N   0  0  0  0  0  0  0  0  0  0  0  0
    1.0592    2.2629    5.4844 C   0  0  0  0  0  0  0  0  0  0  0  0
    1.4925    1.4610    4.2597 C   0  0  2  0  0  0  0  0  0  0  0  0
    0.4943    1.7516    3.0883 C   0  0  1  0  0  0  0  0  0  0  0  0
    0.8671    1.3117    1.6708 C   0  0  0  0  0  0  0  0  0  0  0  0
   -0.8073    1.2547    3.3838 O   0  0  0  0  0  0  0  0  0  0  0  0
   -1.6285    2.1908    3.9684 C   0  0  0  0  0  0  0  0  0  0  0  0
   -2.2922    3.1305    2.9851 C   0  0  0  0  0  0  0  0  0  0  0  0
   -1.7817    2.2641    5.2934 C   0  0  0  0  0  0  0  0  0  0  0  0
   -1.1434    1.3121    6.2130 C   0  0  0  0  0  0  0  0  0  0  0  0
   -1.8280    0.5439    6.8852 O   0  0  0  0  0  0  0  0  0  0  0  0
    3.9362   -1.6902    1.9173 H   0  0  0  0  0  0  0  0  0  0  0  0
    4.6363   -0.0695    1.5728 H   0  0  0  0  0  0  0  0  0  0  0  0
    2.8962   -0.2883    1.6831 H   0  0  0  0  0  0  0  0  0  0  0  0
    3.3271   -1.4907    5.2278 H   0  0  0  0  0  0  0  0  0  0  0  0
    1.2999   -1.1598    2.9140 H   0  0  0  0  0  0  0  0  0  0  0  0
    0.9077   -2.0221    4.4988 H   0  0  0  0  0  0  0  0  0  0  0  0
    1.2224   -0.2648    9.4611 H   0  0  0  0  0  0  0  0  0  0  0  0
   -0.3611   -0.9325    9.0584 H   0  0  0  0  0  0  0  0  0  0  0  0
    0.0143    0.7659    8.7286 H   0  0  0  0  0  0  0  0  0  0  0  0
    2.2571   -2.2741    6.5047 H   0  0  0  0  0  0  0  0  0  0  0  0
    1.3439   -2.6925    9.3527 H   0  0  0  0  0  0  0  0  0  0  0  0
    3.9740   -4.0986    9.8120 H   0  0  0  0  0  0  0  0  0  0  0  0
    3.5411   -5.7396    9.3577 H   0  0  0  0  0  0  0  0  0  0  0  0
    2.4368   -4.8150   10.3456 H   0  0  0  0  0  0  0  0  0  0  0  0
    2.9467   -5.9130    7.2856 H   0  0  0  0  0  0  0  0  0  0  0  0
    1.3155   -3.7732    5.7205 H   0  0  0  0  0  0  0  0  0  0  0  0
    0.0913   -5.5876    3.2900 H   0  0  0  0  0  0  0  0  0  0  0  0
    1.6947   -5.1203    2.6616 H   0  0  0  0  0  0  0  0  0  0  0  0
    0.7483   -4.0096    3.6004 H   0  0  0  0  0  0  0  0  0  0  0  0
    2.5443   -7.2871    5.7646 H   0  0  0  0  0  0  0  0  0  0  0  0
    3.3221   -6.5459    3.0350 H   0  0  0  0  0  0  0  0  0  0  0  0
    4.0546   -7.6777    4.1580 H   0  0  0  0  0  0  0  0  0  0  0  0
    2.9526   -8.9970    2.1483 H   0  0  0  0  0  0  0  0  0  0  0  0
   -0.6227   -9.5262    2.6676 H   0  0  0  0  0  0  0  0  0  0  0  0
    0.2021  -10.6794    3.7223 H   0  0  0  0  0  0  0  0  0  0  0  0
    0.7954  -10.4059    2.0796 H   0  0  0  0  0  0  0  0  0  0  0  0
   -0.0614   -7.4586    4.3845 H   0  0  0  0  0  0  0  0  0  0  0  0
   -0.2608   -9.4852    5.7885 H   0  0  0  0  0  0  0  0  0  0  0  0
    0.3542   -8.1535    6.7594 H   0  0  0  0  0  0  0  0  0  0  0  0
    1.4549   -9.3904    6.1762 H   0  0  0  0  0  0  0  0  0  0  0  0
    0.5980    3.2311    5.2746 H   0  0  0  0  0  0  0  0  0  0  0  0
    1.9227    2.4504    6.1181 H   0  0  0  0  0  0  0  0  0  0  0  0
    2.4554    1.8759    3.9840 H   0  0  0  0  0  0  0  0  0  0  0  0
    0.4721    2.8424    3.0007 H   0  0  0  0  0  0  0  0  0  0  0  0
    1.8975    1.5883    1.4325 H   0  0  0  0  0  0  0  0  0  0  0  0
    0.2392    1.8427    0.9329 H   0  0  0  0  0  0  0  0  0  0  0  0
    0.7123    0.2530    1.4548 H   0  0  0  0  0  0  0  0  0  0  0  0
   -2.9866    3.7878    3.4940 H   0  0  0  0  0  0  0  0  0  0  0  0
   -2.8339    2.5700    2.2423 H   0  0  0  0  0  0  0  0  0  0  0  0
   -1.5611    3.7529    2.4943 H   0  0  0  0  0  0  0  0  0  0  0  0
   -2.4488    3.0133    5.7129 H   0  0  0  0  0  0  0  0  0  0  0  0
  1  2  1  0
  1 36  1  0
  1 37  1  0
  1 38  1  0
  2  3  2  0
  2  4  1  0
  4  6  1  0
  4  5  1  0
  4 39  1  1
  6  5  1  6
  5 40  1  0
  5 41  1  0
  6 27  1  0
  6  7  1  0
  7  8  2  3
  7 25  1  0
  8  9  1  0
  8 10  1  0
  9 42  1  0
  9 43  1  0
  9 44  1  0
 10 11  2  3
 10 45  1  0
 11 12  1  0
 11 46  1  0
 12 13  1  0
 12 14  2  3
 13 47  1  0
 13 48  1  0
 13 49  1  0
 14 15  1  0
 14 50  1  0
 15 16  2  3
 15 51  1  0
 16 17  1  0
 16 18  1  0
 17 52  1  0
 17 53  1  0
 17 54  1  0
 18 23  1  0
 18 19  1  0
 18 55  1  1
 19 20  1  0
 19 56  1  0
 19 57  1  0
 20 21  2  0
 20 58  1  0
 21 22  1  0
 21 23  1  0
 22 59  1  0
 22 60  1  0
 22 61  1  0
 23 24  1  0
 23 62  1  6
 24 63  1  0
 24 64  1  0
 24 65  1  0
 25 34  1  0
 25 26  1  0
 26 27  1  0
 26 66  1  0
 26 67  1  0
 27 28  1  0
 27 68  1  6
 28 29  1  0
 28 30  1  0
 28 69  1  6
 29 70  1  0
 29 71  1  0
 29 72  1  0
 30 31  1  0
 31 32  1  0
 31 33  2  3
 32 73  1  0
 32 74  1  0
 32 75  1  0
 33 34  1  0
 33 76  1  0
 34 35  2  0
M  END
>  <i_m_ct_stereo_status>  (245) 
1

>  <s_m_source_file>  (245) 
/var/tmp/pbs.5076255.sched01/tmpk9_hntje/1089a46f3po.sdf

>  <i_m_source_file_index>  (245) 
11

>  <i_lp_mmshare_version>  (245) 
48012

>  <i_f3d_flags>  (245) 
0

>  <s_epik_input>  (245) 
W0NIM11DKD1PKVtDQEhdKFtDSDJdMSlbQ0BAXTEyW0NAQEhdM1tDSDJdTihDKD1PKS9bQ0hdPUMoW0NIM10pXE9bQ0BASF0zW0NIM10pQ1wyPUMoXFtDSDNdKS9bQ0hdPVtDSF0vQyhbQ0gzXSk9W0NIXS9bQ0hdPUMoXFtDSDNdKVtDQEBIXTRbQ0gyXVtDSF09QyhbQ0gzXSlbQ0BIXTRbQ0gzXQ==

>  <s_epik_cmdline>  (245) 
J2VwaWtfcHl0aG9uJywgJy1waHQnLCAnMi4wJywgJy1waCcsICc3LjAnLCAnLXRuJywgJzgnLCAnLW1hJywgJzIwMCcsICctaW1hZScsICc8aW5maWxlLm1hZT4nLCAnLW9tYWUnLCAnPG91dGZpbGUubWFlPic=

>  <r_lp_tautomer_probability>  (245) 
1

>  <r_epik_Ionization_Penalty>  (245) 
1.49479e-07

>  <r_epik_Ionization_Penalty_Charging>  (245) 
0

>  <r_epik_Ionization_Penalty_Neutral>  (245) 
1.49479e-07

>  <r_epik_State_Penalty>  (245) 
-0

>  <r_epik_Charging_Adjusted_Penalty>  (245) 
0

>  <i_epik_Tot_Q>  (245) 
0

>  <i_epik_Tot_abs_Q>  (245) 
0

>  <s_lp_Force_Field>  (245) 
OPLS3e

>  <r_lp_Energy>  (245) 
53.0426

>  <b_lp_Chiralities_Consistent>  (245) 
1

>  <s_lp_Variant>  (245) 
69:0-14

>  <s_i_glide_gridfile>  (245) 
pfpi4k_grid

>  <i_i_glide_lignum>  (245) 
11

>  <i_i_glide_rotatable_bonds>  (245) 
5

>  <r_i_docking_score>  (245) 
-2.10741

>  <r_i_glide_ligand_efficiency>  (245) 
-0.0602116

>  <r_i_glide_ligand_efficiency_sa>  (245) 
-0.196956

>  <r_i_glide_ligand_efficiency_ln>  (245) 
-0.462623

>  <r_i_glide_gscore>  (245) 
-2.10741

>  <r_i_glide_lipo>  (245) 
-0.0312953

>  <r_i_glide_hbond>  (245) 
-0.16

>  <r_i_glide_metal>  (245) 
-0

>  <r_i_glide_rewards>  (245) 
-0.18493

>  <r_i_glide_evdw>  (245) 
-26.3453

>  <r_i_glide_ecoul>  (245) 
-4.93831

>  <r_i_glide_erotb>  (245) 
0.357898

>  <r_i_glide_esite>  (245) 
-0.0310713

>  <r_i_glide_emodel>  (245) 
-31.3979

>  <r_i_glide_energy>  (245) 
-31.2836

>  <r_i_glide_einternal>  (245) 
5.24987

>  <r_i_glide_intrahb_reward>  (245) 
-0

>  <i_i_glide_confnum>  (245) 
4

>  <i_i_glide_posenum>  (245) 
21

>  <r_i_glide_eff_state_penalty>  (245) 
0

>  <ligand_id>  (245) 
69

>  <original_smiles>  (245) 
CC(=O)C1CC12C(=C(C)C=CC(C)=CC=C(C)C1CC=C(C)C1C)N1CC2C(C)OC(C)=CC1=O

>  <smiles>  (245) 
[H]C(=C([H])C(=C1N2C(=O)C([H])=C(C([H])([H])[H])OC([H])(C([H])([H])[H])C([H])(C2([H])[H])C12C([H])([H])C2([H])C(=O)C([H])([H])[H])C([H])([H])[H])C(=C([H])C([H])=C(C([H])([H])[H])C1([H])C([H])([H])C([H])=C(C([H])([H])[H])C1([H])C([H])([H])[H])C([H])([H])[H]

$$$$
69:15:0
     RDKit          3D

 76 79  0  0  1  0  0  0  0  0999 V2000
    0.8747    2.0547    9.4361 C   0  0  0  0  0  0  0  0  0  0  0  0
    0.4960    1.0201    8.3976 C   0  0  0  0  0  0  0  0  0  0  0  0
   -0.5056    0.3223    8.5477 O   0  0  0  0  0  0  0  0  0  0  0  0
    1.3693    0.8334    7.1871 C   0  0  2  0  0  0  0  0  0  0  0  0
    1.9863    2.0316    6.5020 C   0  0  0  0  0  0  0  0  0  0  0  0
    0.8815    1.2847    5.7944 C   0  0  1  0  0  0  0  0  0  0  0  0
    1.0811    0.3542    4.6020 C   0  0  0  0  0  0  0  0  0  0  0  0
    2.1037   -0.4527    4.1546 C   0  0  0  0  0  0  0  0  0  0  0  0
    1.8518   -1.4770    3.0205 C   0  0  0  0  0  0  0  0  0  0  0  0
    3.3701   -0.5620    4.8845 C   0  0  0  0  0  0  0  0  0  0  0  0
    4.5706   -1.0030    4.4678 C   0  0  0  0  0  0  0  0  0  0  0  0
    4.9817   -1.3852    3.1263 C   0  0  0  0  0  0  0  0  0  0  0  0
    5.0487   -0.3244    2.0346 C   0  0  0  0  0  0  0  0  0  0  0  0
    5.3695   -2.6453    2.8393 C   0  0  0  0  0  0  0  0  0  0  0  0
    5.3899   -3.7729    3.7659 C   0  0  0  0  0  0  0  0  0  0  0  0
    5.6733   -5.0542    3.4362 C   0  0  0  0  0  0  0  0  0  0  0  0
    5.6729   -6.1504    4.4896 C   0  0  0  0  0  0  0  0  0  0  0  0
    5.9926   -5.5774    2.0256 C   0  0  2  0  0  0  0  0  0  0  0  0
    7.3584   -5.0915    1.4582 C   0  0  0  0  0  0  0  0  0  0  0  0
    7.0151   -4.5268    0.1085 C   0  0  0  0  0  0  0  0  0  0  0  0
    5.7140   -4.5961   -0.1680 C   0  0  0  0  0  0  0  0  0  0  0  0
    5.0437   -4.1010   -1.4249 C   0  0  0  0  0  0  0  0  0  0  0  0
    4.9124   -5.2582    0.9381 C   0  0  1  0  0  0  0  0  0  0  0  0
    4.1842   -6.5227    0.4676 C   0  0  0  0  0  0  0  0  0  0  0  0
   -0.1658    0.4790    3.9226 N   0  0  0  0  0  0  0  0  0  0  0  0
   -1.1934    0.7171    4.9210 C   0  0  0  0  0  0  0  0  0  0  0  0
   -0.5399    1.8610    5.6514 C   0  0  2  0  0  0  0  0  0  0  0  0
   -0.6334    3.2370    4.9314 C   0  0  1  0  0  0  0  0  0  0  0  0
    0.5444    3.8749    4.1777 C   0  0  0  0  0  0  0  0  0  0  0  0
   -1.8493    3.4039    4.2105 O   0  0  0  0  0  0  0  0  0  0  0  0
   -2.1337    2.7841    3.0092 C   0  0  0  0  0  0  0  0  0  0  0  0
   -3.4190    3.3741    2.4790 C   0  0  0  0  0  0  0  0  0  0  0  0
   -1.4836    1.7623    2.3544 C   0  0  0  0  0  0  0  0  0  0  0  0
   -0.2430    1.0470    2.6753 C   0  0  0  0  0  0  0  0  0  0  0  0
    0.6870    0.9617    1.8752 O   0  0  0  0  0  0  0  0  0  0  0  0
    1.8528    1.8222    9.8574 H   0  0  0  0  0  0  0  0  0  0  0  0
    0.1367    2.0666   10.2379 H   0  0  0  0  0  0  0  0  0  0  0  0
    0.9127    3.0490    8.9909 H   0  0  0  0  0  0  0  0  0  0  0  0
    1.9532   -0.0769    7.2783 H   0  0  0  0  0  0  0  0  0  0  0  0
    1.7332    3.0269    6.8881 H   0  0  0  0  0  0  0  0  0  0  0  0
    2.9982    1.9616    6.1130 H   0  0  0  0  0  0  0  0  0  0  0  0
    2.2138   -2.4530    3.3448 H   0  0  0  0  0  0  0  0  0  0  0  0
    2.3590   -1.2153    2.0987 H   0  0  0  0  0  0  0  0  0  0  0  0
    0.8071   -1.6023    2.7500 H   0  0  0  0  0  0  0  0  0  0  0  0
    3.4205   -0.2898    5.9210 H   0  0  0  0  0  0  0  0  0  0  0  0
    5.3583   -1.0528    5.2067 H   0  0  0  0  0  0  0  0  0  0  0  0
    5.6825    0.4851    2.3851 H   0  0  0  0  0  0  0  0  0  0  0  0
    4.0802    0.0960    1.7649 H   0  0  0  0  0  0  0  0  0  0  0  0
    5.4905   -0.7397    1.1217 H   0  0  0  0  0  0  0  0  0  0  0  0
    5.7053   -2.8336    1.8339 H   0  0  0  0  0  0  0  0  0  0  0  0
    5.1799   -3.5718    4.8047 H   0  0  0  0  0  0  0  0  0  0  0  0
    6.6478   -6.6355    4.5312 H   0  0  0  0  0  0  0  0  0  0  0  0
    4.9259   -6.9059    4.2422 H   0  0  0  0  0  0  0  0  0  0  0  0
    5.4415   -5.7542    5.4774 H   0  0  0  0  0  0  0  0  0  0  0  0
    6.0635   -6.6603    2.1103 H   0  0  0  0  0  0  0  0  0  0  0  0
    7.8337   -4.3324    2.0675 H   0  0  0  0  0  0  0  0  0  0  0  0
    8.0554   -5.9234    1.3428 H   0  0  0  0  0  0  0  0  0  0  0  0
    7.7625   -4.1077   -0.5432 H   0  0  0  0  0  0  0  0  0  0  0  0
    4.2018   -3.4472   -1.2027 H   0  0  0  0  0  0  0  0  0  0  0  0
    4.6935   -4.9611   -1.9833 H   0  0  0  0  0  0  0  0  0  0  0  0
    5.7462   -3.5706   -2.0676 H   0  0  0  0  0  0  0  0  0  0  0  0
    4.1729   -4.5452    1.2999 H   0  0  0  0  0  0  0  0  0  0  0  0
    3.4463   -6.2763   -0.2934 H   0  0  0  0  0  0  0  0  0  0  0  0
    3.6670   -7.0203    1.2826 H   0  0  0  0  0  0  0  0  0  0  0  0
    4.8795   -7.2364    0.0339 H   0  0  0  0  0  0  0  0  0  0  0  0
   -2.2238    0.8598    4.6116 H   0  0  0  0  0  0  0  0  0  0  0  0
   -1.2291   -0.1658    5.5719 H   0  0  0  0  0  0  0  0  0  0  0  0
   -1.0802    2.0015    6.5800 H   0  0  0  0  0  0  0  0  0  0  0  0
   -0.7736    3.9311    5.7664 H   0  0  0  0  0  0  0  0  0  0  0  0
    1.4416    3.9324    4.7887 H   0  0  0  0  0  0  0  0  0  0  0  0
    0.2928    4.9033    3.9136 H   0  0  0  0  0  0  0  0  0  0  0  0
    0.8075    3.3746    3.2495 H   0  0  0  0  0  0  0  0  0  0  0  0
   -3.7155    2.9393    1.5335 H   0  0  0  0  0  0  0  0  0  0  0  0
   -3.2846    4.4419    2.3424 H   0  0  0  0  0  0  0  0  0  0  0  0
   -4.2163    3.2288    3.1944 H   0  0  0  0  0  0  0  0  0  0  0  0
   -1.9506    1.4184    1.4420 H   0  0  0  0  0  0  0  0  0  0  0  0
  1  2  1  0
  1 36  1  0
  1 37  1  0
  1 38  1  0
  2  3  2  0
  2  4  1  0
  4  6  1  0
  4  5  1  0
  4 39  1  6
  6  5  1  6
  5 40  1  0
  5 41  1  0
  6 27  1  0
  6  7  1  0
  7  8  2  3
  7 25  1  0
  8  9  1  0
  8 10  1  0
  9 42  1  0
  9 43  1  0
  9 44  1  0
 10 11  2  3
 10 45  1  0
 11 12  1  0
 11 46  1  0
 12 13  1  0
 12 14  2  3
 13 47  1  0
 13 48  1  0
 13 49  1  0
 14 15  1  0
 14 50  1  0
 15 16  2  3
 15 51  1  0
 16 17  1  0
 16 18  1  0
 17 52  1  0
 17 53  1  0
 17 54  1  0
 18 23  1  0
 18 19  1  0
 18 55  1  1
 19 20  1  0
 19 56  1  0
 19 57  1  0
 20 21  2  0
 20 58  1  0
 21 22  1  0
 21 23  1  0
 22 59  1  0
 22 60  1  0
 22 61  1  0
 23 24  1  0
 23 62  1  1
 24 63  1  0
 24 64  1  0
 24 65  1  0
 25 34  1  0
 25 26  1  0
 26 27  1  0
 26 66  1  0
 26 67  1  0
 27 28  1  0
 27 68  1  1
 28 29  1  0
 28 30  1  0
 28 69  1  1
 29 70  1  0
 29 71  1  0
 29 72  1  0
 30 31  1  0
 31 32  1  0
 31 33  2  3
 32 73  1  0
 32 74  1  0
 32 75  1  0
 33 34  1  0
 33 76  1  0
 34 35  2  0
M  END
>  <i_m_ct_stereo_status>  (246) 
1

>  <s_m_source_file>  (246) 
/var/tmp/pbs.5076255.sched01/tmpk9_hntje/1089a46f3po.sdf

>  <i_m_source_file_index>  (246) 
13

>  <i_lp_mmshare_version>  (246) 
48012

>  <i_f3d_flags>  (246) 
0

>  <s_epik_input>  (246) 
W0NIM11DKD1PKVtDQEhdKFtDSDJdMSlbQ0BAXTEyW0NAQEhdM1tDSDJdTihDKD1PKS9bQ0hdPUMoW0NIM10pXE9bQ0BASF0zW0NIM10pQ1wyPUMoXFtDSDNdKS9bQ0hdPVtDSF0vQyhbQ0gzXSk9W0NIXS9bQ0hdPUMoXFtDSDNdKVtDQEBIXTRbQ0gyXVtDSF09QyhbQ0gzXSlbQ0BIXTRbQ0gzXQ==

>  <s_epik_cmdline>  (246) 
J2VwaWtfcHl0aG9uJywgJy1waHQnLCAnMi4wJywgJy1waCcsICc3LjAnLCAnLXRuJywgJzgnLCAnLW1hJywgJzIwMCcsICctaW1hZScsICc8aW5maWxlLm1hZT4nLCAnLW9tYWUnLCAnPG91dGZpbGUubWFlPic=

>  <r_lp_tautomer_probability>  (246) 
1

>  <r_epik_Ionization_Penalty>  (246) 
1.49479e-07

>  <r_epik_Ionization_Penalty_Charging>  (246) 
0

>  <r_epik_Ionization_Penalty_Neutral>  (246) 
1.49479e-07

>  <r_epik_State_Penalty>  (246) 
-0

>  <r_epik_Charging_Adjusted_Penalty>  (246) 
0

>  <i_epik_Tot_Q>  (246) 
0

>  <i_epik_Tot_abs_Q>  (246) 
0

>  <s_lp_Force_Field>  (246) 
OPLS3e

>  <r_lp_Energy>  (246) 
63.7914

>  <b_lp_Chiralities_Consistent>  (246) 
1

>  <s_lp_Variant>  (246) 
69:0-16

>  <s_i_glide_gridfile>  (246) 
pfpi4k_grid

>  <i_i_glide_lignum>  (246) 
13

>  <i_i_glide_rotatable_bonds>  (246) 
5

>  <r_i_docking_score>  (246) 
-2.45846

>  <r_i_glide_ligand_efficiency>  (246) 
-0.0702418

>  <r_i_glide_ligand_efficiency_sa>  (246) 
-0.229765

>  <r_i_glide_ligand_efficiency_ln>  (246) 
-0.539687

>  <r_i_glide_gscore>  (246) 
-2.45846

>  <r_i_glide_lipo>  (246) 
-0.882968

>  <r_i_glide_hbond>  (246) 
-0.0035498

>  <r_i_glide_metal>  (246) 
-0

>  <r_i_glide_rewards>  (246) 
-0.16594

>  <r_i_glide_evdw>  (246) 
-28.9229

>  <r_i_glide_ecoul>  (246) 
-1.58573

>  <r_i_glide_erotb>  (246) 
0.357898

>  <r_i_glide_esite>  (246) 
-0.0799006

>  <r_i_glide_emodel>  (246) 
-28.5929

>  <r_i_glide_energy>  (246) 
-30.5086

>  <r_i_glide_einternal>  (246) 
11.4644

>  <r_i_glide_intrahb_reward>  (246) 
-0

>  <i_i_glide_confnum>  (246) 
5

>  <i_i_glide_posenum>  (246) 
40

>  <r_i_glide_eff_state_penalty>  (246) 
0

>  <ligand_id>  (246) 
69

>  <original_smiles>  (246) 
CC(=O)C1CC12C(=C(C)C=CC(C)=CC=C(C)C1CC=C(C)C1C)N1CC2C(C)OC(C)=CC1=O

>  <smiles>  (246) 
[H]C(=C([H])C(=C1N2C(=O)C([H])=C(C([H])([H])[H])OC([H])(C([H])([H])[H])C([H])(C2([H])[H])C12C([H])([H])C2([H])C(=O)C([H])([H])[H])C([H])([H])[H])C(=C([H])C([H])=C(C([H])([H])[H])C1([H])C([H])([H])C([H])=C(C([H])([H])[H])C1([H])C([H])([H])[H])C([H])([H])[H]

$$$$
69:15:1
     RDKit          3D

 76 79  0  0  1  0  0  0  0  0999 V2000
    0.2081    1.1837    3.5297 C   0  0  0  0  0  0  0  0  0  0  0  0
    0.7193    1.3230    4.9506 C   0  0  0  0  0  0  0  0  0  0  0  0
    0.1205    2.0268    5.7758 O   0  0  0  0  0  0  0  0  0  0  0  0
    2.0008    0.5564    5.3014 C   0  0  2  0  0  0  0  0  0  0  0  0
    2.1227   -0.8285    4.7091 C   0  0  0  0  0  0  0  0  0  0  0  0
    1.9282   -0.6648    6.2269 C   0  0  1  0  0  0  0  0  0  0  0  0
    2.9410   -0.7976    7.3580 C   0  0  0  0  0  0  0  0  0  0  0  0
    4.2876   -0.5307    7.4669 C   0  0  0  0  0  0  0  0  0  0  0  0
    5.0248   -0.5706    8.7951 C   0  0  0  0  0  0  0  0  0  0  0  0
    5.0791   -0.0778    6.3411 C   0  0  0  0  0  0  0  0  0  0  0  0
    5.3824   -0.6852    5.1600 C   0  0  0  0  0  0  0  0  0  0  0  0
    5.0099   -2.0346    4.6878 C   0  0  0  0  0  0  0  0  0  0  0  0
    4.2698   -3.0409    5.5754 C   0  0  0  0  0  0  0  0  0  0  0  0
    5.1695   -2.3663    3.3771 C   0  0  0  0  0  0  0  0  0  0  0  0
    5.8665   -1.6190    2.3423 C   0  0  0  0  0  0  0  0  0  0  0  0
    5.8885   -1.9228    1.0272 C   0  0  0  0  0  0  0  0  0  0  0  0
    6.6793   -1.0600    0.0875 C   0  0  0  0  0  0  0  0  0  0  0  0
    5.1498   -3.1042    0.3727 C   0  0  2  0  0  0  0  0  0  0  0  0
    6.0196   -3.9303   -0.6199 C   0  0  0  0  0  0  0  0  0  0  0  0
    5.2116   -3.9301   -1.8844 C   0  0  0  0  0  0  0  0  0  0  0  0
    4.0730   -3.2490   -1.7979 C   0  0  0  0  0  0  0  0  0  0  0  0
    3.0495   -3.0731   -2.8984 C   0  0  0  0  0  0  0  0  0  0  0  0
    3.8895   -2.6552   -0.4183 C   0  0  1  0  0  0  0  0  0  0  0  0
    2.5933   -3.2065    0.2400 C   0  0  0  0  0  0  0  0  0  0  0  0
    2.1212   -1.2566    8.4375 N   0  0  0  0  0  0  0  0  0  0  0  0
    0.8011   -0.6772    8.2619 C   0  0  0  0  0  0  0  0  0  0  0  0
    0.5703   -1.0768    6.8179 C   0  0  2  0  0  0  0  0  0  0  0  0
    0.1701   -2.5858    6.6292 C   0  0  1  0  0  0  0  0  0  0  0  0
    1.1225   -3.6727    6.0799 C   0  0  0  0  0  0  0  0  0  0  0  0
   -0.6066   -3.0886    7.6974 O   0  0  0  0  0  0  0  0  0  0  0  0
   -0.0834   -3.4465    8.9405 C   0  0  0  0  0  0  0  0  0  0  0  0
   -1.1631   -4.1653    9.6783 C   0  0  0  0  0  0  0  0  0  0  0  0
    1.1463   -3.1863    9.4873 C   0  0  0  0  0  0  0  0  0  0  0  0
    2.3249   -2.4882    8.9822 C   0  0  0  0  0  0  0  0  0  0  0  0
    3.4197   -3.0184    9.0053 O   0  0  0  0  0  0  0  0  0  0  0  0
    0.9454    1.5306    2.7891 H   0  0  0  0  0  0  0  0  0  0  0  0
   -0.7276    1.7392    3.4051 H   0  0  0  0  0  0  0  0  0  0  0  0
   -0.0155    0.1385    3.2980 H   0  0  0  0  0  0  0  0  0  0  0  0
    2.8958    1.1772    5.3350 H   0  0  0  0  0  0  0  0  0  0  0  0
    1.2149   -1.2145    4.2274 H   0  0  0  0  0  0  0  0  0  0  0  0
    3.0305   -0.8595    4.1550 H   0  0  0  0  0  0  0  0  0  0  0  0
    5.6202    0.3299    8.9363 H   0  0  0  0  0  0  0  0  0  0  0  0
    5.7121   -1.4168    8.8291 H   0  0  0  0  0  0  0  0  0  0  0  0
    4.3793   -0.6413    9.6761 H   0  0  0  0  0  0  0  0  0  0  0  0
    5.5253    0.9049    6.4669 H   0  0  0  0  0  0  0  0  0  0  0  0
    6.0372   -0.0905    4.5592 H   0  0  0  0  0  0  0  0  0  0  0  0
    3.4252   -2.5244    5.9022 H   0  0  0  0  0  0  0  0  0  0  0  0
    4.8577   -3.4098    6.4369 H   0  0  0  0  0  0  0  0  0  0  0  0
    3.9054   -3.8930    4.9656 H   0  0  0  0  0  0  0  0  0  0  0  0
    4.7808   -3.3273    3.1160 H   0  0  0  0  0  0  0  0  0  0  0  0
    6.4362   -0.7440    2.6372 H   0  0  0  0  0  0  0  0  0  0  0  0
    6.0445   -0.6341   -0.7082 H   0  0  0  0  0  0  0  0  0  0  0  0
    7.5081   -1.6146   -0.3650 H   0  0  0  0  0  0  0  0  0  0  0  0
    7.1637   -0.2526    0.5954 H   0  0  0  0  0  0  0  0  0  0  0  0
    4.8368   -3.7972    1.1375 H   0  0  0  0  0  0  0  0  0  0  0  0
    7.0086   -3.5468   -0.8219 H   0  0  0  0  0  0  0  0  0  0  0  0
    6.1310   -4.9488   -0.2384 H   0  0  0  0  0  0  0  0  0  0  0  0
    5.5449   -4.4541   -2.7727 H   0  0  0  0  0  0  0  0  0  0  0  0
    2.8187   -2.0249   -3.0718 H   0  0  0  0  0  0  0  0  0  0  0  0
    2.1266   -3.5947   -2.6359 H   0  0  0  0  0  0  0  0  0  0  0  0
    3.4050   -3.5209   -3.8335 H   0  0  0  0  0  0  0  0  0  0  0  0
    3.8052   -1.5770   -0.5275 H   0  0  0  0  0  0  0  0  0  0  0  0
    1.7444   -2.9466   -0.3515 H   0  0  0  0  0  0  0  0  0  0  0  0
    2.4838   -2.8010    1.2466 H   0  0  0  0  0  0  0  0  0  0  0  0
    2.6364   -4.2970    0.3051 H   0  0  0  0  0  0  0  0  0  0  0  0
    0.0058   -0.9426    8.9797 H   0  0  0  0  0  0  0  0  0  0  0  0
    0.8978    0.4116    8.3356 H   0  0  0  0  0  0  0  0  0  0  0  0
   -0.2835   -0.4992    6.4441 H   0  0  0  0  0  0  0  0  0  0  0  0
   -0.5400   -2.5287    5.8024 H   0  0  0  0  0  0  0  0  0  0  0  0
    1.5582   -3.3753    5.1213 H   0  0  0  0  0  0  0  0  0  0  0  0
    0.5830   -4.5974    5.8810 H   0  0  0  0  0  0  0  0  0  0  0  0
    1.9217   -3.9431    6.7743 H   0  0  0  0  0  0  0  0  0  0  0  0
   -0.8593   -4.4758   10.6779 H   0  0  0  0  0  0  0  0  0  0  0  0
   -1.4754   -5.0539    9.1240 H   0  0  0  0  0  0  0  0  0  0  0  0
   -2.0501   -3.5354    9.7856 H   0  0  0  0  0  0  0  0  0  0  0  0
    1.2549   -3.5952   10.4916 H   0  0  0  0  0  0  0  0  0  0  0  0
  1  2  1  0
  1 36  1  0
  1 37  1  0
  1 38  1  0
  2  3  2  0
  2  4  1  0
  4  6  1  0
  4  5  1  0
  4 39  1  1
  6  5  1  6
  5 40  1  0
  5 41  1  0
  6 27  1  0
  6  7  1  0
  7  8  2  3
  7 25  1  0
  8  9  1  0
  8 10  1  0
  9 42  1  0
  9 43  1  0
  9 44  1  0
 10 11  2  3
 10 45  1  0
 11 12  1  0
 11 46  1  0
 12 13  1  0
 12 14  2  3
 13 47  1  0
 13 48  1  0
 13 49  1  0
 14 15  1  0
 14 50  1  0
 15 16  2  3
 15 51  1  0
 16 17  1  0
 16 18  1  0
 17 52  1  0
 17 53  1  0
 17 54  1  0
 18 23  1  0
 18 19  1  0
 18 55  1  1
 19 20  1  0
 19 56  1  0
 19 57  1  0
 20 21  2  0
 20 58  1  0
 21 22  1  0
 21 23  1  0
 22 59  1  0
 22 60  1  0
 22 61  1  0
 23 24  1  0
 23 62  1  6
 24 63  1  0
 24 64  1  0
 24 65  1  0
 25 34  1  0
 25 26  1  0
 26 27  1  0
 26 66  1  0
 26 67  1  0
 27 28  1  0
 27 68  1  6
 28 29  1  0
 28 30  1  0
 28 69  1  6
 29 70  1  0
 29 71  1  0
 29 72  1  0
 30 31  1  0
 31 32  1  0
 31 33  2  3
 32 73  1  0
 32 74  1  0
 32 75  1  0
 33 34  1  0
 33 76  1  0
 34 35  2  0
M  END
>  <i_m_ct_stereo_status>  (247) 
1

>  <s_m_source_file>  (247) 
/var/tmp/pbs.5076255.sched01/tmpk9_hntje/1089a46f3po.sdf

>  <i_m_source_file_index>  (247) 
13

>  <i_lp_mmshare_version>  (247) 
48012

>  <i_f3d_flags>  (247) 
0

>  <s_epik_input>  (247) 
W0NIM11DKD1PKVtDQEhdKFtDSDJdMSlbQ0BAXTEyW0NAQEhdM1tDSDJdTihDKD1PKS9bQ0hdPUMoW0NIM10pXE9bQ0BASF0zW0NIM10pQ1wyPUMoXFtDSDNdKS9bQ0hdPVtDSF0vQyhbQ0gzXSk9W0NIXS9bQ0hdPUMoXFtDSDNdKVtDQEBIXTRbQ0gyXVtDSF09QyhbQ0gzXSlbQ0BIXTRbQ0gzXQ==

>  <s_epik_cmdline>  (247) 
J2VwaWtfcHl0aG9uJywgJy1waHQnLCAnMi4wJywgJy1waCcsICc3LjAnLCAnLXRuJywgJzgnLCAnLW1hJywgJzIwMCcsICctaW1hZScsICc8aW5maWxlLm1hZT4nLCAnLW9tYWUnLCAnPG91dGZpbGUubWFlPic=

>  <r_lp_tautomer_probability>  (247) 
1

>  <r_epik_Ionization_Penalty>  (247) 
1.49479e-07

>  <r_epik_Ionization_Penalty_Charging>  (247) 
0

>  <r_epik_Ionization_Penalty_Neutral>  (247) 
1.49479e-07

>  <r_epik_State_Penalty>  (247) 
-0

>  <r_epik_Charging_Adjusted_Penalty>  (247) 
0

>  <i_epik_Tot_Q>  (247) 
0

>  <i_epik_Tot_abs_Q>  (247) 
0

>  <s_lp_Force_Field>  (247) 
OPLS3e

>  <r_lp_Energy>  (247) 
63.7914

>  <b_lp_Chiralities_Consistent>  (247) 
1

>  <s_lp_Variant>  (247) 
69:0-16

>  <s_i_glide_gridfile>  (247) 
pfpi4k_grid

>  <i_i_glide_lignum>  (247) 
13

>  <i_i_glide_rotatable_bonds>  (247) 
5

>  <r_i_docking_score>  (247) 
-1.60522

>  <r_i_glide_ligand_efficiency>  (247) 
-0.0458634

>  <r_i_glide_ligand_efficiency_sa>  (247) 
-0.150022

>  <r_i_glide_ligand_efficiency_ln>  (247) 
-0.352382

>  <r_i_glide_gscore>  (247) 
-1.60522

>  <r_i_glide_lipo>  (247) 
-0.44093

>  <r_i_glide_hbond>  (247) 
-0.0660656

>  <r_i_glide_metal>  (247) 
-0

>  <r_i_glide_rewards>  (247) 
-0.16594

>  <r_i_glide_evdw>  (247) 
-20.5412

>  <r_i_glide_ecoul>  (247) 
-1.72346

>  <r_i_glide_erotb>  (247) 
0.357898

>  <r_i_glide_esite>  (247) 
-0.00460634

>  <r_i_glide_emodel>  (247) 
-17.7418

>  <r_i_glide_energy>  (247) 
-22.2646

>  <r_i_glide_einternal>  (247) 
7.31086

>  <r_i_glide_intrahb_reward>  (247) 
-0

>  <i_i_glide_confnum>  (247) 
6

>  <i_i_glide_posenum>  (247) 
10

>  <r_i_glide_eff_state_penalty>  (247) 
0

>  <ligand_id>  (247) 
69

>  <original_smiles>  (247) 
CC(=O)C1CC12C(=C(C)C=CC(C)=CC=C(C)C1CC=C(C)C1C)N1CC2C(C)OC(C)=CC1=O

>  <smiles>  (247) 
[H]C(=C([H])C(=C1N2C(=O)C([H])=C(C([H])([H])[H])OC([H])(C([H])([H])[H])C([H])(C2([H])[H])C12C([H])([H])C2([H])C(=O)C([H])([H])[H])C([H])([H])[H])C(=C([H])C([H])=C(C([H])([H])[H])C1([H])C([H])([H])C([H])=C(C([H])([H])[H])C1([H])C([H])([H])[H])C([H])([H])[H]

$$$$
69:15:2
     RDKit          3D

 76 79  0  0  1  0  0  0  0  0999 V2000
    3.1002    4.5007    4.5817 C   0  0  0  0  0  0  0  0  0  0  0  0
    2.6822    3.2483    3.8237 C   0  0  0  0  0  0  0  0  0  0  0  0
    2.3163    3.3140    2.6564 O   0  0  0  0  0  0  0  0  0  0  0  0
    2.7306    1.9503    4.5781 C   0  0  2  0  0  0  0  0  0  0  0  0
    1.7728    0.8695    4.1559 C   0  0  0  0  0  0  0  0  0  0  0  0
    1.5678    1.5705    5.5043 C   0  0  1  0  0  0  0  0  0  0  0  0
    1.8955    1.0321    6.8805 C   0  0  0  0  0  0  0  0  0  0  0  0
    2.8713    0.1904    7.3557 C   0  0  0  0  0  0  0  0  0  0  0  0
    3.1196   -0.0341    8.8390 C   0  0  0  0  0  0  0  0  0  0  0  0
    3.8246   -0.4649    6.4710 C   0  0  0  0  0  0  0  0  0  0  0  0
    3.6785   -1.5900    5.7418 C   0  0  0  0  0  0  0  0  0  0  0  0
    2.5029   -2.4583    5.5985 C   0  0  0  0  0  0  0  0  0  0  0  0
    1.1158   -2.0236    6.0416 C   0  0  0  0  0  0  0  0  0  0  0  0
    2.6009   -3.6892    5.0433 C   0  0  0  0  0  0  0  0  0  0  0  0
    3.8112   -4.3665    4.5840 C   0  0  0  0  0  0  0  0  0  0  0  0
    3.9120   -5.6690    4.2205 C   0  0  0  0  0  0  0  0  0  0  0  0
    5.2616   -6.2273    3.7799 C   0  0  0  0  0  0  0  0  0  0  0  0
    2.7446   -6.6732    4.2465 C   0  0  2  0  0  0  0  0  0  0  0  0
    2.9505   -7.8267    5.2690 C   0  0  0  0  0  0  0  0  0  0  0  0
    2.7436   -9.0695    4.4551 C   0  0  0  0  0  0  0  0  0  0  0  0
    2.4856   -8.8200    3.1747 C   0  0  0  0  0  0  0  0  0  0  0  0
    2.2499   -9.8505    2.0943 C   0  0  0  0  0  0  0  0  0  0  0  0
    2.4434   -7.3425    2.8655 C   0  0  1  0  0  0  0  0  0  0  0  0
    1.0866   -6.9079    2.2953 C   0  0  0  0  0  0  0  0  0  0  0  0
    0.9485    1.6978    7.7077 N   0  0  0  0  0  0  0  0  0  0  0  0
    0.7227    3.0054    7.1272 C   0  0  0  0  0  0  0  0  0  0  0  0
    0.4161    2.5642    5.7088 C   0  0  2  0  0  0  0  0  0  0  0  0
   -1.0220    1.9744    5.5270 C   0  0  1  0  0  0  0  0  0  0  0  0
   -1.2992    0.4664    5.3807 C   0  0  0  0  0  0  0  0  0  0  0  0
   -1.9912    2.5879    6.3726 O   0  0  0  0  0  0  0  0  0  0  0  0
   -2.1093    2.3495    7.7298 C   0  0  0  0  0  0  0  0  0  0  0  0
   -3.3864    2.9997    8.2026 C   0  0  0  0  0  0  0  0  0  0  0  0
   -1.2892    1.7066    8.6051 C   0  0  0  0  0  0  0  0  0  0  0  0
   -0.0086    1.0112    8.3913 C   0  0  0  0  0  0  0  0  0  0  0  0
    0.1449   -0.1396    8.7840 O   0  0  0  0  0  0  0  0  0  0  0  0
    2.4873    4.5924    5.4759 H   0  0  0  0  0  0  0  0  0  0  0  0
    2.9428    5.3957    3.9758 H   0  0  0  0  0  0  0  0  0  0  0  0
    4.1472    4.4432    4.8935 H   0  0  0  0  0  0  0  0  0  0  0  0
    3.7402    1.5933    4.8185 H   0  0  0  0  0  0  0  0  0  0  0  0
    1.0435    1.1021    3.3770 H   0  0  0  0  0  0  0  0  0  0  0  0
    2.2144   -0.1157    4.0689 H   0  0  0  0  0  0  0  0  0  0  0  0
    4.1863    0.0538    9.0531 H   0  0  0  0  0  0  0  0  0  0  0  0
    2.7997   -1.0349    9.1287 H   0  0  0  0  0  0  0  0  0  0  0  0
    2.6122    0.6851    9.4842 H   0  0  0  0  0  0  0  0  0  0  0  0
    4.7930    0.0182    6.4094 H   0  0  0  0  0  0  0  0  0  0  0  0
    4.5669   -1.8489    5.1829 H   0  0  0  0  0  0  0  0  0  0  0  0
    0.8793   -1.0841    5.5728 H   0  0  0  0  0  0  0  0  0  0  0  0
    1.0667   -1.9172    7.1266 H   0  0  0  0  0  0  0  0  0  0  0  0
    0.3386   -2.7249    5.7331 H   0  0  0  0  0  0  0  0  0  0  0  0
    1.6682   -4.2092    4.9444 H   0  0  0  0  0  0  0  0  0  0  0  0
    4.7200   -3.7931    4.5141 H   0  0  0  0  0  0  0  0  0  0  0  0
    5.2318   -6.6202    2.7653 H   0  0  0  0  0  0  0  0  0  0  0  0
    5.5794   -7.0336    4.4392 H   0  0  0  0  0  0  0  0  0  0  0  0
    6.0361   -5.4647    3.8079 H   0  0  0  0  0  0  0  0  0  0  0  0
    1.8325   -6.1832    4.5660 H   0  0  0  0  0  0  0  0  0  0  0  0
    3.9302   -7.8386    5.7388 H   0  0  0  0  0  0  0  0  0  0  0  0
    2.2048   -7.7859    6.0648 H   0  0  0  0  0  0  0  0  0  0  0  0
    2.8054  -10.0551    4.8963 H   0  0  0  0  0  0  0  0  0  0  0  0
    2.9339   -9.7054    1.2571 H   0  0  0  0  0  0  0  0  0  0  0  0
    1.2302   -9.7799    1.7187 H   0  0  0  0  0  0  0  0  0  0  0  0
    2.3993  -10.8589    2.4834 H   0  0  0  0  0  0  0  0  0  0  0  0
    3.2073   -7.1333    2.1247 H   0  0  0  0  0  0  0  0  0  0  0  0
    0.8825   -7.3850    1.3354 H   0  0  0  0  0  0  0  0  0  0  0  0
    1.0561   -5.8326    2.1410 H   0  0  0  0  0  0  0  0  0  0  0  0
    0.2790   -7.1736    2.9729 H   0  0  0  0  0  0  0  0  0  0  0  0
    0.0035    3.6766    7.5987 H   0  0  0  0  0  0  0  0  0  0  0  0
    1.6699    3.5455    7.1783 H   0  0  0  0  0  0  0  0  0  0  0  0
    0.4563    3.4398    5.0748 H   0  0  0  0  0  0  0  0  0  0  0  0
   -1.2956    2.3401    4.5344 H   0  0  0  0  0  0  0  0  0  0  0  0
   -0.7136    0.0338    4.5733 H   0  0  0  0  0  0  0  0  0  0  0  0
   -2.3398    0.3061    5.0990 H   0  0  0  0  0  0  0  0  0  0  0  0
   -1.1256   -0.1069    6.2868 H   0  0  0  0  0  0  0  0  0  0  0  0
   -3.5603    2.8599    9.2647 H   0  0  0  0  0  0  0  0  0  0  0  0
   -4.2236    2.5807    7.6553 H   0  0  0  0  0  0  0  0  0  0  0  0
   -3.3478    4.0657    8.0011 H   0  0  0  0  0  0  0  0  0  0  0  0
   -1.6406    1.7004    9.6305 H   0  0  0  0  0  0  0  0  0  0  0  0
  1  2  1  0
  1 36  1  0
  1 37  1  0
  1 38  1  0
  2  3  2  0
  2  4  1  0
  4  6  1  0
  4  5  1  0
  4 39  1  1
  6  5  1  6
  5 40  1  0
  5 41  1  0
  6 27  1  0
  6  7  1  0
  7  8  2  3
  7 25  1  0
  8  9  1  0
  8 10  1  0
  9 42  1  0
  9 43  1  0
  9 44  1  0
 10 11  2  3
 10 45  1  0
 11 12  1  0
 11 46  1  0
 12 13  1  0
 12 14  2  3
 13 47  1  0
 13 48  1  0
 13 49  1  0
 14 15  1  0
 14 50  1  0
 15 16  2  3
 15 51  1  0
 16 17  1  0
 16 18  1  0
 17 52  1  0
 17 53  1  0
 17 54  1  0
 18 23  1  0
 18 19  1  0
 18 55  1  1
 19 20  1  0
 19 56  1  0
 19 57  1  0
 20 21  2  0
 20 58  1  0
 21 22  1  0
 21 23  1  0
 22 59  1  0
 22 60  1  0
 22 61  1  0
 23 24  1  0
 23 62  1  6
 24 63  1  0
 24 64  1  0
 24 65  1  0
 25 34  1  0
 25 26  1  0
 26 27  1  0
 26 66  1  0
 26 67  1  0
 27 28  1  0
 27 68  1  6
 28 29  1  0
 28 30  1  0
 28 69  1  6
 29 70  1  0
 29 71  1  0
 29 72  1  0
 30 31  1  0
 31 32  1  0
 31 33  2  3
 32 73  1  0
 32 74  1  0
 32 75  1  0
 33 34  1  0
 33 76  1  0
 34 35  2  0
M  END
>  <i_m_ct_stereo_status>  (248) 
1

>  <s_m_source_file>  (248) 
/var/tmp/pbs.5076255.sched01/tmpk9_hntje/1089a46f3po.sdf

>  <i_m_source_file_index>  (248) 
13

>  <i_lp_mmshare_version>  (248) 
48012

>  <i_f3d_flags>  (248) 
0

>  <s_epik_input>  (248) 
W0NIM11DKD1PKVtDQEhdKFtDSDJdMSlbQ0BAXTEyW0NAQEhdM1tDSDJdTihDKD1PKS9bQ0hdPUMoW0NIM10pXE9bQ0BASF0zW0NIM10pQ1wyPUMoXFtDSDNdKS9bQ0hdPVtDSF0vQyhbQ0gzXSk9W0NIXS9bQ0hdPUMoXFtDSDNdKVtDQEBIXTRbQ0gyXVtDSF09QyhbQ0gzXSlbQ0BIXTRbQ0gzXQ==

>  <s_epik_cmdline>  (248) 
J2VwaWtfcHl0aG9uJywgJy1waHQnLCAnMi4wJywgJy1waCcsICc3LjAnLCAnLXRuJywgJzgnLCAnLW1hJywgJzIwMCcsICctaW1hZScsICc8aW5maWxlLm1hZT4nLCAnLW9tYWUnLCAnPG91dGZpbGUubWFlPic=

>  <r_lp_tautomer_probability>  (248) 
1

>  <r_epik_Ionization_Penalty>  (248) 
1.49479e-07

>  <r_epik_Ionization_Penalty_Charging>  (248) 
0

>  <r_epik_Ionization_Penalty_Neutral>  (248) 
1.49479e-07

>  <r_epik_State_Penalty>  (248) 
-0

>  <r_epik_Charging_Adjusted_Penalty>  (248) 
0

>  <i_epik_Tot_Q>  (248) 
0

>  <i_epik_Tot_abs_Q>  (248) 
0

>  <s_lp_Force_Field>  (248) 
OPLS3e

>  <r_lp_Energy>  (248) 
63.7914

>  <b_lp_Chiralities_Consistent>  (248) 
1

>  <s_lp_Variant>  (248) 
69:0-16

>  <s_i_glide_gridfile>  (248) 
pfpi4k_grid

>  <i_i_glide_lignum>  (248) 
13

>  <i_i_glide_rotatable_bonds>  (248) 
5

>  <r_i_docking_score>  (248) 
-1.16716

>  <r_i_glide_ligand_efficiency>  (248) 
-0.0333473

>  <r_i_glide_ligand_efficiency_sa>  (248) 
-0.109081

>  <r_i_glide_ligand_efficiency_ln>  (248) 
-0.256217

>  <r_i_glide_gscore>  (248) 
-1.16716

>  <r_i_glide_lipo>  (248) 
-0.0822462

>  <r_i_glide_hbond>  (248) 
0

>  <r_i_glide_metal>  (248) 
-0

>  <r_i_glide_rewards>  (248) 
-0.16594

>  <r_i_glide_evdw>  (248) 
-23.9108

>  <r_i_glide_ecoul>  (248) 
-0.2559

>  <r_i_glide_erotb>  (248) 
0.357898

>  <r_i_glide_esite>  (248) 
-0.0429459

>  <r_i_glide_emodel>  (248) 
-22.0206

>  <r_i_glide_energy>  (248) 
-24.1667

>  <r_i_glide_einternal>  (248) 
6.85076

>  <r_i_glide_intrahb_reward>  (248) 
-0

>  <i_i_glide_confnum>  (248) 
6

>  <i_i_glide_posenum>  (248) 
19

>  <r_i_glide_eff_state_penalty>  (248) 
0

>  <ligand_id>  (248) 
69

>  <original_smiles>  (248) 
CC(=O)C1CC12C(=C(C)C=CC(C)=CC=C(C)C1CC=C(C)C1C)N1CC2C(C)OC(C)=CC1=O

>  <smiles>  (248) 
[H]C(=C([H])C(=C1N2C(=O)C([H])=C(C([H])([H])[H])OC([H])(C([H])([H])[H])C([H])(C2([H])[H])C12C([H])([H])C2([H])C(=O)C([H])([H])[H])C([H])([H])[H])C(=C([H])C([H])=C(C([H])([H])[H])C1([H])C([H])([H])C([H])=C(C([H])([H])[H])C1([H])C([H])([H])[H])C([H])([H])[H]

$$$$
69:17:0
     RDKit          3D

 76 79  0  0  1  0  0  0  0  0999 V2000
   -2.2264    2.7851    3.0822 C   0  0  0  0  0  0  0  0  0  0  0  0
   -1.1452    3.7001    3.6407 C   0  0  0  0  0  0  0  0  0  0  0  0
   -1.2781    4.9145    3.5647 O   0  0  0  0  0  0  0  0  0  0  0  0
    0.1061    3.0738    4.2263 C   0  0  2  0  0  0  0  0  0  0  0  0
   -0.0419    1.8631    5.1211 C   0  0  0  0  0  0  0  0  0  0  0  0
    0.3693    3.2015    5.7481 C   0  0  1  0  0  0  0  0  0  0  0  0
    1.7695    3.5163    6.2867 C   0  0  0  0  0  0  0  0  0  0  0  0
    3.0197    3.0517    5.9778 C   0  0  0  0  0  0  0  0  0  0  0  0
    4.2933    3.6240    6.5814 C   0  0  0  0  0  0  0  0  0  0  0  0
    3.2196    2.0647    4.9370 C   0  0  0  0  0  0  0  0  0  0  0  0
    4.2540    1.2191    4.8194 C   0  0  0  0  0  0  0  0  0  0  0  0
    4.3547    0.2289    3.7419 C   0  0  0  0  0  0  0  0  0  0  0  0
    3.2615    0.1950    2.6703 C   0  0  0  0  0  0  0  0  0  0  0  0
    5.3862   -0.6319    3.7494 C   0  0  0  0  0  0  0  0  0  0  0  0
    5.6946   -1.6815    2.7780 C   0  0  0  0  0  0  0  0  0  0  0  0
    5.6730   -1.6276    1.4240 C   0  0  0  0  0  0  0  0  0  0  0  0
    5.3693   -0.3884    0.5990 C   0  0  0  0  0  0  0  0  0  0  0  0
    5.9872   -2.8664    0.5979 C   0  0  2  0  0  0  0  0  0  0  0  0
    7.3515   -2.7500   -0.1134 C   0  0  0  0  0  0  0  0  0  0  0  0
    7.0320   -2.9835   -1.5557 C   0  0  0  0  0  0  0  0  0  0  0  0
    5.7338   -3.1967   -1.7889 C   0  0  0  0  0  0  0  0  0  0  0  0
    5.0716   -3.4587   -3.1125 C   0  0  0  0  0  0  0  0  0  0  0  0
    4.9264   -3.1671   -0.5041 C   0  0  1  0  0  0  0  0  0  0  0  0
    4.1953   -4.4792   -0.2643 C   0  0  0  0  0  0  0  0  0  0  0  0
    1.5456    4.4341    7.3538 N   0  0  0  0  0  0  0  0  0  0  0  0
    0.2665    5.0922    7.1267 C   0  0  0  0  0  0  0  0  0  0  0  0
   -0.6541    3.9988    6.5811 C   0  0  2  0  0  0  0  0  0  0  0  0
   -1.4998    3.2249    7.6731 C   0  0  1  0  0  0  0  0  0  0  0  0
   -2.8614    2.7603    7.1194 C   0  0  0  0  0  0  0  0  0  0  0  0
   -0.8958    2.0703    8.2823 O   0  0  0  0  0  0  0  0  0  0  0  0
    0.3568    2.2260    8.8341 C   0  0  0  0  0  0  0  0  0  0  0  0
    1.2467    1.0590    8.4879 C   0  0  0  0  0  0  0  0  0  0  0  0
    0.7508    3.4391    9.3025 C   0  0  0  0  0  0  0  0  0  0  0  0
    1.8615    4.0940    8.6500 C   0  0  0  0  0  0  0  0  0  0  0  0
    2.9201    4.3785    9.1827 O   0  0  0  0  0  0  0  0  0  0  0  0
   -1.8413    2.1637    2.2683 H   0  0  0  0  0  0  0  0  0  0  0  0
   -3.0537    3.3794    2.6978 H   0  0  0  0  0  0  0  0  0  0  0  0
   -2.6146    2.1374    3.8662 H   0  0  0  0  0  0  0  0  0  0  0  0
    0.9600    3.1073    3.5437 H   0  0  0  0  0  0  0  0  0  0  0  0
   -1.0516    1.4980    5.3166 H   0  0  0  0  0  0  0  0  0  0  0  0
    0.7090    1.0806    5.0675 H   0  0  0  0  0  0  0  0  0  0  0  0
    5.0511    3.7264    5.8057 H   0  0  0  0  0  0  0  0  0  0  0  0
    4.6663    2.9515    7.3538 H   0  0  0  0  0  0  0  0  0  0  0  0
    4.1388    4.6209    6.9916 H   0  0  0  0  0  0  0  0  0  0  0  0
    2.4694    2.0311    4.1788 H   0  0  0  0  0  0  0  0  0  0  0  0
    5.0557    1.2738    5.5569 H   0  0  0  0  0  0  0  0  0  0  0  0
    2.2815    0.3651    3.0574 H   0  0  0  0  0  0  0  0  0  0  0  0
    3.2900   -0.7292    2.0673 H   0  0  0  0  0  0  0  0  0  0  0  0
    3.4975    1.0034    1.9612 H   0  0  0  0  0  0  0  0  0  0  0  0
    6.0849   -0.5681    4.5712 H   0  0  0  0  0  0  0  0  0  0  0  0
    5.9757   -2.6255    3.2153 H   0  0  0  0  0  0  0  0  0  0  0  0
    5.9844   -0.3459   -0.2814 H   0  0  0  0  0  0  0  0  0  0  0  0
    5.5002    0.5131    1.2114 H   0  0  0  0  0  0  0  0  0  0  0  0
    4.2934   -0.4102    0.3664 H   0  0  0  0  0  0  0  0  0  0  0  0
    6.0456   -3.7311    1.2615 H   0  0  0  0  0  0  0  0  0  0  0  0
    7.8129   -1.7758    0.0156 H   0  0  0  0  0  0  0  0  0  0  0  0
    8.0566   -3.5026    0.2384 H   0  0  0  0  0  0  0  0  0  0  0  0
    7.8153   -2.9829   -2.2892 H   0  0  0  0  0  0  0  0  0  0  0  0
    4.3017   -2.7153   -3.3364 H   0  0  0  0  0  0  0  0  0  0  0  0
    4.6115   -4.4492   -3.1291 H   0  0  0  0  0  0  0  0  0  0  0  0
    5.8228   -3.4497   -3.8995 H   0  0  0  0  0  0  0  0  0  0  0  0
    4.1740   -2.3995   -0.6140 H   0  0  0  0  0  0  0  0  0  0  0  0
    3.4551   -4.6543   -1.0386 H   0  0  0  0  0  0  0  0  0  0  0  0
    3.6671   -4.4779    0.6864 H   0  0  0  0  0  0  0  0  0  0  0  0
    4.8846   -5.3151   -0.2596 H   0  0  0  0  0  0  0  0  0  0  0  0
   -0.1270    5.6335    7.9851 H   0  0  0  0  0  0  0  0  0  0  0  0
    0.4450    5.8411    6.3472 H   0  0  0  0  0  0  0  0  0  0  0  0
   -1.3757    4.5441    5.9903 H   0  0  0  0  0  0  0  0  0  0  0  0
   -1.7662    3.9330    8.4562 H   0  0  0  0  0  0  0  0  0  0  0  0
   -3.3891    3.5704    6.6141 H   0  0  0  0  0  0  0  0  0  0  0  0
   -3.4868    2.4231    7.9440 H   0  0  0  0  0  0  0  0  0  0  0  0
   -2.7654    1.9338    6.4211 H   0  0  0  0  0  0  0  0  0  0  0  0
    2.3011    1.2850    8.6232 H   0  0  0  0  0  0  0  0  0  0  0  0
    1.0885    0.7124    7.4678 H   0  0  0  0  0  0  0  0  0  0  0  0
    1.0094    0.2293    9.1523 H   0  0  0  0  0  0  0  0  0  0  0  0
   -0.0134    4.1387    9.5753 H   0  0  0  0  0  0  0  0  0  0  0  0
  1  2  1  0
  1 36  1  0
  1 37  1  0
  1 38  1  0
  2  3  2  0
  2  4  1  0
  4  6  1  0
  4  5  1  0
  4 39  1  6
  6  5  1  1
  5 40  1  0
  5 41  1  0
  6 27  1  0
  6  7  1  0
  7  8  2  3
  7 25  1  0
  8  9  1  0
  8 10  1  0
  9 42  1  0
  9 43  1  0
  9 44  1  0
 10 11  2  3
 10 45  1  0
 11 12  1  0
 11 46  1  0
 12 13  1  0
 12 14  2  3
 13 47  1  0
 13 48  1  0
 13 49  1  0
 14 15  1  0
 14 50  1  0
 15 16  2  3
 15 51  1  0
 16 17  1  0
 16 18  1  0
 17 52  1  0
 17 53  1  0
 17 54  1  0
 18 23  1  0
 18 19  1  0
 18 55  1  1
 19 20  1  0
 19 56  1  0
 19 57  1  0
 20 21  2  0
 20 58  1  0
 21 22  1  0
 21 23  1  0
 22 59  1  0
 22 60  1  0
 22 61  1  0
 23 24  1  0
 23 62  1  6
 24 63  1  0
 24 64  1  0
 24 65  1  0
 25 34  1  0
 25 26  1  0
 26 27  1  0
 26 66  1  0
 26 67  1  0
 27 28  1  0
 27 68  1  6
 28 29  1  0
 28 30  1  0
 28 69  1  1
 29 70  1  0
 29 71  1  0
 29 72  1  0
 30 31  1  0
 31 32  1  0
 31 33  2  3
 32 73  1  0
 32 74  1  0
 32 75  1  0
 33 34  1  0
 33 76  1  0
 34 35  2  0
M  END
>  <i_m_ct_stereo_status>  (249) 
1

>  <s_m_source_file>  (249) 
/var/tmp/pbs.5076255.sched01/tmpk9_hntje/1089a46f3po.sdf

>  <i_m_source_file_index>  (249) 
15

>  <i_lp_mmshare_version>  (249) 
48012

>  <i_f3d_flags>  (249) 
0

>  <s_epik_input>  (249) 
W0NIM11DKD1PKVtDQEhdKFtDSDJdMSlbQ0BAXTEyW0NAQEhdM1tDSDJdTihDKD1PKS9bQ0hdPUMoW0NIM10pXE9bQ0BASF0zW0NIM10pQ1wyPUMoXFtDSDNdKS9bQ0hdPVtDSF0vQyhbQ0gzXSk9W0NIXS9bQ0hdPUMoXFtDSDNdKVtDQEBIXTRbQ0gyXVtDSF09QyhbQ0gzXSlbQ0BIXTRbQ0gzXQ==

>  <s_epik_cmdline>  (249) 
J2VwaWtfcHl0aG9uJywgJy1waHQnLCAnMi4wJywgJy1waCcsICc3LjAnLCAnLXRuJywgJzgnLCAnLW1hJywgJzIwMCcsICctaW1hZScsICc8aW5maWxlLm1hZT4nLCAnLW9tYWUnLCAnPG91dGZpbGUubWFlPic=

>  <r_lp_tautomer_probability>  (249) 
1

>  <r_epik_Ionization_Penalty>  (249) 
1.49479e-07

>  <r_epik_Ionization_Penalty_Charging>  (249) 
0

>  <r_epik_Ionization_Penalty_Neutral>  (249) 
1.49479e-07

>  <r_epik_State_Penalty>  (249) 
-0

>  <r_epik_Charging_Adjusted_Penalty>  (249) 
0

>  <i_epik_Tot_Q>  (249) 
0

>  <i_epik_Tot_abs_Q>  (249) 
0

>  <s_lp_Force_Field>  (249) 
OPLS3e

>  <r_lp_Energy>  (249) 
82.4506

>  <b_lp_Chiralities_Consistent>  (249) 
1

>  <s_lp_Variant>  (249) 
69:0-18

>  <s_i_glide_gridfile>  (249) 
pfpi4k_grid

>  <i_i_glide_lignum>  (249) 
15

>  <i_i_glide_rotatable_bonds>  (249) 
5

>  <r_i_docking_score>  (249) 
-3.24764

>  <r_i_glide_ligand_efficiency>  (249) 
-0.0927897

>  <r_i_glide_ligand_efficiency_sa>  (249) 
-0.303521

>  <r_i_glide_ligand_efficiency_ln>  (249) 
-0.712929

>  <r_i_glide_gscore>  (249) 
-3.24764

>  <r_i_glide_lipo>  (249) 
-1.2329

>  <r_i_glide_hbond>  (249) 
-0.16

>  <r_i_glide_metal>  (249) 
-0

>  <r_i_glide_rewards>  (249) 
-0.16594

>  <r_i_glide_evdw>  (249) 
-29.8579

>  <r_i_glide_ecoul>  (249) 
-3.1245

>  <r_i_glide_erotb>  (249) 
0.357898

>  <r_i_glide_esite>  (249) 
-0.0851299

>  <r_i_glide_emodel>  (249) 
-34.2465

>  <r_i_glide_energy>  (249) 
-32.9824

>  <r_i_glide_einternal>  (249) 
7.52258

>  <r_i_glide_intrahb_reward>  (249) 
-0

>  <i_i_glide_confnum>  (249) 
3

>  <i_i_glide_posenum>  (249) 
17

>  <r_i_glide_eff_state_penalty>  (249) 
0

>  <ligand_id>  (249) 
69

>  <original_smiles>  (249) 
CC(=O)C1CC12C(=C(C)C=CC(C)=CC=C(C)C1CC=C(C)C1C)N1CC2C(C)OC(C)=CC1=O

>  <smiles>  (249) 
[H]C(=C([H])C(=C1N2C(=O)C([H])=C(C([H])([H])[H])OC([H])(C([H])([H])[H])C([H])(C2([H])[H])C12C([H])([H])C2([H])C(=O)C([H])([H])[H])C([H])([H])[H])C(=C([H])C([H])=C(C([H])([H])[H])C1([H])C([H])([H])C([H])=C(C([H])([H])[H])C1([H])C([H])([H])[H])C([H])([H])[H]

$$$$
69:17:1
     RDKit          3D

 76 79  0  0  1  0  0  0  0  0999 V2000
   -1.2928    2.5038    3.3523 C   0  0  0  0  0  0  0  0  0  0  0  0
   -0.5035    3.5857    4.0746 C   0  0  0  0  0  0  0  0  0  0  0  0
   -0.7642    4.7739    3.8650 O   0  0  0  0  0  0  0  0  0  0  0  0
    0.5886    3.1777    5.0483 C   0  0  2  0  0  0  0  0  0  0  0  0
    0.3072    2.0310    5.9952 C   0  0  0  0  0  0  0  0  0  0  0  0
    0.3972    3.4401    6.5602 C   0  0  1  0  0  0  0  0  0  0  0  0
    1.5686    3.9786    7.4074 C   0  0  0  0  0  0  0  0  0  0  0  0
    2.9099    3.6884    7.4295 C   0  0  0  0  0  0  0  0  0  0  0  0
    3.8754    4.4835    8.3104 C   0  0  0  0  0  0  0  0  0  0  0  0
    3.5001    2.6591    6.5688 C   0  0  0  0  0  0  0  0  0  0  0  0
    4.8021    2.2968    6.5333 C   0  0  0  0  0  0  0  0  0  0  0  0
    5.3941    1.2903    5.6541 C   0  0  0  0  0  0  0  0  0  0  0  0
    6.7265    0.6950    6.0897 C   0  0  0  0  0  0  0  0  0  0  0  0
    4.7660    0.9277    4.5108 C   0  0  0  0  0  0  0  0  0  0  0  0
    5.2054   -0.0755    3.5536 C   0  0  0  0  0  0  0  0  0  0  0  0
    4.5733   -0.3726    2.3954 C   0  0  0  0  0  0  0  0  0  0  0  0
    3.2920    0.3145    1.9192 C   0  0  0  0  0  0  0  0  0  0  0  0
    5.1290   -1.4694    1.4820 C   0  0  2  0  0  0  0  0  0  0  0  0
    5.7964   -0.9213    0.2040 C   0  0  0  0  0  0  0  0  0  0  0  0
    5.1357   -1.6717   -0.9187 C   0  0  0  0  0  0  0  0  0  0  0  0
    4.2180   -2.5290   -0.4834 C   0  0  0  0  0  0  0  0  0  0  0  0
    3.3661   -3.4367   -1.3420 C   0  0  0  0  0  0  0  0  0  0  0  0
    4.0910   -2.5395    1.0195 C   0  0  1  0  0  0  0  0  0  0  0  0
    4.4003   -3.9198    1.6110 C   0  0  0  0  0  0  0  0  0  0  0  0
    0.9724    4.9275    8.2804 N   0  0  0  0  0  0  0  0  0  0  0  0
   -0.2703    5.4034    7.6697 C   0  0  0  0  0  0  0  0  0  0  0  0
   -0.8814    4.1553    7.0276 C   0  0  2  0  0  0  0  0  0  0  0  0
   -1.8974    3.3587    7.9339 C   0  0  1  0  0  0  0  0  0  0  0  0
   -2.9895    2.6697    7.0956 C   0  0  0  0  0  0  0  0  0  0  0  0
   -1.3551    2.3391    8.7928 O   0  0  0  0  0  0  0  0  0  0  0  0
   -0.3279    2.7086    9.6230 C   0  0  0  0  0  0  0  0  0  0  0  0
    0.7587    1.6519    9.6442 C   0  0  0  0  0  0  0  0  0  0  0  0
   -0.2119    3.9887   10.0473 C   0  0  0  0  0  0  0  0  0  0  0  0
    0.9602    4.7443    9.6356 C   0  0  0  0  0  0  0  0  0  0  0  0
    1.7896    5.2205   10.4031 O   0  0  0  0  0  0  0  0  0  0  0  0
   -0.6332    1.8994    2.7285 H   0  0  0  0  0  0  0  0  0  0  0  0
   -2.0549    2.9528    2.7142 H   0  0  0  0  0  0  0  0  0  0  0  0
   -1.8003    1.8576    4.0671 H   0  0  0  0  0  0  0  0  0  0  0  0
    1.6001    3.2694    4.6446 H   0  0  0  0  0  0  0  0  0  0  0  0
   -0.6681    1.5632    5.9444 H   0  0  0  0  0  0  0  0  0  0  0  0
    1.0884    1.3192    6.2406 H   0  0  0  0  0  0  0  0  0  0  0  0
    4.8051    4.7004    7.7850 H   0  0  0  0  0  0  0  0  0  0  0  0
    4.1072    3.9200    9.2166 H   0  0  0  0  0  0  0  0  0  0  0  0
    3.4909    5.4642    8.5918 H   0  0  0  0  0  0  0  0  0  0  0  0
    2.8549    2.1540    5.8881 H   0  0  0  0  0  0  0  0  0  0  0  0
    5.4989    2.7744    7.2048 H   0  0  0  0  0  0  0  0  0  0  0  0
    7.3901    1.4854    6.4488 H   0  0  0  0  0  0  0  0  0  0  0  0
    7.2656    0.1826    5.2951 H   0  0  0  0  0  0  0  0  0  0  0  0
    6.5770   -0.0146    6.9040 H   0  0  0  0  0  0  0  0  0  0  0  0
    3.8430    1.4249    4.2782 H   0  0  0  0  0  0  0  0  0  0  0  0
    6.0984   -0.6413    3.7697 H   0  0  0  0  0  0  0  0  0  0  0  0
    3.3158    0.4522    0.8399 H   0  0  0  0  0  0  0  0  0  0  0  0
    3.1428    1.3059    2.3400 H   0  0  0  0  0  0  0  0  0  0  0  0
    2.4145   -0.2842    2.1652 H   0  0  0  0  0  0  0  0  0  0  0  0
    5.9173   -1.9730    2.0439 H   0  0  0  0  0  0  0  0  0  0  0  0
    5.6281    0.1480    0.0768 H   0  0  0  0  0  0  0  0  0  0  0  0
    6.8694   -1.0986    0.2038 H   0  0  0  0  0  0  0  0  0  0  0  0
    5.3946   -1.5068   -1.9538 H   0  0  0  0  0  0  0  0  0  0  0  0
    2.3056   -3.2549   -1.1633 H   0  0  0  0  0  0  0  0  0  0  0  0
    3.5845   -4.4791   -1.1113 H   0  0  0  0  0  0  0  0  0  0  0  0
    3.5673   -3.2832   -2.4036 H   0  0  0  0  0  0  0  0  0  0  0  0
    3.0679   -2.2660    1.2760 H   0  0  0  0  0  0  0  0  0  0  0  0
    3.6840   -4.6684    1.2831 H   0  0  0  0  0  0  0  0  0  0  0  0
    4.3828   -3.9027    2.6995 H   0  0  0  0  0  0  0  0  0  0  0  0
    5.3866   -4.2511    1.3036 H   0  0  0  0  0  0  0  0  0  0  0  0
   -0.9459    5.9463    8.3342 H   0  0  0  0  0  0  0  0  0  0  0  0
    0.0172    6.1106    6.8899 H   0  0  0  0  0  0  0  0  0  0  0  0
   -1.4861    4.5398    6.2136 H   0  0  0  0  0  0  0  0  0  0  0  0
   -2.4497    4.0762    8.5398 H   0  0  0  0  0  0  0  0  0  0  0  0
   -3.4509    3.3554    6.3840 H   0  0  0  0  0  0  0  0  0  0  0  0
   -3.7807    2.3070    7.7479 H   0  0  0  0  0  0  0  0  0  0  0  0
   -2.6339    1.8142    6.5256 H   0  0  0  0  0  0  0  0  0  0  0  0
    1.7050    2.0344   10.0231 H   0  0  0  0  0  0  0  0  0  0  0  0
    0.9189    1.2201    8.6603 H   0  0  0  0  0  0  0  0  0  0  0  0
    0.4466    0.8483   10.3085 H   0  0  0  0  0  0  0  0  0  0  0  0
   -1.1017    4.5994   10.0508 H   0  0  0  0  0  0  0  0  0  0  0  0
  1  2  1  0
  1 36  1  0
  1 37  1  0
  1 38  1  0
  2  3  2  0
  2  4  1  0
  4  6  1  0
  4  5  1  0
  4 39  1  6
  6  5  1  1
  5 40  1  0
  5 41  1  0
  6 27  1  0
  6  7  1  0
  7  8  2  3
  7 25  1  0
  8  9  1  0
  8 10  1  0
  9 42  1  0
  9 43  1  0
  9 44  1  0
 10 11  2  3
 10 45  1  0
 11 12  1  0
 11 46  1  0
 12 13  1  0
 12 14  2  3
 13 47  1  0
 13 48  1  0
 13 49  1  0
 14 15  1  0
 14 50  1  0
 15 16  2  3
 15 51  1  0
 16 17  1  0
 16 18  1  0
 17 52  1  0
 17 53  1  0
 17 54  1  0
 18 23  1  0
 18 19  1  0
 18 55  1  1
 19 20  1  0
 19 56  1  0
 19 57  1  0
 20 21  2  0
 20 58  1  0
 21 22  1  0
 21 23  1  0
 22 59  1  0
 22 60  1  0
 22 61  1  0
 23 24  1  0
 23 62  1  6
 24 63  1  0
 24 64  1  0
 24 65  1  0
 25 34  1  0
 25 26  1  0
 26 27  1  0
 26 66  1  0
 26 67  1  0
 27 28  1  0
 27 68  1  6
 28 29  1  0
 28 30  1  0
 28 69  1  1
 29 70  1  0
 29 71  1  0
 29 72  1  0
 30 31  1  0
 31 32  1  0
 31 33  2  3
 32 73  1  0
 32 74  1  0
 32 75  1  0
 33 34  1  0
 33 76  1  0
 34 35  2  0
M  END
>  <i_m_ct_stereo_status>  (250) 
1

>  <s_m_source_file>  (250) 
/var/tmp/pbs.5076255.sched01/tmpk9_hntje/1089a46f3po.sdf

>  <i_m_source_file_index>  (250) 
15

>  <i_lp_mmshare_version>  (250) 
48012

>  <i_f3d_flags>  (250) 
0

>  <s_epik_input>  (250) 
W0NIM11DKD1PKVtDQEhdKFtDSDJdMSlbQ0BAXTEyW0NAQEhdM1tDSDJdTihDKD1PKS9bQ0hdPUMoW0NIM10pXE9bQ0BASF0zW0NIM10pQ1wyPUMoXFtDSDNdKS9bQ0hdPVtDSF0vQyhbQ0gzXSk9W0NIXS9bQ0hdPUMoXFtDSDNdKVtDQEBIXTRbQ0gyXVtDSF09QyhbQ0gzXSlbQ0BIXTRbQ0gzXQ==

>  <s_epik_cmdline>  (250) 
J2VwaWtfcHl0aG9uJywgJy1waHQnLCAnMi4wJywgJy1waCcsICc3LjAnLCAnLXRuJywgJzgnLCAnLW1hJywgJzIwMCcsICctaW1hZScsICc8aW5maWxlLm1hZT4nLCAnLW9tYWUnLCAnPG91dGZpbGUubWFlPic=

>  <r_lp_tautomer_probability>  (250) 
1

>  <r_epik_Ionization_Penalty>  (250) 
1.49479e-07

>  <r_epik_Ionization_Penalty_Charging>  (250) 
0

>  <r_epik_Ionization_Penalty_Neutral>  (250) 
1.49479e-07

>  <r_epik_State_Penalty>  (250) 
-0

>  <r_epik_Charging_Adjusted_Penalty>  (250) 
0

>  <i_epik_Tot_Q>  (250) 
0

>  <i_epik_Tot_abs_Q>  (250) 
0

>  <s_lp_Force_Field>  (250) 
OPLS3e

>  <r_lp_Energy>  (250) 
82.4506

>  <b_lp_Chiralities_Consistent>  (250) 
1

>  <s_lp_Variant>  (250) 
69:0-18

>  <s_i_glide_gridfile>  (250) 
pfpi4k_grid

>  <i_i_glide_lignum>  (250) 
15

>  <i_i_glide_rotatable_bonds>  (250) 
5

>  <r_i_docking_score>  (250) 
-2.41366

>  <r_i_glide_ligand_efficiency>  (250) 
-0.0689617

>  <r_i_glide_ligand_efficiency_sa>  (250) 
-0.225578

>  <r_i_glide_ligand_efficiency_ln>  (250) 
-0.529852

>  <r_i_glide_gscore>  (250) 
-2.41366

>  <r_i_glide_lipo>  (250) 
-0.923197

>  <r_i_glide_hbond>  (250) 
-0.0467225

>  <r_i_glide_metal>  (250) 
-0

>  <r_i_glide_rewards>  (250) 
-0.16594

>  <r_i_glide_evdw>  (250) 
-27.328

>  <r_i_glide_ecoul>  (250) 
-1.39702

>  <r_i_glide_erotb>  (250) 
0.357898

>  <r_i_glide_esite>  (250) 
-0.0597448

>  <r_i_glide_emodel>  (250) 
-30.5072

>  <r_i_glide_energy>  (250) 
-28.7251

>  <r_i_glide_einternal>  (250) 
5.09633

>  <r_i_glide_intrahb_reward>  (250) 
-0

>  <i_i_glide_confnum>  (250) 
5

>  <i_i_glide_posenum>  (250) 
31

>  <r_i_glide_eff_state_penalty>  (250) 
0

>  <ligand_id>  (250) 
69

>  <original_smiles>  (250) 
CC(=O)C1CC12C(=C(C)C=CC(C)=CC=C(C)C1CC=C(C)C1C)N1CC2C(C)OC(C)=CC1=O

>  <smiles>  (250) 
[H]C(=C([H])C(=C1N2C(=O)C([H])=C(C([H])([H])[H])OC([H])(C([H])([H])[H])C([H])(C2([H])[H])C12C([H])([H])C2([H])C(=O)C([H])([H])[H])C([H])([H])[H])C(=C([H])C([H])=C(C([H])([H])[H])C1([H])C([H])([H])C([H])=C(C([H])([H])[H])C1([H])C([H])([H])[H])C([H])([H])[H]

$$$$
69:17:2
     RDKit          3D

 76 79  0  0  1  0  0  0  0  0999 V2000
    0.6932   -7.5112    6.7945 C   0  0  0  0  0  0  0  0  0  0  0  0
    0.4563   -7.0799    5.3441 C   0  0  0  0  0  0  0  0  0  0  0  0
   -0.6735   -7.0818    4.8561 O   0  0  0  0  0  0  0  0  0  0  0  0
    1.6659   -6.6658    4.5544 C   0  0  2  0  0  0  0  0  0  0  0  0
    1.6944   -6.9435    3.0660 C   0  0  0  0  0  0  0  0  0  0  0  0
    2.6207   -7.7466    3.9827 C   0  0  1  0  0  0  0  0  0  0  0  0
    4.1187   -7.5128    4.0786 C   0  0  0  0  0  0  0  0  0  0  0  0
    4.9258   -6.4219    3.8744 C   0  0  0  0  0  0  0  0  0  0  0  0
    6.4225   -6.4617    4.1687 C   0  0  0  0  0  0  0  0  0  0  0  0
    4.3776   -5.1112    3.4590 C   0  0  0  0  0  0  0  0  0  0  0  0
    5.1258   -4.0591    3.0707 C   0  0  0  0  0  0  0  0  0  0  0  0
    4.5990   -2.7525    2.6858 C   0  0  0  0  0  0  0  0  0  0  0  0
    5.2125   -2.0988    1.4584 C   0  0  0  0  0  0  0  0  0  0  0  0
    3.5977   -2.1985    3.4037 C   0  0  0  0  0  0  0  0  0  0  0  0
    2.9441   -0.9227    3.1297 C   0  0  0  0  0  0  0  0  0  0  0  0
    2.0496   -0.3012    3.9340 C   0  0  0  0  0  0  0  0  0  0  0  0
    1.5788   -0.8620    5.2717 C   0  0  0  0  0  0  0  0  0  0  0  0
    1.4167    1.0317    3.5162 C   0  0  2  0  0  0  0  0  0  0  0  0
    1.8542    2.2269    4.4051 C   0  0  0  0  0  0  0  0  0  0  0  0
    0.5536    2.8635    4.8264 C   0  0  0  0  0  0  0  0  0  0  0  0
   -0.5068    2.2344    4.3581 C   0  0  0  0  0  0  0  0  0  0  0  0
   -1.9630    2.6088    4.5753 C   0  0  0  0  0  0  0  0  0  0  0  0
   -0.1527    1.0330    3.4904 C   0  0  1  0  0  0  0  0  0  0  0  0
   -0.6930    1.1941    2.0779 C   0  0  0  0  0  0  0  0  0  0  0  0
    4.6722   -8.8021    4.4218 N   0  0  0  0  0  0  0  0  0  0  0  0
    3.6084   -9.5748    5.0726 C   0  0  0  0  0  0  0  0  0  0  0  0
    2.3353   -9.2297    4.2948 C   0  0  2  0  0  0  0  0  0  0  0  0
    1.9848  -10.1844    3.0966 C   0  0  1  0  0  0  0  0  0  0  0  0
    0.4591  -10.2875    2.8763 C   0  0  0  0  0  0  0  0  0  0  0  0
    2.5545   -9.8516    1.8215 O   0  0  0  0  0  0  0  0  0  0  0  0
    3.9198   -9.6731    1.7719 C   0  0  0  0  0  0  0  0  0  0  0  0
    4.2853   -8.4825    0.9166 C   0  0  0  0  0  0  0  0  0  0  0  0
    4.7083  -10.3022    2.6629 C   0  0  0  0  0  0  0  0  0  0  0  0
    5.4945   -9.4763    3.5863 C   0  0  0  0  0  0  0  0  0  0  0  0
    6.7221   -9.4433    3.6313 O   0  0  0  0  0  0  0  0  0  0  0  0
    1.4320   -8.3098    6.8504 H   0  0  0  0  0  0  0  0  0  0  0  0
   -0.2112   -7.8974    7.2638 H   0  0  0  0  0  0  0  0  0  0  0  0
    1.0906   -6.6862    7.3862 H   0  0  0  0  0  0  0  0  0  0  0  0
    2.0635   -5.7029    4.8675 H   0  0  0  0  0  0  0  0  0  0  0  0
    0.8448   -7.4445    2.6317 H   0  0  0  0  0  0  0  0  0  0  0  0
    2.1414   -6.2305    2.3862 H   0  0  0  0  0  0  0  0  0  0  0  0
    6.7665   -5.5454    4.6545 H   0  0  0  0  0  0  0  0  0  0  0  0
    6.9957   -6.5997    3.2468 H   0  0  0  0  0  0  0  0  0  0  0  0
    6.7081   -7.2620    4.8573 H   0  0  0  0  0  0  0  0  0  0  0  0
    3.3251   -4.9449    3.4837 H   0  0  0  0  0  0  0  0  0  0  0  0
    6.1956   -4.1615    3.0228 H   0  0  0  0  0  0  0  0  0  0  0  0
    6.2993   -2.1992    1.4817 H   0  0  0  0  0  0  0  0  0  0  0  0
    4.9919   -1.0368    1.3620 H   0  0  0  0  0  0  0  0  0  0  0  0
    4.8404   -2.5872    0.5569 H   0  0  0  0  0  0  0  0  0  0  0  0
    3.2571   -2.7611    4.2558 H   0  0  0  0  0  0  0  0  0  0  0  0
    3.1734   -0.4168    2.2062 H   0  0  0  0  0  0  0  0  0  0  0  0
    1.4366   -0.0604    5.9953 H   0  0  0  0  0  0  0  0  0  0  0  0
    2.2935   -1.5503    5.7113 H   0  0  0  0  0  0  0  0  0  0  0  0
    0.6289   -1.3860    5.1565 H   0  0  0  0  0  0  0  0  0  0  0  0
    1.7785    1.2464    2.5075 H   0  0  0  0  0  0  0  0  0  0  0  0
    2.4304    1.9347    5.2783 H   0  0  0  0  0  0  0  0  0  0  0  0
    2.4441    2.9412    3.8354 H   0  0  0  0  0  0  0  0  0  0  0  0
    0.5321    3.7553    5.4443 H   0  0  0  0  0  0  0  0  0  0  0  0
   -2.5020    1.7723    5.0157 H   0  0  0  0  0  0  0  0  0  0  0  0
   -2.4490    2.8621    3.6317 H   0  0  0  0  0  0  0  0  0  0  0  0
   -2.0504    3.4683    5.2436 H   0  0  0  0  0  0  0  0  0  0  0  0
   -0.5811    0.1371    3.9381 H   0  0  0  0  0  0  0  0  0  0  0  0
   -1.7791    1.2073    2.0326 H   0  0  0  0  0  0  0  0  0  0  0  0
   -0.3471    0.3913    1.4263 H   0  0  0  0  0  0  0  0  0  0  0  0
   -0.3361    2.1190    1.6363 H   0  0  0  0  0  0  0  0  0  0  0  0
    3.7923  -10.6479    5.1691 H   0  0  0  0  0  0  0  0  0  0  0  0
    3.5301   -9.1996    6.0922 H   0  0  0  0  0  0  0  0  0  0  0  0
    1.5347   -9.4277    4.9949 H   0  0  0  0  0  0  0  0  0  0  0  0
    2.2743  -11.1954    3.3735 H   0  0  0  0  0  0  0  0  0  0  0  0
   -0.0704  -10.5148    3.8047 H   0  0  0  0  0  0  0  0  0  0  0  0
    0.2373  -11.0901    2.1689 H   0  0  0  0  0  0  0  0  0  0  0  0
    0.0074   -9.3906    2.4560 H   0  0  0  0  0  0  0  0  0  0  0  0
    5.2994   -8.1295    1.0966 H   0  0  0  0  0  0  0  0  0  0  0  0
    3.5839   -7.6679    1.0494 H   0  0  0  0  0  0  0  0  0  0  0  0
    4.2264   -8.7926   -0.1229 H   0  0  0  0  0  0  0  0  0  0  0  0
    4.3407  -11.2079    3.1236 H   0  0  0  0  0  0  0  0  0  0  0  0
  1  2  1  0
  1 36  1  0
  1 37  1  0
  1 38  1  0
  2  3  2  0
  2  4  1  0
  4  6  1  0
  4  5  1  0
  4 39  1  6
  6  5  1  6
  5 40  1  0
  5 41  1  0
  6 27  1  0
  6  7  1  0
  7  8  2  3
  7 25  1  0
  8  9  1  0
  8 10  1  0
  9 42  1  0
  9 43  1  0
  9 44  1  0
 10 11  2  3
 10 45  1  0
 11 12  1  0
 11 46  1  0
 12 13  1  0
 12 14  2  3
 13 47  1  0
 13 48  1  0
 13 49  1  0
 14 15  1  0
 14 50  1  0
 15 16  2  3
 15 51  1  0
 16 17  1  0
 16 18  1  0
 17 52  1  0
 17 53  1  0
 17 54  1  0
 18 23  1  0
 18 19  1  0
 18 55  1  6
 19 20  1  0
 19 56  1  0
 19 57  1  0
 20 21  2  0
 20 58  1  0
 21 22  1  0
 21 23  1  0
 22 59  1  0
 22 60  1  0
 22 61  1  0
 23 24  1  0
 23 62  1  1
 24 63  1  0
 24 64  1  0
 24 65  1  0
 25 34  1  0
 25 26  1  0
 26 27  1  0
 26 66  1  0
 26 67  1  0
 27 28  1  0
 27 68  1  1
 28 29  1  0
 28 30  1  0
 28 69  1  1
 29 70  1  0
 29 71  1  0
 29 72  1  0
 30 31  1  0
 31 32  1  0
 31 33  2  3
 32 73  1  0
 32 74  1  0
 32 75  1  0
 33 34  1  0
 33 76  1  0
 34 35  2  0
M  END
>  <i_m_ct_stereo_status>  (251) 
1

>  <s_m_source_file>  (251) 
/var/tmp/pbs.5076255.sched01/tmpk9_hntje/1089a46f3po.sdf

>  <i_m_source_file_index>  (251) 
15

>  <i_lp_mmshare_version>  (251) 
48012

>  <i_f3d_flags>  (251) 
0

>  <s_epik_input>  (251) 
W0NIM11DKD1PKVtDQEhdKFtDSDJdMSlbQ0BAXTEyW0NAQEhdM1tDSDJdTihDKD1PKS9bQ0hdPUMoW0NIM10pXE9bQ0BASF0zW0NIM10pQ1wyPUMoXFtDSDNdKS9bQ0hdPVtDSF0vQyhbQ0gzXSk9W0NIXS9bQ0hdPUMoXFtDSDNdKVtDQEBIXTRbQ0gyXVtDSF09QyhbQ0gzXSlbQ0BIXTRbQ0gzXQ==

>  <s_epik_cmdline>  (251) 
J2VwaWtfcHl0aG9uJywgJy1waHQnLCAnMi4wJywgJy1waCcsICc3LjAnLCAnLXRuJywgJzgnLCAnLW1hJywgJzIwMCcsICctaW1hZScsICc8aW5maWxlLm1hZT4nLCAnLW9tYWUnLCAnPG91dGZpbGUubWFlPic=

>  <r_lp_tautomer_probability>  (251) 
1

>  <r_epik_Ionization_Penalty>  (251) 
1.49479e-07

>  <r_epik_Ionization_Penalty_Charging>  (251) 
0

>  <r_epik_Ionization_Penalty_Neutral>  (251) 
1.49479e-07

>  <r_epik_State_Penalty>  (251) 
-0

>  <r_epik_Charging_Adjusted_Penalty>  (251) 
0

>  <i_epik_Tot_Q>  (251) 
0

>  <i_epik_Tot_abs_Q>  (251) 
0

>  <s_lp_Force_Field>  (251) 
OPLS3e

>  <r_lp_Energy>  (251) 
82.4506

>  <b_lp_Chiralities_Consistent>  (251) 
1

>  <s_lp_Variant>  (251) 
69:0-18

>  <s_i_glide_gridfile>  (251) 
pfpi4k_grid

>  <i_i_glide_lignum>  (251) 
15

>  <i_i_glide_rotatable_bonds>  (251) 
5

>  <r_i_docking_score>  (251) 
-1.72265

>  <r_i_glide_ligand_efficiency>  (251) 
-0.0492184

>  <r_i_glide_ligand_efficiency_sa>  (251) 
-0.160997

>  <r_i_glide_ligand_efficiency_ln>  (251) 
-0.378159

>  <r_i_glide_gscore>  (251) 
-1.72265

>  <r_i_glide_lipo>  (251) 
-0.269245

>  <r_i_glide_hbond>  (251) 
0

>  <r_i_glide_metal>  (251) 
-0

>  <r_i_glide_rewards>  (251) 
-0.16594

>  <r_i_glide_evdw>  (251) 
-29.5268

>  <r_i_glide_ecoul>  (251) 
-1.02377

>  <r_i_glide_erotb>  (251) 
0.357898

>  <r_i_glide_esite>  (251) 
-0.0154552

>  <r_i_glide_emodel>  (251) 
-31.2146

>  <r_i_glide_energy>  (251) 
-30.5505

>  <r_i_glide_einternal>  (251) 
4.42788

>  <r_i_glide_intrahb_reward>  (251) 
-0

>  <i_i_glide_confnum>  (251) 
5

>  <i_i_glide_posenum>  (251) 
3

>  <r_i_glide_eff_state_penalty>  (251) 
0

>  <ligand_id>  (251) 
69

>  <original_smiles>  (251) 
CC(=O)C1CC12C(=C(C)C=CC(C)=CC=C(C)C1CC=C(C)C1C)N1CC2C(C)OC(C)=CC1=O

>  <smiles>  (251) 
[H]C(=C([H])C(=C1N2C(=O)C([H])=C(C([H])([H])[H])OC([H])(C([H])([H])[H])C([H])(C2([H])[H])C12C([H])([H])C2([H])C(=O)C([H])([H])[H])C([H])([H])[H])C(=C([H])C([H])=C(C([H])([H])[H])C1([H])C([H])([H])C([H])=C(C([H])([H])[H])C1([H])C([H])([H])[H])C([H])([H])[H]

$$$$
69:20:0
     RDKit          3D

 76 79  0  0  1  0  0  0  0  0999 V2000
   -2.0481    2.6616    2.8838 C   0  0  0  0  0  0  0  0  0  0  0  0
   -1.8264    2.2181    4.3239 C   0  0  0  0  0  0  0  0  0  0  0  0
   -2.2977    2.8692    5.2579 O   0  0  0  0  0  0  0  0  0  0  0  0
   -0.9653    0.9990    4.5328 C   0  0  2  0  0  0  0  0  0  0  0  0
   -0.2102    0.8514    5.8358 C   0  0  0  0  0  0  0  0  0  0  0  0
    0.5671    1.1632    4.5612 C   0  0  1  0  0  0  0  0  0  0  0  0
    1.4602    0.1444    3.8206 C   0  0  0  0  0  0  0  0  0  0  0  0
    1.3795   -1.2206    3.6579 C   0  0  0  0  0  0  0  0  0  0  0  0
    0.2929   -2.0863    4.3084 C   0  0  0  0  0  0  0  0  0  0  0  0
    2.2963   -1.9149    2.7564 C   0  0  0  0  0  0  0  0  0  0  0  0
    2.4233   -3.2590    2.6117 C   0  0  0  0  0  0  0  0  0  0  0  0
    3.3693   -3.9267    1.7170 C   0  0  0  0  0  0  0  0  0  0  0  0
    4.2865   -3.0977    0.8257 C   0  0  0  0  0  0  0  0  0  0  0  0
    3.4750   -5.2774    1.6476 C   0  0  0  0  0  0  0  0  0  0  0  0
    2.6927   -6.2429    2.4014 C   0  0  0  0  0  0  0  0  0  0  0  0
    2.8662   -7.5931    2.4270 C   0  0  0  0  0  0  0  0  0  0  0  0
    4.0239   -8.2951    1.7174 C   0  0  0  0  0  0  0  0  0  0  0  0
    1.8997   -8.5030    3.2219 C   0  0  2  0  0  0  0  0  0  0  0  0
    1.7601   -9.9743    2.7061 C   0  0  0  0  0  0  0  0  0  0  0  0
    0.2868  -10.1705    2.5201 C   0  0  0  0  0  0  0  0  0  0  0  0
   -0.4203   -9.1072    2.8623 C   0  0  0  0  0  0  0  0  0  0  0  0
   -1.9193   -8.9458    2.7249 C   0  0  0  0  0  0  0  0  0  0  0  0
    0.4289   -7.9704    3.3639 C   0  0  1  0  0  0  0  0  0  0  0  0
    0.0568   -7.5832    4.8079 C   0  0  0  0  0  0  0  0  0  0  0  0
    2.5100    0.9238    3.2698 N   0  0  0  0  0  0  0  0  0  0  0  0
    2.0089    2.2873    3.0753 C   0  0  0  0  0  0  0  0  0  0  0  0
    1.1616    2.5635    4.3243 C   0  0  2  0  0  0  0  0  0  0  0  0
    1.9214    3.2602    5.5200 C   0  0  1  0  0  0  0  0  0  0  0  0
    0.9999    4.1737    6.3492 C   0  0  0  0  0  0  0  0  0  0  0  0
    2.5846    2.4022    6.4708 O   0  0  0  0  0  0  0  0  0  0  0  0
    3.4522    1.4677    5.9664 C   0  0  0  0  0  0  0  0  0  0  0  0
    3.2897    0.1296    6.6683 C   0  0  0  0  0  0  0  0  0  0  0  0
    4.0807    1.6788    4.7968 C   0  0  0  0  0  0  0  0  0  0  0  0
    3.7865    0.7721    3.6838 C   0  0  0  0  0  0  0  0  0  0  0  0
    4.6265    0.0303    3.1694 O   0  0  0  0  0  0  0  0  0  0  0  0
   -1.0867    2.8299    2.3977 H   0  0  0  0  0  0  0  0  0  0  0  0
   -2.6156    3.5933    2.8368 H   0  0  0  0  0  0  0  0  0  0  0  0
   -2.5735    1.8963    2.3115 H   0  0  0  0  0  0  0  0  0  0  0  0
   -1.3930    0.0949    4.1020 H   0  0  0  0  0  0  0  0  0  0  0  0
   -0.3163    1.6310    6.5714 H   0  0  0  0  0  0  0  0  0  0  0  0
   -0.0867   -0.1307    6.2782 H   0  0  0  0  0  0  0  0  0  0  0  0
   -0.1892   -2.6804    3.5327 H   0  0  0  0  0  0  0  0  0  0  0  0
   -0.4910   -1.5693    4.8216 H   0  0  0  0  0  0  0  0  0  0  0  0
    0.7520   -2.7690    5.0211 H   0  0  0  0  0  0  0  0  0  0  0  0
    2.9350   -1.3206    2.1162 H   0  0  0  0  0  0  0  0  0  0  0  0
    1.7626   -3.8560    3.2138 H   0  0  0  0  0  0  0  0  0  0  0  0
    4.8829   -2.4113    1.4333 H   0  0  0  0  0  0  0  0  0  0  0  0
    3.6963   -2.5250    0.1066 H   0  0  0  0  0  0  0  0  0  0  0  0
    4.9777   -3.7197    0.2636 H   0  0  0  0  0  0  0  0  0  0  0  0
    4.2025   -5.6539    0.9513 H   0  0  0  0  0  0  0  0  0  0  0  0
    1.8875   -5.8575    2.9987 H   0  0  0  0  0  0  0  0  0  0  0  0
    4.5330   -8.9450    2.4252 H   0  0  0  0  0  0  0  0  0  0  0  0
    4.7802   -7.6186    1.3233 H   0  0  0  0  0  0  0  0  0  0  0  0
    3.6754   -8.9029    0.8862 H   0  0  0  0  0  0  0  0  0  0  0  0
    2.3389   -8.5638    4.2181 H   0  0  0  0  0  0  0  0  0  0  0  0
    2.2032  -10.1968    1.7297 H   0  0  0  0  0  0  0  0  0  0  0  0
    2.1391  -10.6970    3.4364 H   0  0  0  0  0  0  0  0  0  0  0  0
   -0.1220  -11.0701    2.0847 H   0  0  0  0  0  0  0  0  0  0  0  0
   -2.3549   -8.8108    3.7112 H   0  0  0  0  0  0  0  0  0  0  0  0
   -2.3415   -9.8439    2.2831 H   0  0  0  0  0  0  0  0  0  0  0  0
   -2.1777   -8.0921    2.0973 H   0  0  0  0  0  0  0  0  0  0  0  0
    0.1957   -7.1466    2.6876 H   0  0  0  0  0  0  0  0  0  0  0  0
   -0.9633   -7.1974    4.8754 H   0  0  0  0  0  0  0  0  0  0  0  0
    0.7242   -6.8143    5.2025 H   0  0  0  0  0  0  0  0  0  0  0  0
    0.1225   -8.4483    5.4686 H   0  0  0  0  0  0  0  0  0  0  0  0
    2.7690    3.0500    2.8787 H   0  0  0  0  0  0  0  0  0  0  0  0
    1.3702    2.2800    2.1986 H   0  0  0  0  0  0  0  0  0  0  0  0
    0.4465    3.3055    3.9808 H   0  0  0  0  0  0  0  0  0  0  0  0
    2.6520    3.9513    5.0983 H   0  0  0  0  0  0  0  0  0  0  0  0
    0.4383    4.8622    5.7126 H   0  0  0  0  0  0  0  0  0  0  0  0
    1.5936    4.7714    7.0426 H   0  0  0  0  0  0  0  0  0  0  0  0
    0.2765    3.6288    6.9547 H   0  0  0  0  0  0  0  0  0  0  0  0
    3.7114   -0.6980    6.0913 H   0  0  0  0  0  0  0  0  0  0  0  0
    2.2487   -0.0790    6.8818 H   0  0  0  0  0  0  0  0  0  0  0  0
    3.8227    0.1671    7.6146 H   0  0  0  0  0  0  0  0  0  0  0  0
    4.1948    2.7057    4.4639 H   0  0  0  0  0  0  0  0  0  0  0  0
  1  2  1  0
  1 36  1  0
  1 37  1  0
  1 38  1  0
  2  3  2  0
  2  4  1  0
  4  6  1  0
  4  5  1  0
  4 39  1  6
  6  5  1  1
  5 40  1  0
  5 41  1  0
  6 27  1  0
  6  7  1  0
  7  8  2  3
  7 25  1  0
  8  9  1  0
  8 10  1  0
  9 42  1  0
  9 43  1  0
  9 44  1  0
 10 11  2  3
 10 45  1  0
 11 12  1  0
 11 46  1  0
 12 13  1  0
 12 14  2  3
 13 47  1  0
 13 48  1  0
 13 49  1  0
 14 15  1  0
 14 50  1  0
 15 16  2  3
 15 51  1  0
 16 17  1  0
 16 18  1  0
 17 52  1  0
 17 53  1  0
 17 54  1  0
 18 23  1  0
 18 19  1  0
 18 55  1  1
 19 20  1  0
 19 56  1  0
 19 57  1  0
 20 21  2  0
 20 58  1  0
 21 22  1  0
 21 23  1  0
 22 59  1  0
 22 60  1  0
 22 61  1  0
 23 24  1  0
 23 62  1  6
 24 63  1  0
 24 64  1  0
 24 65  1  0
 25 34  1  0
 25 26  1  0
 26 27  1  0
 26 66  1  0
 26 67  1  0
 27 28  1  0
 27 68  1  6
 28 29  1  0
 28 30  1  0
 28 69  1  6
 29 70  1  0
 29 71  1  0
 29 72  1  0
 30 31  1  0
 31 32  1  0
 31 33  2  3
 32 73  1  0
 32 74  1  0
 32 75  1  0
 33 34  1  0
 33 76  1  0
 34 35  2  0
M  END
>  <i_m_ct_stereo_status>  (252) 
1

>  <s_m_source_file>  (252) 
/var/tmp/pbs.5076255.sched01/tmpk9_hntje/1089a46f3po.sdf

>  <i_m_source_file_index>  (252) 
18

>  <i_lp_mmshare_version>  (252) 
48012

>  <i_f3d_flags>  (252) 
0

>  <s_epik_input>  (252) 
W0NIM11DKD1PKVtDQEhdKFtDSDJdMSlbQ0BAXTEyW0NAQEhdM1tDSDJdTihDKD1PKS9bQ0hdPUMoW0NIM10pXE9bQ0BASF0zW0NIM10pQ1wyPUMoXFtDSDNdKS9bQ0hdPVtDSF0vQyhbQ0gzXSk9W0NIXS9bQ0hdPUMoXFtDSDNdKVtDQEBIXTRbQ0gyXVtDSF09QyhbQ0gzXSlbQ0BIXTRbQ0gzXQ==

>  <s_epik_cmdline>  (252) 
J2VwaWtfcHl0aG9uJywgJy1waHQnLCAnMi4wJywgJy1waCcsICc3LjAnLCAnLXRuJywgJzgnLCAnLW1hJywgJzIwMCcsICctaW1hZScsICc8aW5maWxlLm1hZT4nLCAnLW9tYWUnLCAnPG91dGZpbGUubWFlPic=

>  <r_lp_tautomer_probability>  (252) 
1

>  <r_epik_Ionization_Penalty>  (252) 
1.49479e-07

>  <r_epik_Ionization_Penalty_Charging>  (252) 
0

>  <r_epik_Ionization_Penalty_Neutral>  (252) 
1.49479e-07

>  <r_epik_State_Penalty>  (252) 
-0

>  <r_epik_Charging_Adjusted_Penalty>  (252) 
0

>  <i_epik_Tot_Q>  (252) 
0

>  <i_epik_Tot_abs_Q>  (252) 
0

>  <s_lp_Force_Field>  (252) 
OPLS3e

>  <r_lp_Energy>  (252) 
82.8624

>  <b_lp_Chiralities_Consistent>  (252) 
1

>  <s_lp_Variant>  (252) 
69:0-21

>  <s_i_glide_gridfile>  (252) 
pfpi4k_grid

>  <i_i_glide_lignum>  (252) 
18

>  <i_i_glide_rotatable_bonds>  (252) 
5

>  <r_i_docking_score>  (252) 
-2.24133

>  <r_i_glide_ligand_efficiency>  (252) 
-0.0640381

>  <r_i_glide_ligand_efficiency_sa>  (252) 
-0.209473

>  <r_i_glide_ligand_efficiency_ln>  (252) 
-0.492023

>  <r_i_glide_gscore>  (252) 
-2.24133

>  <r_i_glide_lipo>  (252) 
-0.372868

>  <r_i_glide_hbond>  (252) 
0

>  <r_i_glide_metal>  (252) 
-0

>  <r_i_glide_rewards>  (252) 
-0.16594

>  <r_i_glide_evdw>  (252) 
-32

>  <r_i_glide_ecoul>  (252) 
-2.83454

>  <r_i_glide_erotb>  (252) 
0.357898

>  <r_i_glide_esite>  (252) 
-0.0352414

>  <r_i_glide_emodel>  (252) 
-34.9391

>  <r_i_glide_energy>  (252) 
-34.8346

>  <r_i_glide_einternal>  (252) 
7.68897

>  <r_i_glide_intrahb_reward>  (252) 
-0

>  <i_i_glide_confnum>  (252) 
3

>  <i_i_glide_posenum>  (252) 
34

>  <r_i_glide_eff_state_penalty>  (252) 
0

>  <ligand_id>  (252) 
69

>  <original_smiles>  (252) 
CC(=O)C1CC12C(=C(C)C=CC(C)=CC=C(C)C1CC=C(C)C1C)N1CC2C(C)OC(C)=CC1=O

>  <smiles>  (252) 
[H]C(=C([H])C(=C1N2C(=O)C([H])=C(C([H])([H])[H])OC([H])(C([H])([H])[H])C([H])(C2([H])[H])C12C([H])([H])C2([H])C(=O)C([H])([H])[H])C([H])([H])[H])C(=C([H])C([H])=C(C([H])([H])[H])C1([H])C([H])([H])C([H])=C(C([H])([H])[H])C1([H])C([H])([H])[H])C([H])([H])[H]

$$$$
69:20:1
     RDKit          3D

 76 79  0  0  1  0  0  0  0  0999 V2000
   -2.3781    2.8559    5.9474 C   0  0  0  0  0  0  0  0  0  0  0  0
   -1.8363    2.1924    4.6921 C   0  0  0  0  0  0  0  0  0  0  0  0
   -2.1177    2.6701    3.5894 O   0  0  0  0  0  0  0  0  0  0  0  0
   -0.9596    0.9691    4.8003 C   0  0  2  0  0  0  0  0  0  0  0  0
   -0.1066    0.7827    6.0402 C   0  0  0  0  0  0  0  0  0  0  0  0
    0.5771    1.1313    4.7254 C   0  0  1  0  0  0  0  0  0  0  0  0
    1.4240    0.1286    3.9194 C   0  0  0  0  0  0  0  0  0  0  0  0
    1.3370   -1.2335    3.7386 C   0  0  0  0  0  0  0  0  0  0  0  0
    0.2917   -2.1109    4.4400 C   0  0  0  0  0  0  0  0  0  0  0  0
    2.1996   -1.9106    2.7736 C   0  0  0  0  0  0  0  0  0  0  0  0
    2.3208   -3.2514    2.5989 C   0  0  0  0  0  0  0  0  0  0  0  0
    3.2136   -3.9017    1.6384 C   0  0  0  0  0  0  0  0  0  0  0  0
    4.0748   -3.0540    0.7099 C   0  0  0  0  0  0  0  0  0  0  0  0
    3.3179   -5.2502    1.5403 C   0  0  0  0  0  0  0  0  0  0  0  0
    2.5819   -6.2276    2.3238 C   0  0  0  0  0  0  0  0  0  0  0  0
    2.7724   -7.5757    2.3368 C   0  0  0  0  0  0  0  0  0  0  0  0
    3.9123   -8.2595    1.5809 C   0  0  0  0  0  0  0  0  0  0  0  0
    1.8505   -8.5008    3.1654 C   0  0  2  0  0  0  0  0  0  0  0  0
    1.6895   -9.9642    2.6346 C   0  0  0  0  0  0  0  0  0  0  0  0
    0.2109  -10.1661    2.5219 C   0  0  0  0  0  0  0  0  0  0  0  0
   -0.4834   -9.1123    2.9202 C   0  0  0  0  0  0  0  0  0  0  0  0
   -1.9861   -8.9501    2.8645 C   0  0  0  0  0  0  0  0  0  0  0  0
    0.3861   -7.9798    3.3943 C   0  0  1  0  0  0  0  0  0  0  0  0
    0.0919   -7.6165    4.8619 C   0  0  0  0  0  0  0  0  0  0  0  0
    2.4442    0.9188    3.3254 N   0  0  0  0  0  0  0  0  0  0  0  0
    1.9317    2.2855    3.1856 C   0  0  0  0  0  0  0  0  0  0  0  0
    1.1544    2.5381    4.4837 C   0  0  2  0  0  0  0  0  0  0  0  0
    1.9871    3.2143    5.6451 C   0  0  1  0  0  0  0  0  0  0  0  0
    1.1264    4.1143    6.5492 C   0  0  0  0  0  0  0  0  0  0  0  0
    2.6991    2.3391    6.5425 O   0  0  0  0  0  0  0  0  0  0  0  0
    3.5384    1.4144    5.9751 C   0  0  0  0  0  0  0  0  0  0  0  0
    3.4158    0.0637    6.6603 C   0  0  0  0  0  0  0  0  0  0  0  0
    4.0986    1.6479    4.7762 C   0  0  0  0  0  0  0  0  0  0  0  0
    3.7418    0.7588    3.6666 C   0  0  0  0  0  0  0  0  0  0  0  0
    4.5483    0.0267    3.0943 O   0  0  0  0  0  0  0  0  0  0  0  0
   -2.9895    2.1565    6.5156 H   0  0  0  0  0  0  0  0  0  0  0  0
   -2.9804    3.7297    5.6913 H   0  0  0  0  0  0  0  0  0  0  0  0
   -1.5640    3.2012    6.5810 H   0  0  0  0  0  0  0  0  0  0  0  0
   -1.4034    0.0808    4.3501 H   0  0  0  0  0  0  0  0  0  0  0  0
   -0.1296    1.5398    6.8041 H   0  0  0  0  0  0  0  0  0  0  0  0
    0.0309   -0.2146    6.4458 H   0  0  0  0  0  0  0  0  0  0  0  0
   -0.2291   -2.6992    3.6836 H   0  0  0  0  0  0  0  0  0  0  0  0
   -0.4675   -1.6052    5.0001 H   0  0  0  0  0  0  0  0  0  0  0  0
    0.7892   -2.8045    5.1138 H   0  0  0  0  0  0  0  0  0  0  0  0
    2.7981   -1.3026    2.1071 H   0  0  0  0  0  0  0  0  0  0  0  0
    1.6969   -3.8580    3.2300 H   0  0  0  0  0  0  0  0  0  0  0  0
    4.7050   -2.3781    1.2944 H   0  0  0  0  0  0  0  0  0  0  0  0
    3.4432   -2.4699    0.0366 H   0  0  0  0  0  0  0  0  0  0  0  0
    4.7328   -3.6657    0.0980 H   0  0  0  0  0  0  0  0  0  0  0  0
    4.0024   -5.6150    0.7954 H   0  0  0  0  0  0  0  0  0  0  0  0
    1.7991   -5.8521    2.9560 H   0  0  0  0  0  0  0  0  0  0  0  0
    4.4587   -8.9028    2.2669 H   0  0  0  0  0  0  0  0  0  0  0  0
    4.6395   -7.5701    1.1579 H   0  0  0  0  0  0  0  0  0  0  0  0
    3.5467   -8.8721    0.7613 H   0  0  0  0  0  0  0  0  0  0  0  0
    2.3421   -8.5779    4.1355 H   0  0  0  0  0  0  0  0  0  0  0  0
    2.0774  -10.1710    1.6346 H   0  0  0  0  0  0  0  0  0  0  0  0
    2.1086  -10.6983    3.3300 H   0  0  0  0  0  0  0  0  0  0  0  0
   -0.2021  -11.0609    2.0871 H   0  0  0  0  0  0  0  0  0  0  0  0
   -2.3674   -8.8330    3.8754 H   0  0  0  0  0  0  0  0  0  0  0  0
   -2.4296   -9.8416    2.4311 H   0  0  0  0  0  0  0  0  0  0  0  0
   -2.2795   -8.0861    2.2674 H   0  0  0  0  0  0  0  0  0  0  0  0
    0.1086   -7.1497    2.7429 H   0  0  0  0  0  0  0  0  0  0  0  0
   -0.9237   -7.2348    4.9879 H   0  0  0  0  0  0  0  0  0  0  0  0
    0.7771   -6.8517    5.2313 H   0  0  0  0  0  0  0  0  0  0  0  0
    0.1951   -8.4909    5.5058 H   0  0  0  0  0  0  0  0  0  0  0  0
    2.6795    3.0528    2.9589 H   0  0  0  0  0  0  0  0  0  0  0  0
    1.2415    2.2936    2.3467 H   0  0  0  0  0  0  0  0  0  0  0  0
    0.4206    3.2816    4.1839 H   0  0  0  0  0  0  0  0  0  0  0  0
    2.6935    3.9126    5.1954 H   0  0  0  0  0  0  0  0  0  0  0  0
    0.5152    4.8061    5.9631 H   0  0  0  0  0  0  0  0  0  0  0  0
    1.7628    4.7078    7.2070 H   0  0  0  0  0  0  0  0  0  0  0  0
    0.4654    3.5524    7.2065 H   0  0  0  0  0  0  0  0  0  0  0  0
    3.8029   -0.7520    6.0444 H   0  0  0  0  0  0  0  0  0  0  0  0
    2.3887   -0.1503    6.9291 H   0  0  0  0  0  0  0  0  0  0  0  0
    4.0024    0.0833    7.5750 H   0  0  0  0  0  0  0  0  0  0  0  0
    4.1938    2.6807    4.4546 H   0  0  0  0  0  0  0  0  0  0  0  0
  1  2  1  0
  1 36  1  0
  1 37  1  0
  1 38  1  0
  2  3  2  0
  2  4  1  0
  4  6  1  0
  4  5  1  0
  4 39  1  6
  6  5  1  1
  5 40  1  0
  5 41  1  0
  6 27  1  0
  6  7  1  0
  7  8  2  3
  7 25  1  0
  8  9  1  0
  8 10  1  0
  9 42  1  0
  9 43  1  0
  9 44  1  0
 10 11  2  3
 10 45  1  0
 11 12  1  0
 11 46  1  0
 12 13  1  0
 12 14  2  3
 13 47  1  0
 13 48  1  0
 13 49  1  0
 14 15  1  0
 14 50  1  0
 15 16  2  3
 15 51  1  0
 16 17  1  0
 16 18  1  0
 17 52  1  0
 17 53  1  0
 17 54  1  0
 18 23  1  0
 18 19  1  0
 18 55  1  1
 19 20  1  0
 19 56  1  0
 19 57  1  0
 20 21  2  0
 20 58  1  0
 21 22  1  0
 21 23  1  0
 22 59  1  0
 22 60  1  0
 22 61  1  0
 23 24  1  0
 23 62  1  6
 24 63  1  0
 24 64  1  0
 24 65  1  0
 25 34  1  0
 25 26  1  0
 26 27  1  0
 26 66  1  0
 26 67  1  0
 27 28  1  0
 27 68  1  6
 28 29  1  0
 28 30  1  0
 28 69  1  6
 29 70  1  0
 29 71  1  0
 29 72  1  0
 30 31  1  0
 31 32  1  0
 31 33  2  3
 32 73  1  0
 32 74  1  0
 32 75  1  0
 33 34  1  0
 33 76  1  0
 34 35  2  0
M  END
>  <i_m_ct_stereo_status>  (253) 
1

>  <s_m_source_file>  (253) 
/var/tmp/pbs.5076255.sched01/tmpk9_hntje/1089a46f3po.sdf

>  <i_m_source_file_index>  (253) 
18

>  <i_lp_mmshare_version>  (253) 
48012

>  <i_f3d_flags>  (253) 
0

>  <s_epik_input>  (253) 
W0NIM11DKD1PKVtDQEhdKFtDSDJdMSlbQ0BAXTEyW0NAQEhdM1tDSDJdTihDKD1PKS9bQ0hdPUMoW0NIM10pXE9bQ0BASF0zW0NIM10pQ1wyPUMoXFtDSDNdKS9bQ0hdPVtDSF0vQyhbQ0gzXSk9W0NIXS9bQ0hdPUMoXFtDSDNdKVtDQEBIXTRbQ0gyXVtDSF09QyhbQ0gzXSlbQ0BIXTRbQ0gzXQ==

>  <s_epik_cmdline>  (253) 
J2VwaWtfcHl0aG9uJywgJy1waHQnLCAnMi4wJywgJy1waCcsICc3LjAnLCAnLXRuJywgJzgnLCAnLW1hJywgJzIwMCcsICctaW1hZScsICc8aW5maWxlLm1hZT4nLCAnLW9tYWUnLCAnPG91dGZpbGUubWFlPic=

>  <r_lp_tautomer_probability>  (253) 
1

>  <r_epik_Ionization_Penalty>  (253) 
1.49479e-07

>  <r_epik_Ionization_Penalty_Charging>  (253) 
0

>  <r_epik_Ionization_Penalty_Neutral>  (253) 
1.49479e-07

>  <r_epik_State_Penalty>  (253) 
-0

>  <r_epik_Charging_Adjusted_Penalty>  (253) 
0

>  <i_epik_Tot_Q>  (253) 
0

>  <i_epik_Tot_abs_Q>  (253) 
0

>  <s_lp_Force_Field>  (253) 
OPLS3e

>  <r_lp_Energy>  (253) 
82.8624

>  <b_lp_Chiralities_Consistent>  (253) 
1

>  <s_lp_Variant>  (253) 
69:0-21

>  <s_i_glide_gridfile>  (253) 
pfpi4k_grid

>  <i_i_glide_lignum>  (253) 
18

>  <i_i_glide_rotatable_bonds>  (253) 
5

>  <r_i_docking_score>  (253) 
-1.80557

>  <r_i_glide_ligand_efficiency>  (253) 
-0.0515878

>  <r_i_glide_ligand_efficiency_sa>  (253) 
-0.168747

>  <r_i_glide_ligand_efficiency_ln>  (253) 
-0.396363

>  <r_i_glide_gscore>  (253) 
-1.80557

>  <r_i_glide_lipo>  (253) 
-0.377738

>  <r_i_glide_hbond>  (253) 
0

>  <r_i_glide_metal>  (253) 
-0

>  <r_i_glide_rewards>  (253) 
-0.16594

>  <r_i_glide_evdw>  (253) 
-31.6164

>  <r_i_glide_ecoul>  (253) 
-0.0734346

>  <r_i_glide_erotb>  (253) 
0.357898

>  <r_i_glide_esite>  (253) 
-0.0279577

>  <r_i_glide_emodel>  (253) 
-30.5626

>  <r_i_glide_energy>  (253) 
-31.6898

>  <r_i_glide_einternal>  (253) 
8.54687

>  <r_i_glide_intrahb_reward>  (253) 
-0

>  <i_i_glide_confnum>  (253) 
3

>  <i_i_glide_posenum>  (253) 
1

>  <r_i_glide_eff_state_penalty>  (253) 
0

>  <ligand_id>  (253) 
69

>  <original_smiles>  (253) 
CC(=O)C1CC12C(=C(C)C=CC(C)=CC=C(C)C1CC=C(C)C1C)N1CC2C(C)OC(C)=CC1=O

>  <smiles>  (253) 
[H]C(=C([H])C(=C1N2C(=O)C([H])=C(C([H])([H])[H])OC([H])(C([H])([H])[H])C([H])(C2([H])[H])C12C([H])([H])C2([H])C(=O)C([H])([H])[H])C([H])([H])[H])C(=C([H])C([H])=C(C([H])([H])[H])C1([H])C([H])([H])C([H])=C(C([H])([H])[H])C1([H])C([H])([H])[H])C([H])([H])[H]

$$$$
69:20:2
     RDKit          3D

 76 79  0  0  1  0  0  0  0  0999 V2000
    1.2345    3.4226    5.4635 C   0  0  0  0  0  0  0  0  0  0  0  0
    1.4785    2.0177    5.9929 C   0  0  0  0  0  0  0  0  0  0  0  0
    0.5978    1.4468    6.6451 O   0  0  0  0  0  0  0  0  0  0  0  0
    2.8083    1.3339    5.7366 C   0  0  2  0  0  0  0  0  0  0  0  0
    3.5770    1.6613    4.4786 C   0  0  0  0  0  0  0  0  0  0  0  0
    2.9202    0.2902    4.5970 C   0  0  1  0  0  0  0  0  0  0  0  0
    3.6989   -1.0141    4.8005 C   0  0  0  0  0  0  0  0  0  0  0  0
    4.8420   -1.3151    5.5057 C   0  0  0  0  0  0  0  0  0  0  0  0
    5.7097   -0.2687    6.2075 C   0  0  0  0  0  0  0  0  0  0  0  0
    5.3272   -2.6857    5.6952 C   0  0  0  0  0  0  0  0  0  0  0  0
    4.5449   -3.7890    5.8329 C   0  0  0  0  0  0  0  0  0  0  0  0
    5.0322   -5.1557    5.9200 C   0  0  0  0  0  0  0  0  0  0  0  0
    6.4406   -5.4165    6.4333 C   0  0  0  0  0  0  0  0  0  0  0  0
    4.2480   -6.2114    5.5858 C   0  0  0  0  0  0  0  0  0  0  0  0
    2.8955   -6.1684    5.0325 C   0  0  0  0  0  0  0  0  0  0  0  0
    2.0770   -7.2365    4.8245 C   0  0  0  0  0  0  0  0  0  0  0  0
    2.4405   -8.6878    5.1594 C   0  0  0  0  0  0  0  0  0  0  0  0
    0.6878   -7.0401    4.2026 C   0  0  2  0  0  0  0  0  0  0  0  0
   -0.4630   -7.4440    5.1696 C   0  0  0  0  0  0  0  0  0  0  0  0
   -1.2571   -8.4545    4.3890 C   0  0  0  0  0  0  0  0  0  0  0  0
   -0.7710   -8.6607    3.1724 C   0  0  0  0  0  0  0  0  0  0  0  0
   -1.3355   -9.6154    2.1568 C   0  0  0  0  0  0  0  0  0  0  0  0
    0.4515   -7.8299    2.8724 C   0  0  1  0  0  0  0  0  0  0  0  0
    0.2344   -6.9185    1.6595 C   0  0  0  0  0  0  0  0  0  0  0  0
    2.9570   -1.9874    4.0586 N   0  0  0  0  0  0  0  0  0  0  0  0
    1.5673   -1.5487    4.0321 C   0  0  0  0  0  0  0  0  0  0  0  0
    1.6456   -0.0442    3.7911 C   0  0  2  0  0  0  0  0  0  0  0  0
    1.6009    0.3693    2.2658 C   0  0  1  0  0  0  0  0  0  0  0  0
    0.9214    1.7287    2.0604 C   0  0  0  0  0  0  0  0  0  0  0  0
    2.8614    0.4509    1.5737 O   0  0  0  0  0  0  0  0  0  0  0  0
    3.6575   -0.6733    1.5769 C   0  0  0  0  0  0  0  0  0  0  0  0
    5.1093   -0.3185    1.8227 C   0  0  0  0  0  0  0  0  0  0  0  0
    3.1070   -1.8936    1.7432 C   0  0  0  0  0  0  0  0  0  0  0  0
    3.4531   -2.6166    2.9492 C   0  0  0  0  0  0  0  0  0  0  0  0
    4.0687   -3.6736    2.9563 O   0  0  0  0  0  0  0  0  0  0  0  0
    1.9535    4.1363    5.8745 H   0  0  0  0  0  0  0  0  0  0  0  0
    0.2268    3.7585    5.7153 H   0  0  0  0  0  0  0  0  0  0  0  0
    1.3141    3.4385    4.3778 H   0  0  0  0  0  0  0  0  0  0  0  0
    3.3790    1.1565    6.6570 H   0  0  0  0  0  0  0  0  0  0  0  0
    3.1502    2.3758    3.7712 H   0  0  0  0  0  0  0  0  0  0  0  0
    4.6615    1.7122    4.5362 H   0  0  0  0  0  0  0  0  0  0  0  0
    5.8984   -0.5690    7.2393 H   0  0  0  0  0  0  0  0  0  0  0  0
    5.3166    0.7413    6.2386 H   0  0  0  0  0  0  0  0  0  0  0  0
    6.6753   -0.2041    5.7067 H   0  0  0  0  0  0  0  0  0  0  0  0
    6.3980   -2.7937    5.7072 H   0  0  0  0  0  0  0  0  0  0  0  0
    3.4754   -3.6562    5.8803 H   0  0  0  0  0  0  0  0  0  0  0  0
    6.5704   -4.9272    7.3965 H   0  0  0  0  0  0  0  0  0  0  0  0
    7.1765   -5.0223    5.7281 H   0  0  0  0  0  0  0  0  0  0  0  0
    6.6370   -6.4833    6.5567 H   0  0  0  0  0  0  0  0  0  0  0  0
    4.6843   -7.1799    5.7276 H   0  0  0  0  0  0  0  0  0  0  0  0
    2.4988   -5.2074    4.7425 H   0  0  0  0  0  0  0  0  0  0  0  0
    1.6823   -9.1470    5.7935 H   0  0  0  0  0  0  0  0  0  0  0  0
    3.3805   -8.7889    5.6872 H   0  0  0  0  0  0  0  0  0  0  0  0
    2.5112   -9.2995    4.2601 H   0  0  0  0  0  0  0  0  0  0  0  0
    0.5487   -5.9788    3.9924 H   0  0  0  0  0  0  0  0  0  0  0  0
   -0.1320   -7.8872    6.1076 H   0  0  0  0  0  0  0  0  0  0  0  0
   -1.0995   -6.5956    5.4108 H   0  0  0  0  0  0  0  0  0  0  0  0
   -2.1200   -8.9628    4.7959 H   0  0  0  0  0  0  0  0  0  0  0  0
   -1.6641   -9.0620    1.2805 H   0  0  0  0  0  0  0  0  0  0  0  0
   -2.1833  -10.1455    2.5584 H   0  0  0  0  0  0  0  0  0  0  0  0
   -0.5880  -10.3574    1.8657 H   0  0  0  0  0  0  0  0  0  0  0  0
    1.2663   -8.5107    2.6358 H   0  0  0  0  0  0  0  0  0  0  0  0
    0.0900   -7.4939    0.7434 H   0  0  0  0  0  0  0  0  0  0  0  0
    1.0965   -6.2738    1.5011 H   0  0  0  0  0  0  0  0  0  0  0  0
   -0.6445   -6.2930    1.7894 H   0  0  0  0  0  0  0  0  0  0  0  0
    0.9158   -2.0936    3.3483 H   0  0  0  0  0  0  0  0  0  0  0  0
    1.1653   -1.7241    5.0301 H   0  0  0  0  0  0  0  0  0  0  0  0
    0.7206    0.3346    4.2194 H   0  0  0  0  0  0  0  0  0  0  0  0
    0.9441   -0.3235    1.7381 H   0  0  0  0  0  0  0  0  0  0  0  0
   -0.0301    1.7900    2.5976 H   0  0  0  0  0  0  0  0  0  0  0  0
    0.6948    1.8522    0.9980 H   0  0  0  0  0  0  0  0  0  0  0  0
    1.5570    2.5632    2.3620 H   0  0  0  0  0  0  0  0  0  0  0  0
    5.7143   -1.1473    2.1945 H   0  0  0  0  0  0  0  0  0  0  0  0
    5.2048    0.5043    2.5258 H   0  0  0  0  0  0  0  0  0  0  0  0
    5.5483   -0.0073    0.8774 H   0  0  0  0  0  0  0  0  0  0  0  0
    2.0686   -2.0222    1.4766 H   0  0  0  0  0  0  0  0  0  0  0  0
  1  2  1  0
  1 36  1  0
  1 37  1  0
  1 38  1  0
  2  3  2  0
  2  4  1  0
  4  6  1  0
  4  5  1  0
  4 39  1  1
  6  5  1  6
  5 40  1  0
  5 41  1  0
  6 27  1  0
  6  7  1  0
  7  8  2  3
  7 25  1  0
  8  9  1  0
  8 10  1  0
  9 42  1  0
  9 43  1  0
  9 44  1  0
 10 11  2  3
 10 45  1  0
 11 12  1  0
 11 46  1  0
 12 13  1  0
 12 14  2  3
 13 47  1  0
 13 48  1  0
 13 49  1  0
 14 15  1  0
 14 50  1  0
 15 16  2  3
 15 51  1  0
 16 17  1  0
 16 18  1  0
 17 52  1  0
 17 53  1  0
 17 54  1  0
 18 23  1  0
 18 19  1  0
 18 55  1  6
 19 20  1  0
 19 56  1  0
 19 57  1  0
 20 21  2  0
 20 58  1  0
 21 22  1  0
 21 23  1  0
 22 59  1  0
 22 60  1  0
 22 61  1  0
 23 24  1  0
 23 62  1  6
 24 63  1  0
 24 64  1  0
 24 65  1  0
 25 34  1  0
 25 26  1  0
 26 27  1  0
 26 66  1  0
 26 67  1  0
 27 28  1  0
 27 68  1  1
 28 29  1  0
 28 30  1  0
 28 69  1  6
 29 70  1  0
 29 71  1  0
 29 72  1  0
 30 31  1  0
 31 32  1  0
 31 33  2  3
 32 73  1  0
 32 74  1  0
 32 75  1  0
 33 34  1  0
 33 76  1  0
 34 35  2  0
M  END
>  <i_m_ct_stereo_status>  (254) 
1

>  <s_m_source_file>  (254) 
/var/tmp/pbs.5076255.sched01/tmpk9_hntje/1089a46f3po.sdf

>  <i_m_source_file_index>  (254) 
18

>  <i_lp_mmshare_version>  (254) 
48012

>  <i_f3d_flags>  (254) 
0

>  <s_epik_input>  (254) 
W0NIM11DKD1PKVtDQEhdKFtDSDJdMSlbQ0BAXTEyW0NAQEhdM1tDSDJdTihDKD1PKS9bQ0hdPUMoW0NIM10pXE9bQ0BASF0zW0NIM10pQ1wyPUMoXFtDSDNdKS9bQ0hdPVtDSF0vQyhbQ0gzXSk9W0NIXS9bQ0hdPUMoXFtDSDNdKVtDQEBIXTRbQ0gyXVtDSF09QyhbQ0gzXSlbQ0BIXTRbQ0gzXQ==

>  <s_epik_cmdline>  (254) 
J2VwaWtfcHl0aG9uJywgJy1waHQnLCAnMi4wJywgJy1waCcsICc3LjAnLCAnLXRuJywgJzgnLCAnLW1hJywgJzIwMCcsICctaW1hZScsICc8aW5maWxlLm1hZT4nLCAnLW9tYWUnLCAnPG91dGZpbGUubWFlPic=

>  <r_lp_tautomer_probability>  (254) 
1

>  <r_epik_Ionization_Penalty>  (254) 
1.49479e-07

>  <r_epik_Ionization_Penalty_Charging>  (254) 
0

>  <r_epik_Ionization_Penalty_Neutral>  (254) 
1.49479e-07

>  <r_epik_State_Penalty>  (254) 
-0

>  <r_epik_Charging_Adjusted_Penalty>  (254) 
0

>  <i_epik_Tot_Q>  (254) 
0

>  <i_epik_Tot_abs_Q>  (254) 
0

>  <s_lp_Force_Field>  (254) 
OPLS3e

>  <r_lp_Energy>  (254) 
82.8624

>  <b_lp_Chiralities_Consistent>  (254) 
1

>  <s_lp_Variant>  (254) 
69:0-21

>  <s_i_glide_gridfile>  (254) 
pfpi4k_grid

>  <i_i_glide_lignum>  (254) 
18

>  <i_i_glide_rotatable_bonds>  (254) 
5

>  <r_i_docking_score>  (254) 
-1.67404

>  <r_i_glide_ligand_efficiency>  (254) 
-0.0478296

>  <r_i_glide_ligand_efficiency_sa>  (254) 
-0.156454

>  <r_i_glide_ligand_efficiency_ln>  (254) 
-0.367488

>  <r_i_glide_gscore>  (254) 
-1.67404

>  <r_i_glide_lipo>  (254) 
-0.408011

>  <r_i_glide_hbond>  (254) 
0

>  <r_i_glide_metal>  (254) 
-0

>  <r_i_glide_rewards>  (254) 
-0.166085

>  <r_i_glide_evdw>  (254) 
-23.9768

>  <r_i_glide_ecoul>  (254) 
-1.72665

>  <r_i_glide_erotb>  (254) 
0.357898

>  <r_i_glide_esite>  (254) 
0

>  <r_i_glide_emodel>  (254) 
-25.9183

>  <r_i_glide_energy>  (254) 
-25.7035

>  <r_i_glide_einternal>  (254) 
5.19095

>  <r_i_glide_intrahb_reward>  (254) 
-0

>  <i_i_glide_confnum>  (254) 
2

>  <i_i_glide_posenum>  (254) 
15

>  <r_i_glide_eff_state_penalty>  (254) 
0

>  <ligand_id>  (254) 
69

>  <original_smiles>  (254) 
CC(=O)C1CC12C(=C(C)C=CC(C)=CC=C(C)C1CC=C(C)C1C)N1CC2C(C)OC(C)=CC1=O

>  <smiles>  (254) 
[H]C(=C([H])C(=C1N2C(=O)C([H])=C(C([H])([H])[H])OC([H])(C([H])([H])[H])C([H])(C2([H])[H])C12C([H])([H])C2([H])C(=O)C([H])([H])[H])C([H])([H])[H])C(=C([H])C([H])=C(C([H])([H])[H])C1([H])C([H])([H])C([H])=C(C([H])([H])[H])C1([H])C([H])([H])[H])C([H])([H])[H]

$$$$
69:21:0
     RDKit          3D

 76 79  0  0  1  0  0  0  0  0999 V2000
    3.5386    5.4540    4.0800 C   0  0  0  0  0  0  0  0  0  0  0  0
    3.5327    4.1355    4.8613 C   0  0  0  0  0  0  0  0  0  0  0  0
    4.2554    3.9961    5.8574 O   0  0  0  0  0  0  0  0  0  0  0  0
    2.6438    2.9914    4.4020 C   0  0  2  0  0  0  0  0  0  0  0  0
    1.4636    3.3002    3.5030 C   0  0  0  0  0  0  0  0  0  0  0  0
    1.2016    2.9073    4.9517 C   0  0  1  0  0  0  0  0  0  0  0  0
    0.5885    1.5610    5.3729 C   0  0  0  0  0  0  0  0  0  0  0  0
    0.7217    0.2805    4.8859 C   0  0  0  0  0  0  0  0  0  0  0  0
    0.1053   -0.9000    5.6346 C   0  0  0  0  0  0  0  0  0  0  0  0
    1.5122   -0.0178    3.6794 C   0  0  0  0  0  0  0  0  0  0  0  0
    1.7188   -1.2550    3.1764 C   0  0  0  0  0  0  0  0  0  0  0  0
    2.4984   -1.5570    1.9660 C   0  0  0  0  0  0  0  0  0  0  0  0
    3.0656   -0.4136    1.1497 C   0  0  0  0  0  0  0  0  0  0  0  0
    2.7325   -2.8209    1.5420 C   0  0  0  0  0  0  0  0  0  0  0  0
    2.2853   -4.0515    2.2062 C   0  0  0  0  0  0  0  0  0  0  0  0
    2.5975   -5.3212    1.8538 C   0  0  0  0  0  0  0  0  0  0  0  0
    3.5495   -5.6699    0.6992 C   0  0  0  0  0  0  0  0  0  0  0  0
    2.0575   -6.5526    2.6146 C   0  0  2  0  0  0  0  0  0  0  0  0
    1.4757   -7.6550    1.6771 C   0  0  0  0  0  0  0  0  0  0  0  0
    0.1254   -7.9702    2.2376 C   0  0  0  0  0  0  0  0  0  0  0  0
   -0.1505   -7.2627    3.3265 C   0  0  0  0  0  0  0  0  0  0  0  0
   -1.4589   -7.2753    4.0793 C   0  0  0  0  0  0  0  0  0  0  0  0
    0.9645   -6.3285    3.7328 C   0  0  1  0  0  0  0  0  0  0  0  0
    1.4746   -6.6608    5.1503 C   0  0  0  0  0  0  0  0  0  0  0  0
   -0.2230    1.8732    6.4908 N   0  0  0  0  0  0  0  0  0  0  0  0
    0.3159    3.0733    7.1353 C   0  0  0  0  0  0  0  0  0  0  0  0
    0.7340    3.9727    5.9710 C   0  0  2  0  0  0  0  0  0  0  0  0
   -0.3730    5.0183    5.5253 C   0  0  1  0  0  0  0  0  0  0  0  0
    0.2079    6.3338    4.9696 C   0  0  0  0  0  0  0  0  0  0  0  0
   -1.3207    4.5806    4.5273 O   0  0  0  0  0  0  0  0  0  0  0  0
   -1.9831    3.4108    4.7563 C   0  0  0  0  0  0  0  0  0  0  0  0
   -2.0552    2.5708    3.4948 C   0  0  0  0  0  0  0  0  0  0  0  0
   -2.2166    2.9895    6.0249 C   0  0  0  0  0  0  0  0  0  0  0  0
   -1.5840    1.7424    6.4417 C   0  0  0  0  0  0  0  0  0  0  0  0
   -2.1841    0.7259    6.7480 O   0  0  0  0  0  0  0  0  0  0  0  0
    3.8084    5.3067    3.0226 H   0  0  0  0  0  0  0  0  0  0  0  0
    4.2399    6.1707    4.5190 H   0  0  0  0  0  0  0  0  0  0  0  0
    2.5468    5.8860    4.1314 H   0  0  0  0  0  0  0  0  0  0  0  0
    3.1711    2.0526    4.2243 H   0  0  0  0  0  0  0  0  0  0  0  0
    1.2677    4.3333    3.2201 H   0  0  0  0  0  0  0  0  0  0  0  0
    1.2061    2.5901    2.7172 H   0  0  0  0  0  0  0  0  0  0  0  0
    0.8093   -1.7268    5.7226 H   0  0  0  0  0  0  0  0  0  0  0  0
   -0.7903   -1.2475    5.1206 H   0  0  0  0  0  0  0  0  0  0  0  0
   -0.1526   -0.6755    6.6662 H   0  0  0  0  0  0  0  0  0  0  0  0
    1.9642    0.7806    3.1356 H   0  0  0  0  0  0  0  0  0  0  0  0
    1.2659   -2.0664    3.7057 H   0  0  0  0  0  0  0  0  0  0  0  0
    2.2544    0.2454    0.8310 H   0  0  0  0  0  0  0  0  0  0  0  0
    3.5694   -0.7772    0.2536 H   0  0  0  0  0  0  0  0  0  0  0  0
    3.7929    0.1444    1.7429 H   0  0  0  0  0  0  0  0  0  0  0  0
    3.2983   -2.9052    0.6175 H   0  0  0  0  0  0  0  0  0  0  0  0
    1.6486   -3.9410    3.0647 H   0  0  0  0  0  0  0  0  0  0  0  0
    3.1319   -6.4228    0.0346 H   0  0  0  0  0  0  0  0  0  0  0  0
    4.4848   -6.0754    1.0947 H   0  0  0  0  0  0  0  0  0  0  0  0
    3.7910   -4.8267    0.0541 H   0  0  0  0  0  0  0  0  0  0  0  0
    2.9438   -6.9801    3.0880 H   0  0  0  0  0  0  0  0  0  0  0  0
    1.3137   -7.3314    0.6523 H   0  0  0  0  0  0  0  0  0  0  0  0
    2.0965   -8.5524    1.6645 H   0  0  0  0  0  0  0  0  0  0  0  0
   -0.5580   -8.6493    1.7386 H   0  0  0  0  0  0  0  0  0  0  0  0
   -1.2833   -7.5953    5.1036 H   0  0  0  0  0  0  0  0  0  0  0  0
   -2.1649   -7.9653    3.6144 H   0  0  0  0  0  0  0  0  0  0  0  0
   -1.9042   -6.2807    4.0976 H   0  0  0  0  0  0  0  0  0  0  0  0
    0.5032   -5.3387    3.7433 H   0  0  0  0  0  0  0  0  0  0  0  0
    0.7001   -6.5028    5.9007 H   0  0  0  0  0  0  0  0  0  0  0  0
    2.3148   -6.0278    5.4247 H   0  0  0  0  0  0  0  0  0  0  0  0
    1.8038   -7.7008    5.2360 H   0  0  0  0  0  0  0  0  0  0  0  0
   -0.3379    3.5484    7.8693 H   0  0  0  0  0  0  0  0  0  0  0  0
    1.1972    2.7494    7.6921 H   0  0  0  0  0  0  0  0  0  0  0  0
    1.5517    4.5536    6.3968 H   0  0  0  0  0  0  0  0  0  0  0  0
   -0.9175    5.3240    6.4212 H   0  0  0  0  0  0  0  0  0  0  0  0
    1.0072    6.7101    5.6063 H   0  0  0  0  0  0  0  0  0  0  0  0
   -0.5640    7.1110    4.9446 H   0  0  0  0  0  0  0  0  0  0  0  0
    0.5838    6.2187    3.9519 H   0  0  0  0  0  0  0  0  0  0  0  0
   -2.2741    1.5281    3.7009 H   0  0  0  0  0  0  0  0  0  0  0  0
   -1.1384    2.6273    2.9105 H   0  0  0  0  0  0  0  0  0  0  0  0
   -2.8539    2.9517    2.8582 H   0  0  0  0  0  0  0  0  0  0  0  0
   -2.2046    3.7346    6.7953 H   0  0  0  0  0  0  0  0  0  0  0  0
  1  2  1  0
  1 36  1  0
  1 37  1  0
  1 38  1  0
  2  3  2  0
  2  4  1  0
  4  6  1  0
  4  5  1  0
  4 39  1  6
  6  5  1  6
  5 40  1  0
  5 41  1  0
  6 27  1  0
  6  7  1  0
  7  8  2  3
  7 25  1  0
  8  9  1  0
  8 10  1  0
  9 42  1  0
  9 43  1  0
  9 44  1  0
 10 11  2  3
 10 45  1  0
 11 12  1  0
 11 46  1  0
 12 13  1  0
 12 14  2  3
 13 47  1  0
 13 48  1  0
 13 49  1  0
 14 15  1  0
 14 50  1  0
 15 16  2  3
 15 51  1  0
 16 17  1  0
 16 18  1  0
 17 52  1  0
 17 53  1  0
 17 54  1  0
 18 23  1  0
 18 19  1  0
 18 55  1  1
 19 20  1  0
 19 56  1  0
 19 57  1  0
 20 21  2  0
 20 58  1  0
 21 22  1  0
 21 23  1  0
 22 59  1  0
 22 60  1  0
 22 61  1  0
 23 24  1  0
 23 62  1  1
 24 63  1  0
 24 64  1  0
 24 65  1  0
 25 34  1  0
 25 26  1  0
 26 27  1  0
 26 66  1  0
 26 67  1  0
 27 28  1  0
 27 68  1  1
 28 29  1  0
 28 30  1  0
 28 69  1  1
 29 70  1  0
 29 71  1  0
 29 72  1  0
 30 31  1  0
 31 32  1  0
 31 33  2  3
 32 73  1  0
 32 74  1  0
 32 75  1  0
 33 34  1  0
 33 76  1  0
 34 35  2  0
M  END
>  <i_m_ct_stereo_status>  (255) 
1

>  <s_m_source_file>  (255) 
/var/tmp/pbs.5076255.sched01/tmpk9_hntje/1089a46f3po.sdf

>  <i_m_source_file_index>  (255) 
19

>  <i_lp_mmshare_version>  (255) 
48012

>  <i_f3d_flags>  (255) 
0

>  <s_epik_input>  (255) 
W0NIM11DKD1PKVtDQEhdKFtDSDJdMSlbQ0BAXTEyW0NAQEhdM1tDSDJdTihDKD1PKS9bQ0hdPUMoW0NIM10pXE9bQ0BASF0zW0NIM10pQ1wyPUMoXFtDSDNdKS9bQ0hdPVtDSF0vQyhbQ0gzXSk9W0NIXS9bQ0hdPUMoXFtDSDNdKVtDQEBIXTRbQ0gyXVtDSF09QyhbQ0gzXSlbQ0BIXTRbQ0gzXQ==

>  <s_epik_cmdline>  (255) 
J2VwaWtfcHl0aG9uJywgJy1waHQnLCAnMi4wJywgJy1waCcsICc3LjAnLCAnLXRuJywgJzgnLCAnLW1hJywgJzIwMCcsICctaW1hZScsICc8aW5maWxlLm1hZT4nLCAnLW9tYWUnLCAnPG91dGZpbGUubWFlPic=

>  <r_lp_tautomer_probability>  (255) 
1

>  <r_epik_Ionization_Penalty>  (255) 
1.49479e-07

>  <r_epik_Ionization_Penalty_Charging>  (255) 
0

>  <r_epik_Ionization_Penalty_Neutral>  (255) 
1.49479e-07

>  <r_epik_State_Penalty>  (255) 
-0

>  <r_epik_Charging_Adjusted_Penalty>  (255) 
0

>  <i_epik_Tot_Q>  (255) 
0

>  <i_epik_Tot_abs_Q>  (255) 
0

>  <s_lp_Force_Field>  (255) 
OPLS3e

>  <r_lp_Energy>  (255) 
81.3206

>  <b_lp_Chiralities_Consistent>  (255) 
1

>  <s_lp_Variant>  (255) 
69:0-22

>  <s_i_glide_gridfile>  (255) 
pfpi4k_grid

>  <i_i_glide_lignum>  (255) 
19

>  <i_i_glide_rotatable_bonds>  (255) 
5

>  <r_i_docking_score>  (255) 
-2.45105

>  <r_i_glide_ligand_efficiency>  (255) 
-0.0700299

>  <r_i_glide_ligand_efficiency_sa>  (255) 
-0.229073

>  <r_i_glide_ligand_efficiency_ln>  (255) 
-0.538059

>  <r_i_glide_gscore>  (255) 
-2.45105

>  <r_i_glide_lipo>  (255) 
-0.0770053

>  <r_i_glide_hbond>  (255) 
-0.223072

>  <r_i_glide_metal>  (255) 
-0

>  <r_i_glide_rewards>  (255) 
-0.16594

>  <r_i_glide_evdw>  (255) 
-29.2733

>  <r_i_glide_ecoul>  (255) 
-5.66934

>  <r_i_glide_erotb>  (255) 
0.357898

>  <r_i_glide_esite>  (255) 
-0.028861

>  <r_i_glide_emodel>  (255) 
-35.8493

>  <r_i_glide_energy>  (255) 
-34.9427

>  <r_i_glide_einternal>  (255) 
7.96193

>  <r_i_glide_intrahb_reward>  (255) 
-0

>  <i_i_glide_confnum>  (255) 
5

>  <i_i_glide_posenum>  (255) 
26

>  <r_i_glide_eff_state_penalty>  (255) 
0

>  <ligand_id>  (255) 
69

>  <original_smiles>  (255) 
CC(=O)C1CC12C(=C(C)C=CC(C)=CC=C(C)C1CC=C(C)C1C)N1CC2C(C)OC(C)=CC1=O

>  <smiles>  (255) 
[H]C(=C([H])C(=C1N2C(=O)C([H])=C(C([H])([H])[H])OC([H])(C([H])([H])[H])C([H])(C2([H])[H])C12C([H])([H])C2([H])C(=O)C([H])([H])[H])C([H])([H])[H])C(=C([H])C([H])=C(C([H])([H])[H])C1([H])C([H])([H])C([H])=C(C([H])([H])[H])C1([H])C([H])([H])[H])C([H])([H])[H]

$$$$
69:21:1
     RDKit          3D

 76 79  0  0  1  0  0  0  0  0999 V2000
    4.7315    3.5320    6.3103 C   0  0  0  0  0  0  0  0  0  0  0  0
    3.7551    3.9584    5.2241 C   0  0  0  0  0  0  0  0  0  0  0  0
    3.6727    5.1455    4.9122 O   0  0  0  0  0  0  0  0  0  0  0  0
    2.8701    2.8857    4.6206 C   0  0  2  0  0  0  0  0  0  0  0  0
    1.7904    3.3007    3.6476 C   0  0  0  0  0  0  0  0  0  0  0  0
    1.3877    2.8139    5.0348 C   0  0  1  0  0  0  0  0  0  0  0  0
    0.7167    1.4556    5.3070 C   0  0  0  0  0  0  0  0  0  0  0  0
    0.8629    0.2104    4.7498 C   0  0  0  0  0  0  0  0  0  0  0  0
    0.1543   -1.0061    5.3592 C   0  0  0  0  0  0  0  0  0  0  0  0
    1.7326   -0.0416    3.5919 C   0  0  0  0  0  0  0  0  0  0  0  0
    1.9480   -1.2482    3.0238 C   0  0  0  0  0  0  0  0  0  0  0  0
    2.8084   -1.4905    1.8616 C   0  0  0  0  0  0  0  0  0  0  0  0
    3.5085   -0.3197    1.1979 C   0  0  0  0  0  0  0  0  0  0  0  0
    3.0109   -2.7301    1.3567 C   0  0  0  0  0  0  0  0  0  0  0  0
    2.4371   -3.9774    1.8512 C   0  0  0  0  0  0  0  0  0  0  0  0
    2.7904   -5.2310    1.4846 C   0  0  0  0  0  0  0  0  0  0  0  0
    3.8575   -5.5540    0.4447 C   0  0  0  0  0  0  0  0  0  0  0  0
    2.1508   -6.4829    2.0993 C   0  0  2  0  0  0  0  0  0  0  0  0
    0.9398   -6.9658    1.2638 C   0  0  0  0  0  0  0  0  0  0  0  0
   -0.1824   -7.0682    2.2597 C   0  0  0  0  0  0  0  0  0  0  0  0
    0.1936   -6.7472    3.4954 C   0  0  0  0  0  0  0  0  0  0  0  0
   -0.6926   -6.7382    4.7211 C   0  0  0  0  0  0  0  0  0  0  0  0
    1.6577   -6.3775    3.5842 C   0  0  1  0  0  0  0  0  0  0  0  0
    2.4245   -7.3140    4.5306 C   0  0  0  0  0  0  0  0  0  0  0  0
   -0.1780    1.7118    6.3780 N   0  0  0  0  0  0  0  0  0  0  0  0
    0.3360    2.8457    7.1478 C   0  0  0  0  0  0  0  0  0  0  0  0
    0.8723    3.8105    6.0901 C   0  0  2  0  0  0  0  0  0  0  0  0
   -0.1557    4.9178    5.6237 C   0  0  1  0  0  0  0  0  0  0  0  0
    0.5422    6.2356    5.2291 C   0  0  0  0  0  0  0  0  0  0  0  0
   -1.0417    4.5896    4.5319 O   0  0  0  0  0  0  0  0  0  0  0  0
   -1.7521    3.4176    4.6236 C   0  0  0  0  0  0  0  0  0  0  0  0
   -1.7487    2.6715    3.3019 C   0  0  0  0  0  0  0  0  0  0  0  0
   -2.0904    2.9108    5.8318 C   0  0  0  0  0  0  0  0  0  0  0  0
   -1.5288    1.6241    6.2170 C   0  0  0  0  0  0  0  0  0  0  0  0
   -2.1793    0.6086    6.4512 O   0  0  0  0  0  0  0  0  0  0  0  0
    4.1873    3.0368    7.1136 H   0  0  0  0  0  0  0  0  0  0  0  0
    5.2400    4.4013    6.7316 H   0  0  0  0  0  0  0  0  0  0  0  0
    5.4784    2.8430    5.9135 H   0  0  0  0  0  0  0  0  0  0  0  0
    3.3861    1.9445    4.4241 H   0  0  0  0  0  0  0  0  0  0  0  0
    1.6779    4.3551    3.4214 H   0  0  0  0  0  0  0  0  0  0  0  0
    1.5701    2.6710    2.7918 H   0  0  0  0  0  0  0  0  0  0  0  0
    0.8283   -1.8591    5.4413 H   0  0  0  0  0  0  0  0  0  0  0  0
   -0.7051   -1.2946    4.7515 H   0  0  0  0  0  0  0  0  0  0  0  0
   -0.1813   -0.8490    6.3831 H   0  0  0  0  0  0  0  0  0  0  0  0
    2.2403    0.7826    3.1396 H   0  0  0  0  0  0  0  0  0  0  0  0
    1.4527   -2.0961    3.4542 H   0  0  0  0  0  0  0  0  0  0  0  0
    2.7728    0.4235    0.8825 H   0  0  0  0  0  0  0  0  0  0  0  0
    4.0747   -0.6240    0.3159 H   0  0  0  0  0  0  0  0  0  0  0  0
    4.2066    0.1480    1.8938 H   0  0  0  0  0  0  0  0  0  0  0  0
    3.6551   -2.7837    0.4925 H   0  0  0  0  0  0  0  0  0  0  0  0
    1.6398   -3.9021    2.5657 H   0  0  0  0  0  0  0  0  0  0  0  0
    3.4542   -6.2558   -0.2830 H   0  0  0  0  0  0  0  0  0  0  0  0
    4.7265   -6.0180    0.9121 H   0  0  0  0  0  0  0  0  0  0  0  0
    4.1995   -4.6956   -0.1246 H   0  0  0  0  0  0  0  0  0  0  0  0
    2.9078   -7.2687    2.0613 H   0  0  0  0  0  0  0  0  0  0  0  0
    0.6770   -6.2815    0.4570 H   0  0  0  0  0  0  0  0  0  0  0  0
    1.1227   -7.9431    0.8207 H   0  0  0  0  0  0  0  0  0  0  0  0
   -1.1759   -7.3908    1.9775 H   0  0  0  0  0  0  0  0  0  0  0  0
   -0.3224   -7.4389    5.4645 H   0  0  0  0  0  0  0  0  0  0  0  0
   -1.7078   -7.0330    4.4634 H   0  0  0  0  0  0  0  0  0  0  0  0
   -0.7216   -5.7472    5.1672 H   0  0  0  0  0  0  0  0  0  0  0  0
    1.7351   -5.3794    4.0093 H   0  0  0  0  0  0  0  0  0  0  0  0
    2.0511   -7.2387    5.5523 H   0  0  0  0  0  0  0  0  0  0  0  0
    3.4838   -7.0587    4.5597 H   0  0  0  0  0  0  0  0  0  0  0  0
    2.3382   -8.3553    4.2209 H   0  0  0  0  0  0  0  0  0  0  0  0
   -0.3603    3.2969    7.8572 H   0  0  0  0  0  0  0  0  0  0  0  0
    1.1616    2.4647    7.7501 H   0  0  0  0  0  0  0  0  0  0  0  0
    1.6649    4.3335    6.6193 H   0  0  0  0  0  0  0  0  0  0  0  0
   -0.7631    5.1954    6.4833 H   0  0  0  0  0  0  0  0  0  0  0  0
    1.2348    6.5694    6.0056 H   0  0  0  0  0  0  0  0  0  0  0  0
   -0.1903    7.0278    5.0824 H   0  0  0  0  0  0  0  0  0  0  0  0
    1.1039    6.1705    4.2986 H   0  0  0  0  0  0  0  0  0  0  0  0
   -2.0222    1.6240    3.4138 H   0  0  0  0  0  0  0  0  0  0  0  0
   -0.7856    2.7340    2.8041 H   0  0  0  0  0  0  0  0  0  0  0  0
   -2.4783    3.1241    2.6333 H   0  0  0  0  0  0  0  0  0  0  0  0
   -2.1348    3.6005    6.6616 H   0  0  0  0  0  0  0  0  0  0  0  0
  1  2  1  0
  1 36  1  0
  1 37  1  0
  1 38  1  0
  2  3  2  0
  2  4  1  0
  4  6  1  0
  4  5  1  0
  4 39  1  6
  6  5  1  6
  5 40  1  0
  5 41  1  0
  6 27  1  0
  6  7  1  0
  7  8  2  3
  7 25  1  0
  8  9  1  0
  8 10  1  0
  9 42  1  0
  9 43  1  0
  9 44  1  0
 10 11  2  3
 10 45  1  0
 11 12  1  0
 11 46  1  0
 12 13  1  0
 12 14  2  3
 13 47  1  0
 13 48  1  0
 13 49  1  0
 14 15  1  0
 14 50  1  0
 15 16  2  3
 15 51  1  0
 16 17  1  0
 16 18  1  0
 17 52  1  0
 17 53  1  0
 17 54  1  0
 18 23  1  0
 18 19  1  0
 18 55  1  1
 19 20  1  0
 19 56  1  0
 19 57  1  0
 20 21  2  0
 20 58  1  0
 21 22  1  0
 21 23  1  0
 22 59  1  0
 22 60  1  0
 22 61  1  0
 23 24  1  0
 23 62  1  1
 24 63  1  0
 24 64  1  0
 24 65  1  0
 25 34  1  0
 25 26  1  0
 26 27  1  0
 26 66  1  0
 26 67  1  0
 27 28  1  0
 27 68  1  1
 28 29  1  0
 28 30  1  0
 28 69  1  1
 29 70  1  0
 29 71  1  0
 29 72  1  0
 30 31  1  0
 31 32  1  0
 31 33  2  3
 32 73  1  0
 32 74  1  0
 32 75  1  0
 33 34  1  0
 33 76  1  0
 34 35  2  0
M  END
>  <i_m_ct_stereo_status>  (256) 
1

>  <s_m_source_file>  (256) 
/var/tmp/pbs.5076255.sched01/tmpk9_hntje/1089a46f3po.sdf

>  <i_m_source_file_index>  (256) 
19

>  <i_lp_mmshare_version>  (256) 
48012

>  <i_f3d_flags>  (256) 
0

>  <s_epik_input>  (256) 
W0NIM11DKD1PKVtDQEhdKFtDSDJdMSlbQ0BAXTEyW0NAQEhdM1tDSDJdTihDKD1PKS9bQ0hdPUMoW0NIM10pXE9bQ0BASF0zW0NIM10pQ1wyPUMoXFtDSDNdKS9bQ0hdPVtDSF0vQyhbQ0gzXSk9W0NIXS9bQ0hdPUMoXFtDSDNdKVtDQEBIXTRbQ0gyXVtDSF09QyhbQ0gzXSlbQ0BIXTRbQ0gzXQ==

>  <s_epik_cmdline>  (256) 
J2VwaWtfcHl0aG9uJywgJy1waHQnLCAnMi4wJywgJy1waCcsICc3LjAnLCAnLXRuJywgJzgnLCAnLW1hJywgJzIwMCcsICctaW1hZScsICc8aW5maWxlLm1hZT4nLCAnLW9tYWUnLCAnPG91dGZpbGUubWFlPic=

>  <r_lp_tautomer_probability>  (256) 
1

>  <r_epik_Ionization_Penalty>  (256) 
1.49479e-07

>  <r_epik_Ionization_Penalty_Charging>  (256) 
0

>  <r_epik_Ionization_Penalty_Neutral>  (256) 
1.49479e-07

>  <r_epik_State_Penalty>  (256) 
-0

>  <r_epik_Charging_Adjusted_Penalty>  (256) 
0

>  <i_epik_Tot_Q>  (256) 
0

>  <i_epik_Tot_abs_Q>  (256) 
0

>  <s_lp_Force_Field>  (256) 
OPLS3e

>  <r_lp_Energy>  (256) 
81.3206

>  <b_lp_Chiralities_Consistent>  (256) 
1

>  <s_lp_Variant>  (256) 
69:0-22

>  <s_i_glide_gridfile>  (256) 
pfpi4k_grid

>  <i_i_glide_lignum>  (256) 
19

>  <i_i_glide_rotatable_bonds>  (256) 
5

>  <r_i_docking_score>  (256) 
-2.23906

>  <r_i_glide_ligand_efficiency>  (256) 
-0.0639732

>  <r_i_glide_ligand_efficiency_sa>  (256) 
-0.209261

>  <r_i_glide_ligand_efficiency_ln>  (256) 
-0.491524

>  <r_i_glide_gscore>  (256) 
-2.23906

>  <r_i_glide_lipo>  (256) 
-0.0810965

>  <r_i_glide_hbond>  (256) 
-0.186632

>  <r_i_glide_metal>  (256) 
-0

>  <r_i_glide_rewards>  (256) 
-0.16594

>  <r_i_glide_evdw>  (256) 
-31.5813

>  <r_i_glide_ecoul>  (256) 
-3.71069

>  <r_i_glide_erotb>  (256) 
0.357898

>  <r_i_glide_esite>  (256) 
-0.0276237

>  <r_i_glide_emodel>  (256) 
-39.2902

>  <r_i_glide_energy>  (256) 
-35.292

>  <r_i_glide_einternal>  (256) 
1.42387

>  <r_i_glide_intrahb_reward>  (256) 
-0

>  <i_i_glide_confnum>  (256) 
5

>  <i_i_glide_posenum>  (256) 
16

>  <r_i_glide_eff_state_penalty>  (256) 
0

>  <ligand_id>  (256) 
69

>  <original_smiles>  (256) 
CC(=O)C1CC12C(=C(C)C=CC(C)=CC=C(C)C1CC=C(C)C1C)N1CC2C(C)OC(C)=CC1=O

>  <smiles>  (256) 
[H]C(=C([H])C(=C1N2C(=O)C([H])=C(C([H])([H])[H])OC([H])(C([H])([H])[H])C([H])(C2([H])[H])C12C([H])([H])C2([H])C(=O)C([H])([H])[H])C([H])([H])[H])C(=C([H])C([H])=C(C([H])([H])[H])C1([H])C([H])([H])C([H])=C(C([H])([H])[H])C1([H])C([H])([H])[H])C([H])([H])[H]

$$$$
69:21:2
     RDKit          3D

 76 79  0  0  1  0  0  0  0  0999 V2000
   -1.4572    1.5117    2.7638 C   0  0  0  0  0  0  0  0  0  0  0  0
   -1.0119    1.2071    4.2006 C   0  0  0  0  0  0  0  0  0  0  0  0
   -1.3734    1.9170    5.1387 O   0  0  0  0  0  0  0  0  0  0  0  0
   -0.1810   -0.0286    4.4317 C   0  0  2  0  0  0  0  0  0  0  0  0
    0.9821    0.0606    5.4002 C   0  0  0  0  0  0  0  0  0  0  0  0
    1.2659   -0.0722    3.9120 C   0  0  1  0  0  0  0  0  0  0  0  0
    1.7920   -1.3428    3.2397 C   0  0  0  0  0  0  0  0  0  0  0  0
    1.6326   -2.6851    3.5036 C   0  0  0  0  0  0  0  0  0  0  0  0
    2.1870   -3.7396    2.5437 C   0  0  0  0  0  0  0  0  0  0  0  0
    0.8590   -3.1734    4.6508 C   0  0  0  0  0  0  0  0  0  0  0  0
    0.7860   -4.4708    5.0358 C   0  0  0  0  0  0  0  0  0  0  0  0
    0.0261   -4.9593    6.1913 C   0  0  0  0  0  0  0  0  0  0  0  0
   -0.7552   -3.9769    7.0494 C   0  0  0  0  0  0  0  0  0  0  0  0
   -0.0015   -6.2697    6.5353 C   0  0  0  0  0  0  0  0  0  0  0  0
    0.6617   -7.3722    5.8462 C   0  0  0  0  0  0  0  0  0  0  0  0
    0.6998   -8.6679    6.2334 C   0  0  0  0  0  0  0  0  0  0  0  0
    0.0751   -9.2016    7.5149 C   0  0  0  0  0  0  0  0  0  0  0  0
    1.3976   -9.7556    5.4081 C   0  0  2  0  0  0  0  0  0  0  0  0
    2.8853   -9.8995    5.8183 C   0  0  0  0  0  0  0  0  0  0  0  0
    3.6356   -9.7688    4.5169 C   0  0  0  0  0  0  0  0  0  0  0  0
    2.8408   -9.5935    3.4702 C   0  0  0  0  0  0  0  0  0  0  0  0
    3.2790   -9.4196    2.0290 C   0  0  0  0  0  0  0  0  0  0  0  0
    1.3788   -9.5853    3.8480 C   0  0  1  0  0  0  0  0  0  0  0  0
    0.6146  -10.7080    3.1485 C   0  0  0  0  0  0  0  0  0  0  0  0
    2.5895   -0.8816    2.1607 N   0  0  0  0  0  0  0  0  0  0  0  0
    2.0992    0.4511    1.7797 C   0  0  0  0  0  0  0  0  0  0  0  0
    1.7777    1.1493    3.1090 C   0  0  2  0  0  0  0  0  0  0  0  0
    2.9085    2.0488    3.7285 C   0  0  1  0  0  0  0  0  0  0  0  0
    2.3077    3.2496    4.4865 C   0  0  0  0  0  0  0  0  0  0  0  0
    3.8515    1.4091    4.6006 O   0  0  0  0  0  0  0  0  0  0  0  0
    4.4437    0.2640    4.1298 C   0  0  0  0  0  0  0  0  0  0  0  0
    4.5204   -0.7884    5.2158 C   0  0  0  0  0  0  0  0  0  0  0  0
    4.5887    0.0699    2.8034 C   0  0  0  0  0  0  0  0  0  0  0  0
    3.9383   -1.0668    2.1722 C   0  0  0  0  0  0  0  0  0  0  0  0
    4.5325   -2.0196    1.6650 O   0  0  0  0  0  0  0  0  0  0  0  0
   -0.6664    1.5763    2.0208 H   0  0  0  0  0  0  0  0  0  0  0  0
   -2.0361    2.4401    2.7280 H   0  0  0  0  0  0  0  0  0  0  0  0
   -2.0881    0.7004    2.4056 H   0  0  0  0  0  0  0  0  0  0  0  0
   -0.7693   -0.9359    4.5207 H   0  0  0  0  0  0  0  0  0  0  0  0
    1.1931    1.0177    5.8669 H   0  0  0  0  0  0  0  0  0  0  0  0
    1.2396   -0.7801    6.0400 H   0  0  0  0  0  0  0  0  0  0  0  0
    1.4445   -4.5203    2.3630 H   0  0  0  0  0  0  0  0  0  0  0  0
    3.0871   -4.2068    2.9460 H   0  0  0  0  0  0  0  0  0  0  0  0
    2.4188   -3.3545    1.5516 H   0  0  0  0  0  0  0  0  0  0  0  0
    0.3047   -2.4774    5.2391 H   0  0  0  0  0  0  0  0  0  0  0  0
    1.3389   -5.1839    4.4544 H   0  0  0  0  0  0  0  0  0  0  0  0
   -0.0861   -3.2152    7.4522 H   0  0  0  0  0  0  0  0  0  0  0  0
   -1.2396   -4.4657    7.8944 H   0  0  0  0  0  0  0  0  0  0  0  0
   -1.5383   -3.4967    6.4618 H   0  0  0  0  0  0  0  0  0  0  0  0
   -0.5822   -6.5089    7.4131 H   0  0  0  0  0  0  0  0  0  0  0  0
    1.1835   -7.1458    4.9362 H   0  0  0  0  0  0  0  0  0  0  0  0
    0.8063   -9.8023    8.0576 H   0  0  0  0  0  0  0  0  0  0  0  0
   -0.7675   -9.8508    7.2725 H   0  0  0  0  0  0  0  0  0  0  0  0
   -0.2715   -8.4312    8.1980 H   0  0  0  0  0  0  0  0  0  0  0  0
    0.8979  -10.6988    5.6434 H   0  0  0  0  0  0  0  0  0  0  0  0
    3.2087   -9.1214    6.5097 H   0  0  0  0  0  0  0  0  0  0  0  0
    3.0860  -10.8695    6.2762 H   0  0  0  0  0  0  0  0  0  0  0  0
    4.7162   -9.8157    4.4686 H   0  0  0  0  0  0  0  0  0  0  0  0
    2.8807  -10.2180    1.4064 H   0  0  0  0  0  0  0  0  0  0  0  0
    4.3643   -9.4592    1.9560 H   0  0  0  0  0  0  0  0  0  0  0  0
    2.9375   -8.4652    1.6329 H   0  0  0  0  0  0  0  0  0  0  0  0
    0.9338   -8.6522    3.5098 H   0  0  0  0  0  0  0  0  0  0  0  0
    0.6208  -10.5869    2.0676 H   0  0  0  0  0  0  0  0  0  0  0  0
   -0.4285  -10.6772    3.4608 H   0  0  0  0  0  0  0  0  0  0  0  0
    1.0257  -11.6897    3.3837 H   0  0  0  0  0  0  0  0  0  0  0  0
    2.7366    1.0312    1.1153 H   0  0  0  0  0  0  0  0  0  0  0  0
    1.1740    0.2902    1.2284 H   0  0  0  0  0  0  0  0  0  0  0  0
    1.0367    1.8973    2.8711 H   0  0  0  0  0  0  0  0  0  0  0  0
    3.4183    2.5081    2.8960 H   0  0  0  0  0  0  0  0  0  0  0  0
    1.5699    3.7917    3.8846 H   0  0  0  0  0  0  0  0  0  0  0  0
    3.1003    3.9522    4.7365 H   0  0  0  0  0  0  0  0  0  0  0  0
    1.8139    2.9805    5.4184 H   0  0  0  0  0  0  0  0  0  0  0  0
    4.7066   -1.7826    4.8087 H   0  0  0  0  0  0  0  0  0  0  0  0
    3.6065   -0.8012    5.8028 H   0  0  0  0  0  0  0  0  0  0  0  0
    5.3403   -0.5341    5.8868 H   0  0  0  0  0  0  0  0  0  0  0  0
    4.5385    0.9259    2.1633 H   0  0  0  0  0  0  0  0  0  0  0  0
  1  2  1  0
  1 36  1  0
  1 37  1  0
  1 38  1  0
  2  3  2  0
  2  4  1  0
  4  6  1  0
  4  5  1  0
  4 39  1  1
  6  5  1  1
  5 40  1  0
  5 41  1  0
  6 27  1  0
  6  7  1  0
  7  8  2  3
  7 25  1  0
  8  9  1  0
  8 10  1  0
  9 42  1  0
  9 43  1  0
  9 44  1  0
 10 11  2  3
 10 45  1  0
 11 12  1  0
 11 46  1  0
 12 13  1  0
 12 14  2  3
 13 47  1  0
 13 48  1  0
 13 49  1  0
 14 15  1  0
 14 50  1  0
 15 16  2  3
 15 51  1  0
 16 17  1  0
 16 18  1  0
 17 52  1  0
 17 53  1  0
 17 54  1  0
 18 23  1  0
 18 19  1  0
 18 55  1  6
 19 20  1  0
 19 56  1  0
 19 57  1  0
 20 21  2  0
 20 58  1  0
 21 22  1  0
 21 23  1  0
 22 59  1  0
 22 60  1  0
 22 61  1  0
 23 24  1  0
 23 62  1  1
 24 63  1  0
 24 64  1  0
 24 65  1  0
 25 34  1  0
 25 26  1  0
 26 27  1  0
 26 66  1  0
 26 67  1  0
 27 28  1  0
 27 68  1  6
 28 29  1  0
 28 30  1  0
 28 69  1  6
 29 70  1  0
 29 71  1  0
 29 72  1  0
 30 31  1  0
 31 32  1  0
 31 33  2  3
 32 73  1  0
 32 74  1  0
 32 75  1  0
 33 34  1  0
 33 76  1  0
 34 35  2  0
M  END
>  <i_m_ct_stereo_status>  (257) 
1

>  <s_m_source_file>  (257) 
/var/tmp/pbs.5076255.sched01/tmpk9_hntje/1089a46f3po.sdf

>  <i_m_source_file_index>  (257) 
19

>  <i_lp_mmshare_version>  (257) 
48012

>  <i_f3d_flags>  (257) 
0

>  <s_epik_input>  (257) 
W0NIM11DKD1PKVtDQEhdKFtDSDJdMSlbQ0BAXTEyW0NAQEhdM1tDSDJdTihDKD1PKS9bQ0hdPUMoW0NIM10pXE9bQ0BASF0zW0NIM10pQ1wyPUMoXFtDSDNdKS9bQ0hdPVtDSF0vQyhbQ0gzXSk9W0NIXS9bQ0hdPUMoXFtDSDNdKVtDQEBIXTRbQ0gyXVtDSF09QyhbQ0gzXSlbQ0BIXTRbQ0gzXQ==

>  <s_epik_cmdline>  (257) 
J2VwaWtfcHl0aG9uJywgJy1waHQnLCAnMi4wJywgJy1waCcsICc3LjAnLCAnLXRuJywgJzgnLCAnLW1hJywgJzIwMCcsICctaW1hZScsICc8aW5maWxlLm1hZT4nLCAnLW9tYWUnLCAnPG91dGZpbGUubWFlPic=

>  <r_lp_tautomer_probability>  (257) 
1

>  <r_epik_Ionization_Penalty>  (257) 
1.49479e-07

>  <r_epik_Ionization_Penalty_Charging>  (257) 
0

>  <r_epik_Ionization_Penalty_Neutral>  (257) 
1.49479e-07

>  <r_epik_State_Penalty>  (257) 
-0

>  <r_epik_Charging_Adjusted_Penalty>  (257) 
0

>  <i_epik_Tot_Q>  (257) 
0

>  <i_epik_Tot_abs_Q>  (257) 
0

>  <s_lp_Force_Field>  (257) 
OPLS3e

>  <r_lp_Energy>  (257) 
81.3206

>  <b_lp_Chiralities_Consistent>  (257) 
1

>  <s_lp_Variant>  (257) 
69:0-22

>  <s_i_glide_gridfile>  (257) 
pfpi4k_grid

>  <i_i_glide_lignum>  (257) 
19

>  <i_i_glide_rotatable_bonds>  (257) 
5

>  <r_i_docking_score>  (257) 
-1.77197

>  <r_i_glide_ligand_efficiency>  (257) 
-0.0506277

>  <r_i_glide_ligand_efficiency_sa>  (257) 
-0.165606

>  <r_i_glide_ligand_efficiency_ln>  (257) 
-0.388986

>  <r_i_glide_gscore>  (257) 
-1.77197

>  <r_i_glide_lipo>  (257) 
-0.206237

>  <r_i_glide_hbond>  (257) 
0

>  <r_i_glide_metal>  (257) 
-0

>  <r_i_glide_rewards>  (257) 
-0.177563

>  <r_i_glide_evdw>  (257) 
-28.2512

>  <r_i_glide_ecoul>  (257) 
-1.89015

>  <r_i_glide_erotb>  (257) 
0.357898

>  <r_i_glide_esite>  (257) 
-0.0499839

>  <r_i_glide_emodel>  (257) 
-30.3997

>  <r_i_glide_energy>  (257) 
-30.1413

>  <r_i_glide_einternal>  (257) 
4.17549

>  <r_i_glide_intrahb_reward>  (257) 
-0

>  <i_i_glide_confnum>  (257) 
2

>  <i_i_glide_posenum>  (257) 
2

>  <r_i_glide_eff_state_penalty>  (257) 
0

>  <ligand_id>  (257) 
69

>  <original_smiles>  (257) 
CC(=O)C1CC12C(=C(C)C=CC(C)=CC=C(C)C1CC=C(C)C1C)N1CC2C(C)OC(C)=CC1=O

>  <smiles>  (257) 
[H]C(=C([H])C(=C1N2C(=O)C([H])=C(C([H])([H])[H])OC([H])(C([H])([H])[H])C([H])(C2([H])[H])C12C([H])([H])C2([H])C(=O)C([H])([H])[H])C([H])([H])[H])C(=C([H])C([H])=C(C([H])([H])[H])C1([H])C([H])([H])C([H])=C(C([H])([H])[H])C1([H])C([H])([H])[H])C([H])([H])[H]

$$$$
69:22:0
     RDKit          3D

 76 79  0  0  1  0  0  0  0  0999 V2000
    2.0670   -2.6681    6.5404 C   0  0  0  0  0  0  0  0  0  0  0  0
    3.0462   -1.8273    5.7371 C   0  0  0  0  0  0  0  0  0  0  0  0
    3.0693   -0.6054    5.8893 O   0  0  0  0  0  0  0  0  0  0  0  0
    3.9649   -2.5666    4.7900 C   0  0  2  0  0  0  0  0  0  0  0  0
    5.0010   -1.7951    4.0082 C   0  0  0  0  0  0  0  0  0  0  0  0
    3.8153   -2.3813    3.2639 C   0  0  1  0  0  0  0  0  0  0  0  0
    3.9729   -3.5732    2.2804 C   0  0  0  0  0  0  0  0  0  0  0  0
    4.5682   -4.8000    2.4364 C   0  0  0  0  0  0  0  0  0  0  0  0
    5.3315   -5.1522    3.7268 C   0  0  0  0  0  0  0  0  0  0  0  0
    4.3831   -5.8498    1.3991 C   0  0  0  0  0  0  0  0  0  0  0  0
    4.8746   -7.1037    1.3008 C   0  0  0  0  0  0  0  0  0  0  0  0
    5.7327   -7.8412    2.2179 C   0  0  0  0  0  0  0  0  0  0  0  0
    7.2475   -7.6745    2.1353 C   0  0  0  0  0  0  0  0  0  0  0  0
    5.2210   -8.7109    3.1075 C   0  0  0  0  0  0  0  0  0  0  0  0
    3.8077   -9.0768    3.2562 C   0  0  0  0  0  0  0  0  0  0  0  0
    3.2875   -9.9279    4.1879 C   0  0  0  0  0  0  0  0  0  0  0  0
    4.1016  -10.6844    5.2334 C   0  0  0  0  0  0  0  0  0  0  0  0
    1.7845  -10.2117    4.2972 C   0  0  2  0  0  0  0  0  0  0  0  0
    1.2988  -11.2666    3.2770 C   0  0  0  0  0  0  0  0  0  0  0  0
    0.1796  -10.5738    2.5347 C   0  0  0  0  0  0  0  0  0  0  0  0
   -0.0604   -9.3513    2.9970 C   0  0  0  0  0  0  0  0  0  0  0  0
   -1.1147   -8.3947    2.4783 C   0  0  0  0  0  0  0  0  0  0  0  0
    0.8608   -8.9585    4.1187 C   0  0  1  0  0  0  0  0  0  0  0  0
    0.1052   -8.6046    5.4049 C   0  0  0  0  0  0  0  0  0  0  0  0
    3.1937   -3.1738    1.1616 N   0  0  0  0  0  0  0  0  0  0  0  0
    2.0885   -2.3763    1.7055 C   0  0  0  0  0  0  0  0  0  0  0  0
    2.7041   -1.4498    2.7396 C   0  0  2  0  0  0  0  0  0  0  0  0
    3.0806   -0.0216    2.1568 C   0  0  1  0  0  0  0  0  0  0  0  0
    2.9935    1.0781    3.2229 C   0  0  0  0  0  0  0  0  0  0  0  0
    4.3801    0.1353    1.5505 O   0  0  0  0  0  0  0  0  0  0  0  0
    4.7238   -0.7483    0.5596 C   0  0  0  0  0  0  0  0  0  0  0  0
    6.1963   -1.1081    0.6290 C   0  0  0  0  0  0  0  0  0  0  0  0
    3.7934   -1.3804   -0.1874 C   0  0  0  0  0  0  0  0  0  0  0  0
    3.7704   -2.8288   -0.0314 C   0  0  0  0  0  0  0  0  0  0  0  0
    4.2900   -3.6181   -0.8165 O   0  0  0  0  0  0  0  0  0  0  0  0
    1.4446   -3.2320    5.8473 H   0  0  0  0  0  0  0  0  0  0  0  0
    1.4252   -2.0102    7.1268 H   0  0  0  0  0  0  0  0  0  0  0  0
    2.5871   -3.3622    7.2100 H   0  0  0  0  0  0  0  0  0  0  0  0
    4.2725   -3.5348    5.1816 H   0  0  0  0  0  0  0  0  0  0  0  0
    5.0746   -0.7130    4.1396 H   0  0  0  0  0  0  0  0  0  0  0  0
    5.9439   -2.2785    3.7899 H   0  0  0  0  0  0  0  0  0  0  0  0
    6.1038   -5.8858    3.5611 H   0  0  0  0  0  0  0  0  0  0  0  0
    4.5895   -5.4835    4.4734 H   0  0  0  0  0  0  0  0  0  0  0  0
    5.8404   -4.2743    4.1332 H   0  0  0  0  0  0  0  0  0  0  0  0
    3.7414   -5.6458    0.5521 H   0  0  0  0  0  0  0  0  0  0  0  0
    4.5785   -7.6579    0.4151 H   0  0  0  0  0  0  0  0  0  0  0  0
    7.5944   -7.5700    1.1017 H   0  0  0  0  0  0  0  0  0  0  0  0
    7.7499   -8.5444    2.5704 H   0  0  0  0  0  0  0  0  0  0  0  0
    7.5285   -6.7983    2.7072 H   0  0  0  0  0  0  0  0  0  0  0  0
    5.9224   -9.2152    3.7509 H   0  0  0  0  0  0  0  0  0  0  0  0
    3.1139   -8.6488    2.5533 H   0  0  0  0  0  0  0  0  0  0  0  0
    3.8225  -10.3561    6.2369 H   0  0  0  0  0  0  0  0  0  0  0  0
    5.1764  -10.5610    5.1424 H   0  0  0  0  0  0  0  0  0  0  0  0
    3.8945  -11.7563    5.1779 H   0  0  0  0  0  0  0  0  0  0  0  0
    1.6155  -10.6277    5.2994 H   0  0  0  0  0  0  0  0  0  0  0  0
    2.0819  -11.5616    2.5783 H   0  0  0  0  0  0  0  0  0  0  0  0
    0.9319  -12.1730    3.7587 H   0  0  0  0  0  0  0  0  0  0  0  0
   -0.3603  -11.0427    1.7206 H   0  0  0  0  0  0  0  0  0  0  0  0
   -0.6479   -7.4719    2.1388 H   0  0  0  0  0  0  0  0  0  0  0  0
   -1.8211   -8.1555    3.2689 H   0  0  0  0  0  0  0  0  0  0  0  0
   -1.6728   -8.8281    1.6462 H   0  0  0  0  0  0  0  0  0  0  0  0
    1.3938   -8.0578    3.8141 H   0  0  0  0  0  0  0  0  0  0  0  0
   -0.5255   -7.7233    5.2772 H   0  0  0  0  0  0  0  0  0  0  0  0
    0.7933   -8.4012    6.2276 H   0  0  0  0  0  0  0  0  0  0  0  0
   -0.5369   -9.4286    5.7087 H   0  0  0  0  0  0  0  0  0  0  0  0
    1.4406   -1.8694    0.9932 H   0  0  0  0  0  0  0  0  0  0  0  0
    1.4494   -3.0825    2.2375 H   0  0  0  0  0  0  0  0  0  0  0  0
    1.8922   -1.3063    3.4601 H   0  0  0  0  0  0  0  0  0  0  0  0
    2.3166    0.2456    1.4221 H   0  0  0  0  0  0  0  0  0  0  0  0
    2.0542    1.0247    3.7772 H   0  0  0  0  0  0  0  0  0  0  0  0
    3.0484    2.0530    2.7416 H   0  0  0  0  0  0  0  0  0  0  0  0
    3.8117    1.0308    3.9390 H   0  0  0  0  0  0  0  0  0  0  0  0
    6.4908   -1.8456   -0.1206 H   0  0  0  0  0  0  0  0  0  0  0  0
    6.4956   -1.4497    1.6175 H   0  0  0  0  0  0  0  0  0  0  0  0
    6.7611   -0.2063    0.4159 H   0  0  0  0  0  0  0  0  0  0  0  0
    2.8168   -0.9267   -0.2362 H   0  0  0  0  0  0  0  0  0  0  0  0
  1  2  1  0
  1 36  1  0
  1 37  1  0
  1 38  1  0
  2  3  2  0
  2  4  1  0
  4  6  1  0
  4  5  1  0
  4 39  1  6
  6  5  1  6
  5 40  1  0
  5 41  1  0
  6 27  1  0
  6  7  1  0
  7  8  2  3
  7 25  1  0
  8  9  1  0
  8 10  1  0
  9 42  1  0
  9 43  1  0
  9 44  1  0
 10 11  2  3
 10 45  1  0
 11 12  1  0
 11 46  1  0
 12 13  1  0
 12 14  2  3
 13 47  1  0
 13 48  1  0
 13 49  1  0
 14 15  1  0
 14 50  1  0
 15 16  2  3
 15 51  1  0
 16 17  1  0
 16 18  1  0
 17 52  1  0
 17 53  1  0
 17 54  1  0
 18 23  1  0
 18 19  1  0
 18 55  1  1
 19 20  1  0
 19 56  1  0
 19 57  1  0
 20 21  2  0
 20 58  1  0
 21 22  1  0
 21 23  1  0
 22 59  1  0
 22 60  1  0
 22 61  1  0
 23 24  1  0
 23 62  1  6
 24 63  1  0
 24 64  1  0
 24 65  1  0
 25 34  1  0
 25 26  1  0
 26 27  1  0
 26 66  1  0
 26 67  1  0
 27 28  1  0
 27 68  1  1
 28 29  1  0
 28 30  1  0
 28 69  1  6
 29 70  1  0
 29 71  1  0
 29 72  1  0
 30 31  1  0
 31 32  1  0
 31 33  2  3
 32 73  1  0
 32 74  1  0
 32 75  1  0
 33 34  1  0
 33 76  1  0
 34 35  2  0
M  END
>  <i_m_ct_stereo_status>  (258) 
1

>  <s_m_source_file>  (258) 
/var/tmp/pbs.5076255.sched01/tmpk9_hntje/1089a46f3po.sdf

>  <i_m_source_file_index>  (258) 
20

>  <i_lp_mmshare_version>  (258) 
48012

>  <i_f3d_flags>  (258) 
0

>  <s_epik_input>  (258) 
W0NIM11DKD1PKVtDQEhdKFtDSDJdMSlbQ0BAXTEyW0NAQEhdM1tDSDJdTihDKD1PKS9bQ0hdPUMoW0NIM10pXE9bQ0BASF0zW0NIM10pQ1wyPUMoXFtDSDNdKS9bQ0hdPVtDSF0vQyhbQ0gzXSk9W0NIXS9bQ0hdPUMoXFtDSDNdKVtDQEBIXTRbQ0gyXVtDSF09QyhbQ0gzXSlbQ0BIXTRbQ0gzXQ==

>  <s_epik_cmdline>  (258) 
J2VwaWtfcHl0aG9uJywgJy1waHQnLCAnMi4wJywgJy1waCcsICc3LjAnLCAnLXRuJywgJzgnLCAnLW1hJywgJzIwMCcsICctaW1hZScsICc8aW5maWxlLm1hZT4nLCAnLW9tYWUnLCAnPG91dGZpbGUubWFlPic=

>  <r_lp_tautomer_probability>  (258) 
1

>  <r_epik_Ionization_Penalty>  (258) 
1.49479e-07

>  <r_epik_Ionization_Penalty_Charging>  (258) 
0

>  <r_epik_Ionization_Penalty_Neutral>  (258) 
1.49479e-07

>  <r_epik_State_Penalty>  (258) 
-0

>  <r_epik_Charging_Adjusted_Penalty>  (258) 
0

>  <i_epik_Tot_Q>  (258) 
0

>  <i_epik_Tot_abs_Q>  (258) 
0

>  <s_lp_Force_Field>  (258) 
OPLS3e

>  <r_lp_Energy>  (258) 
88.2255

>  <b_lp_Chiralities_Consistent>  (258) 
1

>  <s_lp_Variant>  (258) 
69:0-23

>  <s_i_glide_gridfile>  (258) 
pfpi4k_grid

>  <i_i_glide_lignum>  (258) 
20

>  <i_i_glide_rotatable_bonds>  (258) 
5

>  <r_i_docking_score>  (258) 
-2.50765

>  <r_i_glide_ligand_efficiency>  (258) 
-0.0716473

>  <r_i_glide_ligand_efficiency_sa>  (258) 
-0.234363

>  <r_i_glide_ligand_efficiency_ln>  (258) 
-0.550486

>  <r_i_glide_gscore>  (258) 
-2.50765

>  <r_i_glide_lipo>  (258) 
-0.861988

>  <r_i_glide_hbond>  (258) 
-0.0335682

>  <r_i_glide_metal>  (258) 
-0

>  <r_i_glide_rewards>  (258) 
-0.16594

>  <r_i_glide_evdw>  (258) 
-29.6438

>  <r_i_glide_ecoul>  (258) 
-2.02666

>  <r_i_glide_erotb>  (258) 
0.357898

>  <r_i_glide_esite>  (258) 
-0.0178674

>  <r_i_glide_emodel>  (258) 
-31.8485

>  <r_i_glide_energy>  (258) 
-31.6704

>  <r_i_glide_einternal>  (258) 
8.32477

>  <r_i_glide_intrahb_reward>  (258) 
-0

>  <i_i_glide_confnum>  (258) 
2

>  <i_i_glide_posenum>  (258) 
7

>  <r_i_glide_eff_state_penalty>  (258) 
0

>  <ligand_id>  (258) 
69

>  <original_smiles>  (258) 
CC(=O)C1CC12C(=C(C)C=CC(C)=CC=C(C)C1CC=C(C)C1C)N1CC2C(C)OC(C)=CC1=O

>  <smiles>  (258) 
[H]C(=C([H])C(=C1N2C(=O)C([H])=C(C([H])([H])[H])OC([H])(C([H])([H])[H])C([H])(C2([H])[H])C12C([H])([H])C2([H])C(=O)C([H])([H])[H])C([H])([H])[H])C(=C([H])C([H])=C(C([H])([H])[H])C1([H])C([H])([H])C([H])=C(C([H])([H])[H])C1([H])C([H])([H])[H])C([H])([H])[H]

$$$$
69:22:1
     RDKit          3D

 76 79  0  0  1  0  0  0  0  0999 V2000
   -0.5540    2.2753    6.1477 C   0  0  0  0  0  0  0  0  0  0  0  0
   -0.6792    0.7721    6.4588 C   0  0  0  0  0  0  0  0  0  0  0  0
   -1.7677    0.2123    6.4841 O   0  0  0  0  0  0  0  0  0  0  0  0
    0.5850   -0.0260    6.7183 C   0  0  2  0  0  0  0  0  0  0  0  0
    1.9104    0.4800    6.2360 C   0  0  0  0  0  0  0  0  0  0  0  0
    1.2862   -0.7030    5.5308 C   0  0  1  0  0  0  0  0  0  0  0  0
    1.8829   -2.1396    5.6289 C   0  0  0  0  0  0  0  0  0  0  0  0
    2.2571   -2.8782    6.7149 C   0  0  0  0  0  0  0  0  0  0  0  0
    2.2446   -2.3848    8.1491 C   0  0  0  0  0  0  0  0  0  0  0  0
    2.6355   -4.2891    6.5439 C   0  0  0  0  0  0  0  0  0  0  0  0
    1.8649   -5.3332    6.1831 C   0  0  0  0  0  0  0  0  0  0  0  0
    0.4151   -5.3998    5.9353 C   0  0  0  0  0  0  0  0  0  0  0  0
   -0.5113   -4.3438    6.5188 C   0  0  0  0  0  0  0  0  0  0  0  0
   -0.1501   -6.4146    5.2453 C   0  0  0  0  0  0  0  0  0  0  0  0
    0.5330   -7.5674    4.6622 C   0  0  0  0  0  0  0  0  0  0  0  0
    0.0433   -8.4352    3.7529 C   0  0  0  0  0  0  0  0  0  0  0  0
   -1.3729   -8.3826    3.1815 C   0  0  0  0  0  0  0  0  0  0  0  0
    0.8890   -9.5863    3.1857 C   0  0  2  0  0  0  0  0  0  0  0  0
    0.8896  -10.8480    4.0842 C   0  0  0  0  0  0  0  0  0  0  0  0
    2.3489  -11.1555    4.3009 C   0  0  0  0  0  0  0  0  0  0  0  0
    3.1493  -10.2776    3.6762 C   0  0  0  0  0  0  0  0  0  0  0  0
    4.6614  -10.2793    3.7026 C   0  0  0  0  0  0  0  0  0  0  0  0
    2.3928   -9.2368    2.9172 C   0  0  1  0  0  0  0  0  0  0  0  0
    2.7268   -9.2508    1.4195 C   0  0  0  0  0  0  0  0  0  0  0  0
    1.8610   -2.6218    4.3330 N   0  0  0  0  0  0  0  0  0  0  0  0
    0.7093   -2.0327    3.6482 C   0  0  0  0  0  0  0  0  0  0  0  0
    0.7108   -0.5653    4.0945 C   0  0  2  0  0  0  0  0  0  0  0  0
    1.4334    0.3779    3.0383 C   0  0  1  0  0  0  0  0  0  0  0  0
    0.8832    1.8148    3.0112 C   0  0  0  0  0  0  0  0  0  0  0  0
    2.8521    0.5707    3.1794 O   0  0  0  0  0  0  0  0  0  0  0  0
    3.6444   -0.5422    3.2185 C   0  0  0  0  0  0  0  0  0  0  0  0
    4.8184   -0.3358    4.1639 C   0  0  0  0  0  0  0  0  0  0  0  0
    3.2501   -1.7271    2.6984 C   0  0  0  0  0  0  0  0  0  0  0  0
    3.0315   -2.8026    3.6361 C   0  0  0  0  0  0  0  0  0  0  0  0
    3.8267   -3.7302    3.8370 O   0  0  0  0  0  0  0  0  0  0  0  0
   -0.1258    2.8260    7.0040 H   0  0  0  0  0  0  0  0  0  0  0  0
   -1.5440    2.7151    5.9162 H   0  0  0  0  0  0  0  0  0  0  0  0
    0.0902    2.4072    5.2739 H   0  0  0  0  0  0  0  0  0  0  0  0
    0.5872   -0.5347    7.6891 H   0  0  0  0  0  0  0  0  0  0  0  0
    1.9736    1.4074    5.6765 H   0  0  0  0  0  0  0  0  0  0  0  0
    2.7842    0.3078    6.8705 H   0  0  0  0  0  0  0  0  0  0  0  0
    2.9097   -2.9935    8.7618 H   0  0  0  0  0  0  0  0  0  0  0  0
    1.2526   -2.4897    8.5818 H   0  0  0  0  0  0  0  0  0  0  0  0
    2.5657   -1.3502    8.2449 H   0  0  0  0  0  0  0  0  0  0  0  0
    3.6753   -4.5126    6.7135 H   0  0  0  0  0  0  0  0  0  0  0  0
    2.4258   -6.2566    6.0978 H   0  0  0  0  0  0  0  0  0  0  0  0
   -0.1825   -4.0316    7.5125 H   0  0  0  0  0  0  0  0  0  0  0  0
   -1.5382   -4.7059    6.5853 H   0  0  0  0  0  0  0  0  0  0  0  0
   -0.5375   -3.4670    5.8809 H   0  0  0  0  0  0  0  0  0  0  0  0
   -1.2224   -6.3736    5.1240 H   0  0  0  0  0  0  0  0  0  0  0  0
    1.5355   -7.7615    5.0052 H   0  0  0  0  0  0  0  0  0  0  0  0
   -1.3263   -8.1860    2.1125 H   0  0  0  0  0  0  0  0  0  0  0  0
   -2.0026   -7.6222    3.6356 H   0  0  0  0  0  0  0  0  0  0  0  0
   -1.8657   -9.3459    3.3208 H   0  0  0  0  0  0  0  0  0  0  0  0
    0.4230   -9.8630    2.2336 H   0  0  0  0  0  0  0  0  0  0  0  0
    0.3926  -10.6983    5.0451 H   0  0  0  0  0  0  0  0  0  0  0  0
    0.4137  -11.6969    3.5928 H   0  0  0  0  0  0  0  0  0  0  0  0
    2.6736  -12.0023    4.8978 H   0  0  0  0  0  0  0  0  0  0  0  0
    5.0379   -9.3275    4.0832 H   0  0  0  0  0  0  0  0  0  0  0  0
    5.0558  -10.4210    2.6956 H   0  0  0  0  0  0  0  0  0  0  0  0
    5.0522  -11.0812    4.3345 H   0  0  0  0  0  0  0  0  0  0  0  0
    2.6960   -8.2506    3.2780 H   0  0  0  0  0  0  0  0  0  0  0  0
    3.7719   -8.9873    1.2381 H   0  0  0  0  0  0  0  0  0  0  0  0
    2.0997   -8.5416    0.8781 H   0  0  0  0  0  0  0  0  0  0  0  0
    2.5593  -10.2400    1.0049 H   0  0  0  0  0  0  0  0  0  0  0  0
    0.6569   -2.1796    2.5685 H   0  0  0  0  0  0  0  0  0  0  0  0
   -0.1949   -2.5101    4.0170 H   0  0  0  0  0  0  0  0  0  0  0  0
   -0.3500   -0.3040    4.1034 H   0  0  0  0  0  0  0  0  0  0  0  0
    1.2170   -0.0244    2.0418 H   0  0  0  0  0  0  0  0  0  0  0  0
   -0.2067    1.8226    3.0558 H   0  0  0  0  0  0  0  0  0  0  0  0
    1.1681    2.2981    2.0626 H   0  0  0  0  0  0  0  0  0  0  0  0
    1.2425    2.4056    3.8551 H   0  0  0  0  0  0  0  0  0  0  0  0
    5.4370   -1.2336    4.2514 H   0  0  0  0  0  0  0  0  0  0  0  0
    4.4916   -0.0213    5.1515 H   0  0  0  0  0  0  0  0  0  0  0  0
    5.4542    0.4526    3.7621 H   0  0  0  0  0  0  0  0  0  0  0  0
    2.5047   -1.6769    1.9026 H   0  0  0  0  0  0  0  0  0  0  0  0
  1  2  1  0
  1 36  1  0
  1 37  1  0
  1 38  1  0
  2  3  2  0
  2  4  1  0
  4  6  1  0
  4  5  1  0
  4 39  1  1
  6  5  1  6
  5 40  1  0
  5 41  1  0
  6 27  1  0
  6  7  1  0
  7  8  2  3
  7 25  1  0
  8  9  1  0
  8 10  1  0
  9 42  1  0
  9 43  1  0
  9 44  1  0
 10 11  2  3
 10 45  1  0
 11 12  1  0
 11 46  1  0
 12 13  1  0
 12 14  2  3
 13 47  1  0
 13 48  1  0
 13 49  1  0
 14 15  1  0
 14 50  1  0
 15 16  2  3
 15 51  1  0
 16 17  1  0
 16 18  1  0
 17 52  1  0
 17 53  1  0
 17 54  1  0
 18 23  1  0
 18 19  1  0
 18 55  1  6
 19 20  1  0
 19 56  1  0
 19 57  1  0
 20 21  2  0
 20 58  1  0
 21 22  1  0
 21 23  1  0
 22 59  1  0
 22 60  1  0
 22 61  1  0
 23 24  1  0
 23 62  1  1
 24 63  1  0
 24 64  1  0
 24 65  1  0
 25 34  1  0
 25 26  1  0
 26 27  1  0
 26 66  1  0
 26 67  1  0
 27 28  1  0
 27 68  1  1
 28 29  1  0
 28 30  1  0
 28 69  1  6
 29 70  1  0
 29 71  1  0
 29 72  1  0
 30 31  1  0
 31 32  1  0
 31 33  2  3
 32 73  1  0
 32 74  1  0
 32 75  1  0
 33 34  1  0
 33 76  1  0
 34 35  2  0
M  END
>  <i_m_ct_stereo_status>  (259) 
1

>  <s_m_source_file>  (259) 
/var/tmp/pbs.5076255.sched01/tmpk9_hntje/1089a46f3po.sdf

>  <i_m_source_file_index>  (259) 
20

>  <i_lp_mmshare_version>  (259) 
48012

>  <i_f3d_flags>  (259) 
0

>  <s_epik_input>  (259) 
W0NIM11DKD1PKVtDQEhdKFtDSDJdMSlbQ0BAXTEyW0NAQEhdM1tDSDJdTihDKD1PKS9bQ0hdPUMoW0NIM10pXE9bQ0BASF0zW0NIM10pQ1wyPUMoXFtDSDNdKS9bQ0hdPVtDSF0vQyhbQ0gzXSk9W0NIXS9bQ0hdPUMoXFtDSDNdKVtDQEBIXTRbQ0gyXVtDSF09QyhbQ0gzXSlbQ0BIXTRbQ0gzXQ==

>  <s_epik_cmdline>  (259) 
J2VwaWtfcHl0aG9uJywgJy1waHQnLCAnMi4wJywgJy1waCcsICc3LjAnLCAnLXRuJywgJzgnLCAnLW1hJywgJzIwMCcsICctaW1hZScsICc8aW5maWxlLm1hZT4nLCAnLW9tYWUnLCAnPG91dGZpbGUubWFlPic=

>  <r_lp_tautomer_probability>  (259) 
1

>  <r_epik_Ionization_Penalty>  (259) 
1.49479e-07

>  <r_epik_Ionization_Penalty_Charging>  (259) 
0

>  <r_epik_Ionization_Penalty_Neutral>  (259) 
1.49479e-07

>  <r_epik_State_Penalty>  (259) 
-0

>  <r_epik_Charging_Adjusted_Penalty>  (259) 
0

>  <i_epik_Tot_Q>  (259) 
0

>  <i_epik_Tot_abs_Q>  (259) 
0

>  <s_lp_Force_Field>  (259) 
OPLS3e

>  <r_lp_Energy>  (259) 
88.2255

>  <b_lp_Chiralities_Consistent>  (259) 
1

>  <s_lp_Variant>  (259) 
69:0-23

>  <s_i_glide_gridfile>  (259) 
pfpi4k_grid

>  <i_i_glide_lignum>  (259) 
20

>  <i_i_glide_rotatable_bonds>  (259) 
5

>  <r_i_docking_score>  (259) 
-2.31037

>  <r_i_glide_ligand_efficiency>  (259) 
-0.0660105

>  <r_i_glide_ligand_efficiency_sa>  (259) 
-0.215925

>  <r_i_glide_ligand_efficiency_ln>  (259) 
-0.507177

>  <r_i_glide_gscore>  (259) 
-2.31037

>  <r_i_glide_lipo>  (259) 
-0.114813

>  <r_i_glide_hbond>  (259) 
-0.16

>  <r_i_glide_metal>  (259) 
-0

>  <r_i_glide_rewards>  (259) 
-0.169503

>  <r_i_glide_evdw>  (259) 
-28.8904

>  <r_i_glide_ecoul>  (259) 
-4.96502

>  <r_i_glide_erotb>  (259) 
0.357898

>  <r_i_glide_esite>  (259) 
-0.0346774

>  <r_i_glide_emodel>  (259) 
-32.9131

>  <r_i_glide_energy>  (259) 
-33.8554

>  <r_i_glide_einternal>  (259) 
9.50121

>  <r_i_glide_intrahb_reward>  (259) 
-0

>  <i_i_glide_confnum>  (259) 
2

>  <i_i_glide_posenum>  (259) 
22

>  <r_i_glide_eff_state_penalty>  (259) 
0

>  <ligand_id>  (259) 
69

>  <original_smiles>  (259) 
CC(=O)C1CC12C(=C(C)C=CC(C)=CC=C(C)C1CC=C(C)C1C)N1CC2C(C)OC(C)=CC1=O

>  <smiles>  (259) 
[H]C(=C([H])C(=C1N2C(=O)C([H])=C(C([H])([H])[H])OC([H])(C([H])([H])[H])C([H])(C2([H])[H])C12C([H])([H])C2([H])C(=O)C([H])([H])[H])C([H])([H])[H])C(=C([H])C([H])=C(C([H])([H])[H])C1([H])C([H])([H])C([H])=C(C([H])([H])[H])C1([H])C([H])([H])[H])C([H])([H])[H]

$$$$
69:22:2
     RDKit          3D

 76 79  0  0  1  0  0  0  0  0999 V2000
   -0.2484    2.5802    6.7057 C   0  0  0  0  0  0  0  0  0  0  0  0
   -0.3585    1.0631    6.8993 C   0  0  0  0  0  0  0  0  0  0  0  0
   -1.4650    0.5305    6.9031 O   0  0  0  0  0  0  0  0  0  0  0  0
    0.9112    0.2335    7.0304 C   0  0  2  0  0  0  0  0  0  0  0  0
    2.2038    0.7767    6.4671 C   0  0  0  0  0  0  0  0  0  0  0  0
    1.5267   -0.3863    5.7413 C   0  0  1  0  0  0  0  0  0  0  0  0
    2.1003   -1.7919    5.7213 C   0  0  0  0  0  0  0  0  0  0  0  0
    2.5632   -2.6250    6.7115 C   0  0  0  0  0  0  0  0  0  0  0  0
    2.6689   -2.2122    8.1791 C   0  0  0  0  0  0  0  0  0  0  0  0
    2.9076   -4.0271    6.4449 C   0  0  0  0  0  0  0  0  0  0  0  0
    2.1436   -5.0213    5.9565 C   0  0  0  0  0  0  0  0  0  0  0  0
    0.6932   -4.9933    5.6311 C   0  0  0  0  0  0  0  0  0  0  0  0
   -0.2257   -3.9593    6.2176 C   0  0  0  0  0  0  0  0  0  0  0  0
    0.1330   -5.9730    4.8467 C   0  0  0  0  0  0  0  0  0  0  0  0
    0.8169   -7.1102    4.2336 C   0  0  0  0  0  0  0  0  0  0  0  0
    0.2549   -8.1048    3.4998 C   0  0  0  0  0  0  0  0  0  0  0  0
   -1.2379   -8.1366    3.1255 C   0  0  0  0  0  0  0  0  0  0  0  0
    1.0938   -9.2864    2.9718 C   0  0  2  0  0  0  0  0  0  0  0  0
    0.3762  -10.6654    3.0021 C   0  0  0  0  0  0  0  0  0  0  0  0
    1.3139  -11.5877    3.7143 C   0  0  0  0  0  0  0  0  0  0  0  0
    2.4457  -10.9852    4.0954 C   0  0  0  0  0  0  0  0  0  0  0  0
    3.5683  -11.5846    4.8855 C   0  0  0  0  0  0  0  0  0  0  0  0
    2.4659   -9.5230    3.7012 C   0  0  1  0  0  0  0  0  0  0  0  0
    3.6490   -9.2200    2.7796 C   0  0  0  0  0  0  0  0  0  0  0  0
    1.9402   -2.1991    4.3683 N   0  0  0  0  0  0  0  0  0  0  0  0
    0.7643   -1.5456    3.7939 C   0  0  0  0  0  0  0  0  0  0  0  0
    0.8142   -0.1446    4.3771 C   0  0  2  0  0  0  0  0  0  0  0  0
    1.4633    0.8653    3.3319 C   0  0  1  0  0  0  0  0  0  0  0  0
    0.8979    2.2881    3.4286 C   0  0  0  0  0  0  0  0  0  0  0  0
    2.8870    1.0346    3.3730 O   0  0  0  0  0  0  0  0  0  0  0  0
    3.6830   -0.0936    3.2541 C   0  0  0  0  0  0  0  0  0  0  0  0
    4.9206    0.0569    4.1042 C   0  0  0  0  0  0  0  0  0  0  0  0
    3.2342   -1.2429    2.6916 C   0  0  0  0  0  0  0  0  0  0  0  0
    3.0726   -2.3616    3.5785 C   0  0  0  0  0  0  0  0  0  0  0  0
    3.8461   -3.3204    3.6693 O   0  0  0  0  0  0  0  0  0  0  0  0
    0.2841    3.0539    7.5392 H   0  0  0  0  0  0  0  0  0  0  0  0
   -1.2297    3.0285    6.5358 H   0  0  0  0  0  0  0  0  0  0  0  0
    0.3227    2.7440    5.8116 H   0  0  0  0  0  0  0  0  0  0  0  0
    0.9975   -0.3247    7.9646 H   0  0  0  0  0  0  0  0  0  0  0  0
    2.2054    1.7312    5.9415 H   0  0  0  0  0  0  0  0  0  0  0  0
    3.1282    0.5752    7.0018 H   0  0  0  0  0  0  0  0  0  0  0  0
    3.3850   -2.8443    8.7123 H   0  0  0  0  0  0  0  0  0  0  0  0
    1.7157   -2.3420    8.6965 H   0  0  0  0  0  0  0  0  0  0  0  0
    3.0046   -1.1863    8.3124 H   0  0  0  0  0  0  0  0  0  0  0  0
    3.9339   -4.2946    6.6574 H   0  0  0  0  0  0  0  0  0  0  0  0
    2.7071   -5.9394    5.8078 H   0  0  0  0  0  0  0  0  0  0  0  0
    0.0539   -3.7126    7.2442 H   0  0  0  0  0  0  0  0  0  0  0  0
   -1.2649   -4.2485    6.1498 H   0  0  0  0  0  0  0  0  0  0  0  0
   -0.1359   -3.0495    5.6223 H   0  0  0  0  0  0  0  0  0  0  0  0
   -0.9230   -5.8617    4.6535 H   0  0  0  0  0  0  0  0  0  0  0  0
    1.8823   -7.1505    4.3888 H   0  0  0  0  0  0  0  0  0  0  0  0
   -1.3274   -8.0715    2.0400 H   0  0  0  0  0  0  0  0  0  0  0  0
   -1.8224   -7.3348    3.5769 H   0  0  0  0  0  0  0  0  0  0  0  0
   -1.7377   -9.0496    3.4551 H   0  0  0  0  0  0  0  0  0  0  0  0
    1.2787   -9.0502    1.9250 H   0  0  0  0  0  0  0  0  0  0  0  0
   -0.5475  -10.6931    3.5706 H   0  0  0  0  0  0  0  0  0  0  0  0
    0.1895  -11.0355    1.9885 H   0  0  0  0  0  0  0  0  0  0  0  0
    1.0499  -12.6156    3.9339 H   0  0  0  0  0  0  0  0  0  0  0  0
    3.7420  -11.0309    5.8109 H   0  0  0  0  0  0  0  0  0  0  0  0
    4.4799  -11.5647    4.2915 H   0  0  0  0  0  0  0  0  0  0  0  0
    3.3405  -12.6223    5.1437 H   0  0  0  0  0  0  0  0  0  0  0  0
    2.5782   -9.0128    4.6532 H   0  0  0  0  0  0  0  0  0  0  0  0
    4.5982   -9.3747    3.2967 H   0  0  0  0  0  0  0  0  0  0  0  0
    3.6170   -8.1839    2.4316 H   0  0  0  0  0  0  0  0  0  0  0  0
    3.6312   -9.8724    1.8991 H   0  0  0  0  0  0  0  0  0  0  0  0
    0.6760   -1.6008    2.7101 H   0  0  0  0  0  0  0  0  0  0  0  0
   -0.1992   -1.9753    4.1317 H   0  0  0  0  0  0  0  0  0  0  0  0
   -0.2234    0.1302    4.5150 H   0  0  0  0  0  0  0  0  0  0  0  0
    1.1544    0.5138    2.3427 H   0  0  0  0  0  0  0  0  0  0  0  0
   -0.1849    2.2793    3.5603 H   0  0  0  0  0  0  0  0  0  0  0  0
    1.1305    2.8372    2.5195 H   0  0  0  0  0  0  0  0  0  0  0  0
    1.3794    2.8338    4.2328 H   0  0  0  0  0  0  0  0  0  0  0  0
    5.5366   -0.8431    4.0879 H   0  0  0  0  0  0  0  0  0  0  0  0
    4.6760    0.3181    5.1325 H   0  0  0  0  0  0  0  0  0  0  0  0
    5.5279    0.8709    3.6994 H   0  0  0  0  0  0  0  0  0  0  0  0
    2.4432   -1.1589    1.9710 H   0  0  0  0  0  0  0  0  0  0  0  0
  1  2  1  0
  1 36  1  0
  1 37  1  0
  1 38  1  0
  2  3  2  0
  2  4  1  0
  4  6  1  0
  4  5  1  0
  4 39  1  1
  6  5  1  6
  5 40  1  0
  5 41  1  0
  6 27  1  0
  6  7  1  0
  7  8  2  3
  7 25  1  0
  8  9  1  0
  8 10  1  0
  9 42  1  0
  9 43  1  0
  9 44  1  0
 10 11  2  3
 10 45  1  0
 11 12  1  0
 11 46  1  0
 12 13  1  0
 12 14  2  3
 13 47  1  0
 13 48  1  0
 13 49  1  0
 14 15  1  0
 14 50  1  0
 15 16  2  3
 15 51  1  0
 16 17  1  0
 16 18  1  0
 17 52  1  0
 17 53  1  0
 17 54  1  0
 18 23  1  0
 18 19  1  0
 18 55  1  6
 19 20  1  0
 19 56  1  0
 19 57  1  0
 20 21  2  0
 20 58  1  0
 21 22  1  0
 21 23  1  0
 22 59  1  0
 22 60  1  0
 22 61  1  0
 23 24  1  0
 23 62  1  1
 24 63  1  0
 24 64  1  0
 24 65  1  0
 25 34  1  0
 25 26  1  0
 26 27  1  0
 26 66  1  0
 26 67  1  0
 27 28  1  0
 27 68  1  1
 28 29  1  0
 28 30  1  0
 28 69  1  6
 29 70  1  0
 29 71  1  0
 29 72  1  0
 30 31  1  0
 31 32  1  0
 31 33  2  3
 32 73  1  0
 32 74  1  0
 32 75  1  0
 33 34  1  0
 33 76  1  0
 34 35  2  0
M  END
>  <i_m_ct_stereo_status>  (260) 
1

>  <s_m_source_file>  (260) 
/var/tmp/pbs.5076255.sched01/tmpk9_hntje/1089a46f3po.sdf

>  <i_m_source_file_index>  (260) 
20

>  <i_lp_mmshare_version>  (260) 
48012

>  <i_f3d_flags>  (260) 
0

>  <s_epik_input>  (260) 
W0NIM11DKD1PKVtDQEhdKFtDSDJdMSlbQ0BAXTEyW0NAQEhdM1tDSDJdTihDKD1PKS9bQ0hdPUMoW0NIM10pXE9bQ0BASF0zW0NIM10pQ1wyPUMoXFtDSDNdKS9bQ0hdPVtDSF0vQyhbQ0gzXSk9W0NIXS9bQ0hdPUMoXFtDSDNdKVtDQEBIXTRbQ0gyXVtDSF09QyhbQ0gzXSlbQ0BIXTRbQ0gzXQ==

>  <s_epik_cmdline>  (260) 
J2VwaWtfcHl0aG9uJywgJy1waHQnLCAnMi4wJywgJy1waCcsICc3LjAnLCAnLXRuJywgJzgnLCAnLW1hJywgJzIwMCcsICctaW1hZScsICc8aW5maWxlLm1hZT4nLCAnLW9tYWUnLCAnPG91dGZpbGUubWFlPic=

>  <r_lp_tautomer_probability>  (260) 
1

>  <r_epik_Ionization_Penalty>  (260) 
1.49479e-07

>  <r_epik_Ionization_Penalty_Charging>  (260) 
0

>  <r_epik_Ionization_Penalty_Neutral>  (260) 
1.49479e-07

>  <r_epik_State_Penalty>  (260) 
-0

>  <r_epik_Charging_Adjusted_Penalty>  (260) 
0

>  <i_epik_Tot_Q>  (260) 
0

>  <i_epik_Tot_abs_Q>  (260) 
0

>  <s_lp_Force_Field>  (260) 
OPLS3e

>  <r_lp_Energy>  (260) 
88.2255

>  <b_lp_Chiralities_Consistent>  (260) 
1

>  <s_lp_Variant>  (260) 
69:0-23

>  <s_i_glide_gridfile>  (260) 
pfpi4k_grid

>  <i_i_glide_lignum>  (260) 
20

>  <i_i_glide_rotatable_bonds>  (260) 
5

>  <r_i_docking_score>  (260) 
-2.245

>  <r_i_glide_ligand_efficiency>  (260) 
-0.0641428

>  <r_i_glide_ligand_efficiency_sa>  (260) 
-0.209815

>  <r_i_glide_ligand_efficiency_ln>  (260) 
-0.492827

>  <r_i_glide_gscore>  (260) 
-2.245

>  <r_i_glide_lipo>  (260) 
-0.244774

>  <r_i_glide_hbond>  (260) 
-0.16

>  <r_i_glide_metal>  (260) 
-0

>  <r_i_glide_rewards>  (260) 
-0.166099

>  <r_i_glide_evdw>  (260) 
-26.4176

>  <r_i_glide_ecoul>  (260) 
-4.57886

>  <r_i_glide_erotb>  (260) 
0.357898

>  <r_i_glide_esite>  (260) 
-0.0243132

>  <r_i_glide_emodel>  (260) 
-26.1345

>  <r_i_glide_energy>  (260) 
-30.9965

>  <r_i_glide_einternal>  (260) 
14.082

>  <r_i_glide_intrahb_reward>  (260) 
-0

>  <i_i_glide_confnum>  (260) 
2

>  <i_i_glide_posenum>  (260) 
14

>  <r_i_glide_eff_state_penalty>  (260) 
0

>  <ligand_id>  (260) 
69

>  <original_smiles>  (260) 
CC(=O)C1CC12C(=C(C)C=CC(C)=CC=C(C)C1CC=C(C)C1C)N1CC2C(C)OC(C)=CC1=O

>  <smiles>  (260) 
[H]C(=C([H])C(=C1N2C(=O)C([H])=C(C([H])([H])[H])OC([H])(C([H])([H])[H])C([H])(C2([H])[H])C12C([H])([H])C2([H])C(=O)C([H])([H])[H])C([H])([H])[H])C(=C([H])C([H])=C(C([H])([H])[H])C1([H])C([H])([H])C([H])=C(C([H])([H])[H])C1([H])C([H])([H])[H])C([H])([H])[H]

$$$$
69:23:0
     RDKit          3D

 76 79  0  0  1  0  0  0  0  0999 V2000
    6.6685    0.9804    6.6293 C   0  0  0  0  0  0  0  0  0  0  0  0
    5.6426    0.4302    5.6422 C   0  0  0  0  0  0  0  0  0  0  0  0
    5.7913    0.5680    4.4181 O   0  0  0  0  0  0  0  0  0  0  0  0
    4.5148   -0.3457    6.2800 C   0  0  2  0  0  0  0  0  0  0  0  0
    3.3542   -0.7554    5.3833 C   0  0  0  0  0  0  0  0  0  0  0  0
    3.1127    0.3059    6.4585 C   0  0  1  0  0  0  0  0  0  0  0  0
    2.3167   -0.0372    7.7031 C   0  0  0  0  0  0  0  0  0  0  0  0
    2.3207   -1.1171    8.5770 C   0  0  0  0  0  0  0  0  0  0  0  0
    1.6704   -1.0126    9.9604 C   0  0  0  0  0  0  0  0  0  0  0  0
    3.1504   -2.3108    8.2864 C   0  0  0  0  0  0  0  0  0  0  0  0
    2.7363   -3.5783    8.0740 C   0  0  0  0  0  0  0  0  0  0  0  0
    1.3566   -4.1311    8.1380 C   0  0  0  0  0  0  0  0  0  0  0  0
    0.3919   -3.6992    9.1979 C   0  0  0  0  0  0  0  0  0  0  0  0
    0.9319   -5.0828    7.3110 C   0  0  0  0  0  0  0  0  0  0  0  0
    1.7250   -5.6700    6.2403 C   0  0  0  0  0  0  0  0  0  0  0  0
    1.2431   -6.2740    5.1422 C   0  0  0  0  0  0  0  0  0  0  0  0
   -0.2613   -6.5000    4.9035 C   0  0  0  0  0  0  0  0  0  0  0  0
    2.1894   -6.7953    4.0452 C   0  0  2  0  0  0  0  0  0  0  0  0
    3.6373   -6.1936    4.0891 C   0  0  0  0  0  0  0  0  0  0  0  0
    3.8615   -5.6579    2.7122 C   0  0  0  0  0  0  0  0  0  0  0  0
    2.8127   -5.8450    1.9088 C   0  0  0  0  0  0  0  0  0  0  0  0
    2.7028   -5.3756    0.4806 C   0  0  0  0  0  0  0  0  0  0  0  0
    1.6761   -6.5557    2.5909 C   0  0  1  0  0  0  0  0  0  0  0  0
    1.3390   -7.8751    1.8810 C   0  0  0  0  0  0  0  0  0  0  0  0
    1.5473    1.1133    7.9343 N   0  0  0  0  0  0  0  0  0  0  0  0
    2.3090    2.2731    7.4804 C   0  0  0  0  0  0  0  0  0  0  0  0
    2.9404    1.8212    6.1577 C   0  0  2  0  0  0  0  0  0  0  0  0
    2.0891    2.2586    4.8929 C   0  0  1  0  0  0  0  0  0  0  0  0
    2.9667    2.5604    3.6799 C   0  0  0  0  0  0  0  0  0  0  0  0
    1.0764    1.3570    4.4234 O   0  0  0  0  0  0  0  0  0  0  0  0
    0.1351    0.9202    5.3215 C   0  0  0  0  0  0  0  0  0  0  0  0
   -0.1985   -0.5292    5.0762 C   0  0  0  0  0  0  0  0  0  0  0  0
   -0.1669    1.6463    6.4529 C   0  0  0  0  0  0  0  0  0  0  0  0
    0.1993    1.0491    7.7179 C   0  0  0  0  0  0  0  0  0  0  0  0
   -0.5819    0.4735    8.4690 O   0  0  0  0  0  0  0  0  0  0  0  0
    6.1907    1.6879    7.3100 H   0  0  0  0  0  0  0  0  0  0  0  0
    7.4638    1.4907    6.0922 H   0  0  0  0  0  0  0  0  0  0  0  0
    7.1117    0.1851    7.2398 H   0  0  0  0  0  0  0  0  0  0  0  0
    4.8640   -1.0306    7.0367 H   0  0  0  0  0  0  0  0  0  0  0  0
    3.3453   -0.4596    4.3352 H   0  0  0  0  0  0  0  0  0  0  0  0
    2.8896   -1.7186    5.5887 H   0  0  0  0  0  0  0  0  0  0  0  0
    2.3851   -1.4752   10.6731 H   0  0  0  0  0  0  0  0  0  0  0  0
    0.7153   -1.4500   10.0248 H   0  0  0  0  0  0  0  0  0  0  0  0
    1.4902    0.0372   10.2412 H   0  0  0  0  0  0  0  0  0  0  0  0
    4.2250   -2.2026    8.2770 H   0  0  0  0  0  0  0  0  0  0  0  0
    3.5490   -4.2726    7.8707 H   0  0  0  0  0  0  0  0  0  0  0  0
   -0.0335   -2.7700    8.8293 H   0  0  0  0  0  0  0  0  0  0  0  0
    0.9413   -3.5464   10.1315 H   0  0  0  0  0  0  0  0  0  0  0  0
   -0.4041   -4.3986    9.3961 H   0  0  0  0  0  0  0  0  0  0  0  0
   -0.0851   -5.4314    7.4691 H   0  0  0  0  0  0  0  0  0  0  0  0
    2.7909   -5.5910    6.3925 H   0  0  0  0  0  0  0  0  0  0  0  0
   -0.4595   -7.5755    4.8640 H   0  0  0  0  0  0  0  0  0  0  0  0
   -0.5997   -6.0552    3.9702 H   0  0  0  0  0  0  0  0  0  0  0  0
   -0.8959   -6.0535    5.6753 H   0  0  0  0  0  0  0  0  0  0  0  0
    2.2670   -7.8732    4.2227 H   0  0  0  0  0  0  0  0  0  0  0  0
    3.7786   -5.3320    4.7346 H   0  0  0  0  0  0  0  0  0  0  0  0
    4.3728   -6.9676    4.3283 H   0  0  0  0  0  0  0  0  0  0  0  0
    4.7638   -5.1388    2.4542 H   0  0  0  0  0  0  0  0  0  0  0  0
    1.8368   -4.7217    0.3339 H   0  0  0  0  0  0  0  0  0  0  0  0
    2.6000   -6.2437   -0.1750 H   0  0  0  0  0  0  0  0  0  0  0  0
    3.6044   -4.8319    0.1843 H   0  0  0  0  0  0  0  0  0  0  0  0
    0.8316   -5.8705    2.5232 H   0  0  0  0  0  0  0  0  0  0  0  0
    0.9787   -7.6991    0.8653 H   0  0  0  0  0  0  0  0  0  0  0  0
    0.5636   -8.4236    2.4194 H   0  0  0  0  0  0  0  0  0  0  0  0
    2.2209   -8.5194    1.8218 H   0  0  0  0  0  0  0  0  0  0  0  0
    1.7700    3.2160    7.4159 H   0  0  0  0  0  0  0  0  0  0  0  0
    3.0887    2.4373    8.2216 H   0  0  0  0  0  0  0  0  0  0  0  0
    3.9069    2.3182    6.1104 H   0  0  0  0  0  0  0  0  0  0  0  0
    1.6228    3.2116    5.1311 H   0  0  0  0  0  0  0  0  0  0  0  0
    3.7765    3.2454    3.9178 H   0  0  0  0  0  0  0  0  0  0  0  0
    2.3713    3.0286    2.8989 H   0  0  0  0  0  0  0  0  0  0  0  0
    3.4015    1.6587    3.2574 H   0  0  0  0  0  0  0  0  0  0  0  0
   -0.7505   -0.9896    5.8983 H   0  0  0  0  0  0  0  0  0  0  0  0
    0.7057   -1.1110    4.8850 H   0  0  0  0  0  0  0  0  0  0  0  0
   -0.8179   -0.6103    4.1749 H   0  0  0  0  0  0  0  0  0  0  0  0
   -0.0117    2.7050    6.4035 H   0  0  0  0  0  0  0  0  0  0  0  0
  1  2  1  0
  1 36  1  0
  1 37  1  0
  1 38  1  0
  2  3  2  0
  2  4  1  0
  4  6  1  0
  4  5  1  0
  4 39  1  1
  6  5  1  6
  5 40  1  0
  5 41  1  0
  6 27  1  0
  6  7  1  0
  7  8  2  3
  7 25  1  0
  8  9  1  0
  8 10  1  0
  9 42  1  0
  9 43  1  0
  9 44  1  0
 10 11  2  3
 10 45  1  0
 11 12  1  0
 11 46  1  0
 12 13  1  0
 12 14  2  3
 13 47  1  0
 13 48  1  0
 13 49  1  0
 14 15  1  0
 14 50  1  0
 15 16  2  3
 15 51  1  0
 16 17  1  0
 16 18  1  0
 17 52  1  0
 17 53  1  0
 17 54  1  0
 18 23  1  0
 18 19  1  0
 18 55  1  1
 19 20  1  0
 19 56  1  0
 19 57  1  0
 20 21  2  0
 20 58  1  0
 21 22  1  0
 21 23  1  0
 22 59  1  0
 22 60  1  0
 22 61  1  0
 23 24  1  0
 23 62  1  1
 24 63  1  0
 24 64  1  0
 24 65  1  0
 25 34  1  0
 25 26  1  0
 26 27  1  0
 26 66  1  0
 26 67  1  0
 27 28  1  0
 27 68  1  6
 28 29  1  0
 28 30  1  0
 28 69  1  1
 29 70  1  0
 29 71  1  0
 29 72  1  0
 30 31  1  0
 31 32  1  0
 31 33  2  3
 32 73  1  0
 32 74  1  0
 32 75  1  0
 33 34  1  0
 33 76  1  0
 34 35  2  0
M  END
>  <i_m_ct_stereo_status>  (261) 
1

>  <s_m_source_file>  (261) 
/var/tmp/pbs.5076255.sched01/tmpk9_hntje/1089a46f3po.sdf

>  <i_m_source_file_index>  (261) 
21

>  <i_lp_mmshare_version>  (261) 
48012

>  <i_f3d_flags>  (261) 
0

>  <s_epik_input>  (261) 
W0NIM11DKD1PKVtDQEhdKFtDSDJdMSlbQ0BAXTEyW0NAQEhdM1tDSDJdTihDKD1PKS9bQ0hdPUMoW0NIM10pXE9bQ0BASF0zW0NIM10pQ1wyPUMoXFtDSDNdKS9bQ0hdPVtDSF0vQyhbQ0gzXSk9W0NIXS9bQ0hdPUMoXFtDSDNdKVtDQEBIXTRbQ0gyXVtDSF09QyhbQ0gzXSlbQ0BIXTRbQ0gzXQ==

>  <s_epik_cmdline>  (261) 
J2VwaWtfcHl0aG9uJywgJy1waHQnLCAnMi4wJywgJy1waCcsICc3LjAnLCAnLXRuJywgJzgnLCAnLW1hJywgJzIwMCcsICctaW1hZScsICc8aW5maWxlLm1hZT4nLCAnLW9tYWUnLCAnPG91dGZpbGUubWFlPic=

>  <r_lp_tautomer_probability>  (261) 
1

>  <r_epik_Ionization_Penalty>  (261) 
1.49479e-07

>  <r_epik_Ionization_Penalty_Charging>  (261) 
0

>  <r_epik_Ionization_Penalty_Neutral>  (261) 
1.49479e-07

>  <r_epik_State_Penalty>  (261) 
-0

>  <r_epik_Charging_Adjusted_Penalty>  (261) 
0

>  <i_epik_Tot_Q>  (261) 
0

>  <i_epik_Tot_abs_Q>  (261) 
0

>  <s_lp_Force_Field>  (261) 
OPLS3e

>  <r_lp_Energy>  (261) 
83.7402

>  <b_lp_Chiralities_Consistent>  (261) 
1

>  <s_lp_Variant>  (261) 
69:0-24

>  <s_i_glide_gridfile>  (261) 
pfpi4k_grid

>  <i_i_glide_lignum>  (261) 
21

>  <i_i_glide_rotatable_bonds>  (261) 
5

>  <r_i_docking_score>  (261) 
-1.17065

>  <r_i_glide_ligand_efficiency>  (261) 
-0.0334472

>  <r_i_glide_ligand_efficiency_sa>  (261) 
-0.109408

>  <r_i_glide_ligand_efficiency_ln>  (261) 
-0.256984

>  <r_i_glide_gscore>  (261) 
-1.17065

>  <r_i_glide_lipo>  (261) 
-0.0876036

>  <r_i_glide_hbond>  (261) 
-0.00735672

>  <r_i_glide_metal>  (261) 
-0

>  <r_i_glide_rewards>  (261) 
-0.270075

>  <r_i_glide_evdw>  (261) 
-19.8469

>  <r_i_glide_ecoul>  (261) 
-1.06053

>  <r_i_glide_erotb>  (261) 
0.357898

>  <r_i_glide_esite>  (261) 
-0.0120895

>  <r_i_glide_emodel>  (261) 
-10.2123

>  <r_i_glide_energy>  (261) 
-20.9074

>  <r_i_glide_einternal>  (261) 
20.1675

>  <r_i_glide_intrahb_reward>  (261) 
-0

>  <i_i_glide_confnum>  (261) 
3

>  <i_i_glide_posenum>  (261) 
20

>  <r_i_glide_eff_state_penalty>  (261) 
0

>  <ligand_id>  (261) 
69

>  <original_smiles>  (261) 
CC(=O)C1CC12C(=C(C)C=CC(C)=CC=C(C)C1CC=C(C)C1C)N1CC2C(C)OC(C)=CC1=O

>  <smiles>  (261) 
[H]C(=C([H])C(=C1N2C(=O)C([H])=C(C([H])([H])[H])OC([H])(C([H])([H])[H])C([H])(C2([H])[H])C12C([H])([H])C2([H])C(=O)C([H])([H])[H])C([H])([H])[H])C(=C([H])C([H])=C(C([H])([H])[H])C1([H])C([H])([H])C([H])=C(C([H])([H])[H])C1([H])C([H])([H])[H])C([H])([H])[H]

$$$$
69:24:0
     RDKit          3D

 76 79  0  0  1  0  0  0  0  0999 V2000
    5.9096  -11.8130    3.0091 C   0  0  0  0  0  0  0  0  0  0  0  0
    5.0188  -11.7893    4.2464 C   0  0  0  0  0  0  0  0  0  0  0  0
    4.5184  -12.8272    4.6704 O   0  0  0  0  0  0  0  0  0  0  0  0
    4.7477  -10.4391    4.8600 C   0  0  2  0  0  0  0  0  0  0  0  0
    3.4885  -10.2344    5.6706 C   0  0  0  0  0  0  0  0  0  0  0  0
    3.5984   -9.5542    4.2997 C   0  0  1  0  0  0  0  0  0  0  0  0
    3.8207   -8.0758    4.1208 C   0  0  0  0  0  0  0  0  0  0  0  0
    4.4473   -7.1025    4.8700 C   0  0  0  0  0  0  0  0  0  0  0  0
    5.1041   -7.3895    6.2263 C   0  0  0  0  0  0  0  0  0  0  0  0
    4.5968   -5.7324    4.3808 C   0  0  0  0  0  0  0  0  0  0  0  0
    5.1299   -4.6770    5.0368 C   0  0  0  0  0  0  0  0  0  0  0  0
    5.2696   -3.3224    4.5011 C   0  0  0  0  0  0  0  0  0  0  0  0
    5.3967   -2.1928    5.5165 C   0  0  0  0  0  0  0  0  0  0  0  0
    5.2536   -3.1097    3.1626 C   0  0  0  0  0  0  0  0  0  0  0  0
    5.3150   -1.8334    2.4682 C   0  0  0  0  0  0  0  0  0  0  0  0
    5.2718   -1.6679    1.1255 C   0  0  0  0  0  0  0  0  0  0  0  0
    5.3238   -0.2630    0.5508 C   0  0  0  0  0  0  0  0  0  0  0  0
    5.1589   -2.7950    0.0880 C   0  0  2  0  0  0  0  0  0  0  0  0
    6.3720   -2.8824   -0.8802 C   0  0  0  0  0  0  0  0  0  0  0  0
    5.7476   -2.8427   -2.2478 C   0  0  0  0  0  0  0  0  0  0  0  0
    4.4239   -2.7376   -2.2184 C   0  0  0  0  0  0  0  0  0  0  0  0
    3.4900   -2.6441   -3.3995 C   0  0  0  0  0  0  0  0  0  0  0  0
    3.8683   -2.7092   -0.7990 C   0  0  1  0  0  0  0  0  0  0  0  0
    2.9024   -3.8611   -0.5270 C   0  0  0  0  0  0  0  0  0  0  0  0
    3.1698   -7.7609    2.8522 N   0  0  0  0  0  0  0  0  0  0  0  0
    3.1125   -9.0038    2.0763 C   0  0  0  0  0  0  0  0  0  0  0  0
    2.7981  -10.0889    3.0996 C   0  0  2  0  0  0  0  0  0  0  0  0
    1.2630  -10.3697    3.3182 C   0  0  1  0  0  0  0  0  0  0  0  0
    1.0126  -11.8294    3.7084 C   0  0  0  0  0  0  0  0  0  0  0  0
    0.5794   -9.5915    4.3092 O   0  0  0  0  0  0  0  0  0  0  0  0
    0.6512   -8.2172    4.1955 C   0  0  0  0  0  0  0  0  0  0  0  0
    0.8799   -7.5725    5.5409 C   0  0  0  0  0  0  0  0  0  0  0  0
    0.8552   -7.6654    2.9809 C   0  0  0  0  0  0  0  0  0  0  0  0
    2.0910   -6.9322    2.7595 C   0  0  0  0  0  0  0  0  0  0  0  0
    2.1394   -5.7623    2.4129 O   0  0  0  0  0  0  0  0  0  0  0  0
    6.9095  -11.4424    3.2398 H   0  0  0  0  0  0  0  0  0  0  0  0
    5.4784  -11.1718    2.2391 H   0  0  0  0  0  0  0  0  0  0  0  0
    5.9794  -12.8199    2.5981 H   0  0  0  0  0  0  0  0  0  0  0  0
    5.6495   -9.9430    5.2194 H   0  0  0  0  0  0  0  0  0  0  0  0
    2.8205  -11.0829    5.7823 H   0  0  0  0  0  0  0  0  0  0  0  0
    3.5089   -9.6083    6.5503 H   0  0  0  0  0  0  0  0  0  0  0  0
    6.0994   -6.9504    6.2585 H   0  0  0  0  0  0  0  0  0  0  0  0
    5.2376   -8.4304    6.4872 H   0  0  0  0  0  0  0  0  0  0  0  0
    4.5077   -6.9317    7.0168 H   0  0  0  0  0  0  0  0  0  0  0  0
    4.2726   -5.5583    3.3773 H   0  0  0  0  0  0  0  0  0  0  0  0
    5.4930   -4.8217    6.0452 H   0  0  0  0  0  0  0  0  0  0  0  0
    6.1176   -2.4719    6.2873 H   0  0  0  0  0  0  0  0  0  0  0  0
    4.4386   -1.9947    5.9917 H   0  0  0  0  0  0  0  0  0  0  0  0
    5.7519   -1.2573    5.0904 H   0  0  0  0  0  0  0  0  0  0  0  0
    5.2030   -3.9792    2.5446 H   0  0  0  0  0  0  0  0  0  0  0  0
    5.3981   -0.9310    3.0475 H   0  0  0  0  0  0  0  0  0  0  0  0
    6.2268   -0.1218   -0.0371 H   0  0  0  0  0  0  0  0  0  0  0  0
    5.3177    0.4838    1.3377 H   0  0  0  0  0  0  0  0  0  0  0  0
    4.4673   -0.0443   -0.0871 H   0  0  0  0  0  0  0  0  0  0  0  0
    5.1246   -3.7695    0.5615 H   0  0  0  0  0  0  0  0  0  0  0  0
    7.0977   -2.0867   -0.7543 H   0  0  0  0  0  0  0  0  0  0  0  0
    6.8988   -3.8276   -0.7535 H   0  0  0  0  0  0  0  0  0  0  0  0
    6.3496   -2.9035   -3.1430 H   0  0  0  0  0  0  0  0  0  0  0  0
    2.9110   -1.7204   -3.3584 H   0  0  0  0  0  0  0  0  0  0  0  0
    2.7918   -3.4823   -3.4105 H   0  0  0  0  0  0  0  0  0  0  0  0
    4.0533   -2.6603   -4.3313 H   0  0  0  0  0  0  0  0  0  0  0  0
    3.3207   -1.7805   -0.6616 H   0  0  0  0  0  0  0  0  0  0  0  0
    2.0289   -3.8093   -1.1740 H   0  0  0  0  0  0  0  0  0  0  0  0
    2.5546   -3.8495    0.5028 H   0  0  0  0  0  0  0  0  0  0  0  0
    3.3865   -4.8212   -0.7045 H   0  0  0  0  0  0  0  0  0  0  0  0
    2.4353   -8.9910    1.2213 H   0  0  0  0  0  0  0  0  0  0  0  0
    4.1115   -9.1734    1.6592 H   0  0  0  0  0  0  0  0  0  0  0  0
    3.1879  -10.9925    2.6445 H   0  0  0  0  0  0  0  0  0  0  0  0
    0.7558  -10.2740    2.3622 H   0  0  0  0  0  0  0  0  0  0  0  0
    1.4853  -12.4821    2.9761 H   0  0  0  0  0  0  0  0  0  0  0  0
   -0.0550  -12.0327    3.7072 H   0  0  0  0  0  0  0  0  0  0  0  0
    1.3529  -12.1066    4.7017 H   0  0  0  0  0  0  0  0  0  0  0  0
    1.2706   -6.5615    5.4627 H   0  0  0  0  0  0  0  0  0  0  0  0
    1.5505   -8.1669    6.1590 H   0  0  0  0  0  0  0  0  0  0  0  0
   -0.0739   -7.5186    6.0623 H   0  0  0  0  0  0  0  0  0  0  0  0
    0.5679   -8.2294    2.1120 H   0  0  0  0  0  0  0  0  0  0  0  0
  1  2  1  0
  1 36  1  0
  1 37  1  0
  1 38  1  0
  2  3  2  0
  2  4  1  0
  4  6  1  0
  4  5  1  0
  4 39  1  1
  6  5  1  1
  5 40  1  0
  5 41  1  0
  6 27  1  0
  6  7  1  0
  7  8  2  3
  7 25  1  0
  8  9  1  0
  8 10  1  0
  9 42  1  0
  9 43  1  0
  9 44  1  0
 10 11  2  3
 10 45  1  0
 11 12  1  0
 11 46  1  0
 12 13  1  0
 12 14  2  3
 13 47  1  0
 13 48  1  0
 13 49  1  0
 14 15  1  0
 14 50  1  0
 15 16  2  3
 15 51  1  0
 16 17  1  0
 16 18  1  0
 17 52  1  0
 17 53  1  0
 17 54  1  0
 18 23  1  0
 18 19  1  0
 18 55  1  1
 19 20  1  0
 19 56  1  0
 19 57  1  0
 20 21  2  0
 20 58  1  0
 21 22  1  0
 21 23  1  0
 22 59  1  0
 22 60  1  0
 22 61  1  0
 23 24  1  0
 23 62  1  1
 24 63  1  0
 24 64  1  0
 24 65  1  0
 25 34  1  0
 25 26  1  0
 26 27  1  0
 26 66  1  0
 26 67  1  0
 27 28  1  0
 27 68  1  6
 28 29  1  0
 28 30  1  0
 28 69  1  6
 29 70  1  0
 29 71  1  0
 29 72  1  0
 30 31  1  0
 31 32  1  0
 31 33  2  3
 32 73  1  0
 32 74  1  0
 32 75  1  0
 33 34  1  0
 33 76  1  0
 34 35  2  0
M  END
>  <i_m_ct_stereo_status>  (262) 
1

>  <s_m_source_file>  (262) 
/var/tmp/pbs.5076255.sched01/tmpk9_hntje/1089a46f3po.sdf

>  <i_m_source_file_index>  (262) 
22

>  <i_lp_mmshare_version>  (262) 
48012

>  <i_f3d_flags>  (262) 
0

>  <s_epik_input>  (262) 
W0NIM11DKD1PKVtDQEhdKFtDSDJdMSlbQ0BAXTEyW0NAQEhdM1tDSDJdTihDKD1PKS9bQ0hdPUMoW0NIM10pXE9bQ0BASF0zW0NIM10pQ1wyPUMoXFtDSDNdKS9bQ0hdPVtDSF0vQyhbQ0gzXSk9W0NIXS9bQ0hdPUMoXFtDSDNdKVtDQEBIXTRbQ0gyXVtDSF09QyhbQ0gzXSlbQ0BIXTRbQ0gzXQ==

>  <s_epik_cmdline>  (262) 
J2VwaWtfcHl0aG9uJywgJy1waHQnLCAnMi4wJywgJy1waCcsICc3LjAnLCAnLXRuJywgJzgnLCAnLW1hJywgJzIwMCcsICctaW1hZScsICc8aW5maWxlLm1hZT4nLCAnLW9tYWUnLCAnPG91dGZpbGUubWFlPic=

>  <r_lp_tautomer_probability>  (262) 
1

>  <r_epik_Ionization_Penalty>  (262) 
1.49479e-07

>  <r_epik_Ionization_Penalty_Charging>  (262) 
0

>  <r_epik_Ionization_Penalty_Neutral>  (262) 
1.49479e-07

>  <r_epik_State_Penalty>  (262) 
-0

>  <r_epik_Charging_Adjusted_Penalty>  (262) 
0

>  <i_epik_Tot_Q>  (262) 
0

>  <i_epik_Tot_abs_Q>  (262) 
0

>  <s_lp_Force_Field>  (262) 
OPLS3e

>  <r_lp_Energy>  (262) 
83.063

>  <b_lp_Chiralities_Consistent>  (262) 
1

>  <s_lp_Variant>  (262) 
69:0-25

>  <s_i_glide_gridfile>  (262) 
pfpi4k_grid

>  <i_i_glide_lignum>  (262) 
22

>  <i_i_glide_rotatable_bonds>  (262) 
5

>  <r_i_docking_score>  (262) 
-2.17015

>  <r_i_glide_ligand_efficiency>  (262) 
-0.0620042

>  <r_i_glide_ligand_efficiency_sa>  (262) 
-0.20282

>  <r_i_glide_ligand_efficiency_ln>  (262) 
-0.476395

>  <r_i_glide_gscore>  (262) 
-2.17015

>  <r_i_glide_lipo>  (262) 
-0.889967

>  <r_i_glide_hbond>  (262) 
0

>  <r_i_glide_metal>  (262) 
-0

>  <r_i_glide_rewards>  (262) 
-0.16594

>  <r_i_glide_evdw>  (262) 
-30.9703

>  <r_i_glide_ecoul>  (262) 
0.66139

>  <r_i_glide_erotb>  (262) 
0.357898

>  <r_i_glide_esite>  (262) 
-0.0228299

>  <r_i_glide_emodel>  (262) 
-32.5265

>  <r_i_glide_energy>  (262) 
-30.3089

>  <r_i_glide_einternal>  (262) 
3.7014

>  <r_i_glide_intrahb_reward>  (262) 
-0

>  <i_i_glide_confnum>  (262) 
3

>  <i_i_glide_posenum>  (262) 
2

>  <r_i_glide_eff_state_penalty>  (262) 
0

>  <ligand_id>  (262) 
69

>  <original_smiles>  (262) 
CC(=O)C1CC12C(=C(C)C=CC(C)=CC=C(C)C1CC=C(C)C1C)N1CC2C(C)OC(C)=CC1=O

>  <smiles>  (262) 
[H]C(=C([H])C(=C1N2C(=O)C([H])=C(C([H])([H])[H])OC([H])(C([H])([H])[H])C([H])(C2([H])[H])C12C([H])([H])C2([H])C(=O)C([H])([H])[H])C([H])([H])[H])C(=C([H])C([H])=C(C([H])([H])[H])C1([H])C([H])([H])C([H])=C(C([H])([H])[H])C1([H])C([H])([H])[H])C([H])([H])[H]

$$$$
69:24:1
     RDKit          3D

 76 79  0  0  1  0  0  0  0  0999 V2000
    4.9788   -9.8632    6.9484 C   0  0  0  0  0  0  0  0  0  0  0  0
    3.5998  -10.2700    6.4626 C   0  0  0  0  0  0  0  0  0  0  0  0
    3.4535  -11.3924    5.9957 O   0  0  0  0  0  0  0  0  0  0  0  0
    2.5191   -9.1966    6.4534 C   0  0  2  0  0  0  0  0  0  0  0  0
    1.0835   -9.5885    6.2110 C   0  0  0  0  0  0  0  0  0  0  0  0
    1.8058   -8.8086    5.1436 C   0  0  1  0  0  0  0  0  0  0  0  0
    1.5080   -7.3200    4.8417 C   0  0  0  0  0  0  0  0  0  0  0  0
    1.0723   -6.2870    5.6382 C   0  0  0  0  0  0  0  0  0  0  0  0
    0.7279   -6.4194    7.1178 C   0  0  0  0  0  0  0  0  0  0  0  0
    0.9710   -4.9151    5.0959 C   0  0  0  0  0  0  0  0  0  0  0  0
    0.5025   -3.8178    5.7368 C   0  0  0  0  0  0  0  0  0  0  0  0
    0.4320   -2.4748    5.1700 C   0  0  0  0  0  0  0  0  0  0  0  0
   -0.7171   -1.5914    5.6309 C   0  0  0  0  0  0  0  0  0  0  0  0
    1.3497   -2.0760    4.2575 C   0  0  0  0  0  0  0  0  0  0  0  0
    1.3958   -0.8012    3.5542 C   0  0  0  0  0  0  0  0  0  0  0  0
    2.3246   -0.4208    2.6504 C   0  0  0  0  0  0  0  0  0  0  0  0
    2.2103    0.9428    1.9780 C   0  0  0  0  0  0  0  0  0  0  0  0
    3.5227   -1.2797    2.2016 C   0  0  2  0  0  0  0  0  0  0  0  0
    4.9032   -0.5991    2.3974 C   0  0  0  0  0  0  0  0  0  0  0  0
    5.5414   -0.6594    1.0334 C   0  0  0  0  0  0  0  0  0  0  0  0
    4.7579   -1.2537    0.1308 C   0  0  0  0  0  0  0  0  0  0  0  0
    5.0800   -1.4678   -1.3386 C   0  0  0  0  0  0  0  0  0  0  0  0
    3.4470   -1.7310    0.7061 C   0  0  1  0  0  0  0  0  0  0  0  0
    3.2516   -3.2531    0.5591 C   0  0  0  0  0  0  0  0  0  0  0  0
    1.7879   -7.1726    3.4637 N   0  0  0  0  0  0  0  0  0  0  0  0
    2.7168   -8.2250    3.0471 C   0  0  0  0  0  0  0  0  0  0  0  0
    2.2476   -9.4519    3.8147 C   0  0  2  0  0  0  0  0  0  0  0  0
    1.2053  -10.3648    3.0741 C   0  0  1  0  0  0  0  0  0  0  0  0
    1.3178  -11.8410    3.4680 C   0  0  0  0  0  0  0  0  0  0  0  0
   -0.1920  -10.0521    3.2355 O   0  0  0  0  0  0  0  0  0  0  0  0
   -0.5772   -8.7775    2.9446 C   0  0  0  0  0  0  0  0  0  0  0  0
   -1.5523   -8.2284    3.9751 C   0  0  0  0  0  0  0  0  0  0  0  0
    0.1427   -8.0557    2.0701 C   0  0  0  0  0  0  0  0  0  0  0  0
    0.8238   -6.8744    2.5463 C   0  0  0  0  0  0  0  0  0  0  0  0
    0.6426   -5.7618    2.0769 O   0  0  0  0  0  0  0  0  0  0  0  0
    4.9422   -9.6165    8.0065 H   0  0  0  0  0  0  0  0  0  0  0  0
    5.3320   -9.0026    6.3814 H   0  0  0  0  0  0  0  0  0  0  0  0
    5.6746  -10.6876    6.7900 H   0  0  0  0  0  0  0  0  0  0  0  0
    2.7088   -8.4064    7.1768 H   0  0  0  0  0  0  0  0  0  0  0  0
    0.8752  -10.6340    6.0453 H   0  0  0  0  0  0  0  0  0  0  0  0
    0.2868   -9.1142    6.7762 H   0  0  0  0  0  0  0  0  0  0  0  0
    1.2051   -5.6249    7.6952 H   0  0  0  0  0  0  0  0  0  0  0  0
    1.0333   -7.3412    7.5854 H   0  0  0  0  0  0  0  0  0  0  0  0
   -0.3500   -6.3362    7.2493 H   0  0  0  0  0  0  0  0  0  0  0  0
    1.3410   -4.7376    4.1033 H   0  0  0  0  0  0  0  0  0  0  0  0
    0.1466   -3.9183    6.7507 H   0  0  0  0  0  0  0  0  0  0  0  0
   -0.8113   -1.6603    6.7150 H   0  0  0  0  0  0  0  0  0  0  0  0
   -1.6512   -1.9186    5.1747 H   0  0  0  0  0  0  0  0  0  0  0  0
   -0.5939   -0.5416    5.3905 H   0  0  0  0  0  0  0  0  0  0  0  0
    2.1226   -2.7875    4.0414 H   0  0  0  0  0  0  0  0  0  0  0  0
    0.6320   -0.0726    3.7542 H   0  0  0  0  0  0  0  0  0  0  0  0
    3.0466    1.5932    2.2236 H   0  0  0  0  0  0  0  0  0  0  0  0
    1.2995    1.4615    2.2716 H   0  0  0  0  0  0  0  0  0  0  0  0
    2.1755    0.8410    0.8918 H   0  0  0  0  0  0  0  0  0  0  0  0
    3.5884   -2.1866    2.7929 H   0  0  0  0  0  0  0  0  0  0  0  0
    4.8516    0.4283    2.7524 H   0  0  0  0  0  0  0  0  0  0  0  0
    5.5155   -1.1519    3.1079 H   0  0  0  0  0  0  0  0  0  0  0  0
    6.5240   -0.2609    0.8483 H   0  0  0  0  0  0  0  0  0  0  0  0
    4.3306   -0.9828   -1.9642 H   0  0  0  0  0  0  0  0  0  0  0  0
    5.0915   -2.5311   -1.5752 H   0  0  0  0  0  0  0  0  0  0  0  0
    6.0532   -1.0589   -1.5824 H   0  0  0  0  0  0  0  0  0  0  0  0
    2.6341   -1.2254    0.1780 H   0  0  0  0  0  0  0  0  0  0  0  0
    3.2270   -3.5465   -0.4882 H   0  0  0  0  0  0  0  0  0  0  0  0
    2.3179   -3.5744    1.0166 H   0  0  0  0  0  0  0  0  0  0  0  0
    4.0674   -3.7874    1.0395 H   0  0  0  0  0  0  0  0  0  0  0  0
    2.8177   -8.3923    1.9749 H   0  0  0  0  0  0  0  0  0  0  0  0
    3.7035   -7.9350    3.4030 H   0  0  0  0  0  0  0  0  0  0  0  0
    3.1664  -10.0334    3.8532 H   0  0  0  0  0  0  0  0  0  0  0  0
    1.4538  -10.3536    2.0182 H   0  0  0  0  0  0  0  0  0  0  0  0
    2.3490  -12.1926    3.3867 H   0  0  0  0  0  0  0  0  0  0  0  0
    0.7057  -12.4509    2.8025 H   0  0  0  0  0  0  0  0  0  0  0  0
    0.9791  -12.0728    4.4776 H   0  0  0  0  0  0  0  0  0  0  0  0
   -1.6217   -7.1400    3.9711 H   0  0  0  0  0  0  0  0  0  0  0  0
   -1.2889   -8.5729    4.9678 H   0  0  0  0  0  0  0  0  0  0  0  0
   -2.5381   -8.6250    3.7479 H   0  0  0  0  0  0  0  0  0  0  0  0
    0.7211   -8.5762    1.3166 H   0  0  0  0  0  0  0  0  0  0  0  0
  1  2  1  0
  1 36  1  0
  1 37  1  0
  1 38  1  0
  2  3  2  0
  2  4  1  0
  4  6  1  0
  4  5  1  0
  4 39  1  1
  6  5  1  1
  5 40  1  0
  5 41  1  0
  6 27  1  0
  6  7  1  0
  7  8  2  3
  7 25  1  0
  8  9  1  0
  8 10  1  0
  9 42  1  0
  9 43  1  0
  9 44  1  0
 10 11  2  3
 10 45  1  0
 11 12  1  0
 11 46  1  0
 12 13  1  0
 12 14  2  3
 13 47  1  0
 13 48  1  0
 13 49  1  0
 14 15  1  0
 14 50  1  0
 15 16  2  3
 15 51  1  0
 16 17  1  0
 16 18  1  0
 17 52  1  0
 17 53  1  0
 17 54  1  0
 18 23  1  0
 18 19  1  0
 18 55  1  1
 19 20  1  0
 19 56  1  0
 19 57  1  0
 20 21  2  0
 20 58  1  0
 21 22  1  0
 21 23  1  0
 22 59  1  0
 22 60  1  0
 22 61  1  0
 23 24  1  0
 23 62  1  6
 24 63  1  0
 24 64  1  0
 24 65  1  0
 25 34  1  0
 25 26  1  0
 26 27  1  0
 26 66  1  0
 26 67  1  0
 27 28  1  0
 27 68  1  1
 28 29  1  0
 28 30  1  0
 28 69  1  6
 29 70  1  0
 29 71  1  0
 29 72  1  0
 30 31  1  0
 31 32  1  0
 31 33  2  3
 32 73  1  0
 32 74  1  0
 32 75  1  0
 33 34  1  0
 33 76  1  0
 34 35  2  0
M  END
>  <i_m_ct_stereo_status>  (263) 
1

>  <s_m_source_file>  (263) 
/var/tmp/pbs.5076255.sched01/tmpk9_hntje/1089a46f3po.sdf

>  <i_m_source_file_index>  (263) 
22

>  <i_lp_mmshare_version>  (263) 
48012

>  <i_f3d_flags>  (263) 
0

>  <s_epik_input>  (263) 
W0NIM11DKD1PKVtDQEhdKFtDSDJdMSlbQ0BAXTEyW0NAQEhdM1tDSDJdTihDKD1PKS9bQ0hdPUMoW0NIM10pXE9bQ0BASF0zW0NIM10pQ1wyPUMoXFtDSDNdKS9bQ0hdPVtDSF0vQyhbQ0gzXSk9W0NIXS9bQ0hdPUMoXFtDSDNdKVtDQEBIXTRbQ0gyXVtDSF09QyhbQ0gzXSlbQ0BIXTRbQ0gzXQ==

>  <s_epik_cmdline>  (263) 
J2VwaWtfcHl0aG9uJywgJy1waHQnLCAnMi4wJywgJy1waCcsICc3LjAnLCAnLXRuJywgJzgnLCAnLW1hJywgJzIwMCcsICctaW1hZScsICc8aW5maWxlLm1hZT4nLCAnLW9tYWUnLCAnPG91dGZpbGUubWFlPic=

>  <r_lp_tautomer_probability>  (263) 
1

>  <r_epik_Ionization_Penalty>  (263) 
1.49479e-07

>  <r_epik_Ionization_Penalty_Charging>  (263) 
0

>  <r_epik_Ionization_Penalty_Neutral>  (263) 
1.49479e-07

>  <r_epik_State_Penalty>  (263) 
-0

>  <r_epik_Charging_Adjusted_Penalty>  (263) 
0

>  <i_epik_Tot_Q>  (263) 
0

>  <i_epik_Tot_abs_Q>  (263) 
0

>  <s_lp_Force_Field>  (263) 
OPLS3e

>  <r_lp_Energy>  (263) 
83.063

>  <b_lp_Chiralities_Consistent>  (263) 
1

>  <s_lp_Variant>  (263) 
69:0-25

>  <s_i_glide_gridfile>  (263) 
pfpi4k_grid

>  <i_i_glide_lignum>  (263) 
22

>  <i_i_glide_rotatable_bonds>  (263) 
5

>  <r_i_docking_score>  (263) 
-2.1521

>  <r_i_glide_ligand_efficiency>  (263) 
-0.0614887

>  <r_i_glide_ligand_efficiency_sa>  (263) 
-0.201133

>  <r_i_glide_ligand_efficiency_ln>  (263) 
-0.472434

>  <r_i_glide_gscore>  (263) 
-2.1521

>  <r_i_glide_lipo>  (263) 
-0.408686

>  <r_i_glide_hbond>  (263) 
-0.157314

>  <r_i_glide_metal>  (263) 
-0

>  <r_i_glide_rewards>  (263) 
-0.16594

>  <r_i_glide_evdw>  (263) 
-31.0708

>  <r_i_glide_ecoul>  (263) 
-0.755782

>  <r_i_glide_erotb>  (263) 
0.357898

>  <r_i_glide_esite>  (263) 
-0.111154

>  <r_i_glide_emodel>  (263) 
-33.8965

>  <r_i_glide_energy>  (263) 
-31.8266

>  <r_i_glide_einternal>  (263) 
3.59924

>  <r_i_glide_intrahb_reward>  (263) 
-0

>  <i_i_glide_confnum>  (263) 
3

>  <i_i_glide_posenum>  (263) 
1

>  <r_i_glide_eff_state_penalty>  (263) 
0

>  <ligand_id>  (263) 
69

>  <original_smiles>  (263) 
CC(=O)C1CC12C(=C(C)C=CC(C)=CC=C(C)C1CC=C(C)C1C)N1CC2C(C)OC(C)=CC1=O

>  <smiles>  (263) 
[H]C(=C([H])C(=C1N2C(=O)C([H])=C(C([H])([H])[H])OC([H])(C([H])([H])[H])C([H])(C2([H])[H])C12C([H])([H])C2([H])C(=O)C([H])([H])[H])C([H])([H])[H])C(=C([H])C([H])=C(C([H])([H])[H])C1([H])C([H])([H])C([H])=C(C([H])([H])[H])C1([H])C([H])([H])[H])C([H])([H])[H]

$$$$
69:24:2
     RDKit          3D

 76 79  0  0  1  0  0  0  0  0999 V2000
    3.8842  -11.8131    6.1989 C   0  0  0  0  0  0  0  0  0  0  0  0
    4.2320  -10.3466    5.9937 C   0  0  0  0  0  0  0  0  0  0  0  0
    5.3717  -10.0280    5.6479 O   0  0  0  0  0  0  0  0  0  0  0  0
    3.1693   -9.2833    6.1860 C   0  0  2  0  0  0  0  0  0  0  0  0
    1.7076   -9.6605    6.0804 C   0  0  0  0  0  0  0  0  0  0  0  0
    2.3314   -8.8340    4.9732 C   0  0  1  0  0  0  0  0  0  0  0  0
    2.0206   -7.3470    4.7451 C   0  0  0  0  0  0  0  0  0  0  0  0
    1.6669   -6.3361    5.6098 C   0  0  0  0  0  0  0  0  0  0  0  0
    1.4777   -6.5291    7.1145 C   0  0  0  0  0  0  0  0  0  0  0  0
    1.5231   -4.9566    5.1257 C   0  0  0  0  0  0  0  0  0  0  0  0
    1.0830   -3.8949    5.8356 C   0  0  0  0  0  0  0  0  0  0  0  0
    0.9560   -2.5357    5.3158 C   0  0  0  0  0  0  0  0  0  0  0  0
   -0.1653   -1.6790    5.8875 C   0  0  0  0  0  0  0  0  0  0  0  0
    1.8090   -2.0957    4.3609 C   0  0  0  0  0  0  0  0  0  0  0  0
    1.7961   -0.7960    3.7001 C   0  0  0  0  0  0  0  0  0  0  0  0
    2.6170   -0.4017    2.6996 C   0  0  0  0  0  0  0  0  0  0  0  0
    2.4481    0.9890    2.0920 C   0  0  0  0  0  0  0  0  0  0  0  0
    3.7344   -1.2653    2.0833 C   0  0  2  0  0  0  0  0  0  0  0  0
    5.1423   -0.6291    2.1600 C   0  0  0  0  0  0  0  0  0  0  0  0
    5.6206   -0.6346    0.7328 C   0  0  0  0  0  0  0  0  0  0  0  0
    4.7312   -1.1627   -0.1081 C   0  0  0  0  0  0  0  0  0  0  0  0
    4.8786   -1.3065   -1.6085 C   0  0  0  0  0  0  0  0  0  0  0  0
    3.4802   -1.6283    0.5884 C   0  0  1  0  0  0  0  0  0  0  0  0
    3.2343   -3.1314    0.3905 C   0  0  0  0  0  0  0  0  0  0  0  0
    2.1556   -7.1738    3.3409 N   0  0  0  0  0  0  0  0  0  0  0  0
    3.0338   -8.2176    2.8160 C   0  0  0  0  0  0  0  0  0  0  0  0
    2.6365   -9.4650    3.6045 C   0  0  2  0  0  0  0  0  0  0  0  0
    1.5081  -10.3377    2.9327 C   0  0  1  0  0  0  0  0  0  0  0  0
    1.6457  -11.8292    3.2758 C   0  0  0  0  0  0  0  0  0  0  0  0
    0.1408  -10.0186    3.2449 O   0  0  0  0  0  0  0  0  0  0  0  0
   -0.2667   -8.7304    3.0264 C   0  0  0  0  0  0  0  0  0  0  0  0
   -1.1261   -8.2327    4.1720 C   0  0  0  0  0  0  0  0  0  0  0  0
    0.3505   -7.9674    2.0987 C   0  0  0  0  0  0  0  0  0  0  0  0
    1.1077   -6.8161    2.5434 C   0  0  0  0  0  0  0  0  0  0  0  0
    0.9134   -5.6789    2.1403 O   0  0  0  0  0  0  0  0  0  0  0  0
    3.0828  -12.1070    5.5268 H   0  0  0  0  0  0  0  0  0  0  0  0
    3.5393  -11.9908    7.2191 H   0  0  0  0  0  0  0  0  0  0  0  0
    4.7326  -12.4649    5.9864 H   0  0  0  0  0  0  0  0  0  0  0  0
    3.4440   -8.5275    6.9246 H   0  0  0  0  0  0  0  0  0  0  0  0
    1.4507  -10.6880    5.8574 H   0  0  0  0  0  0  0  0  0  0  0  0
    0.9934   -9.1858    6.7491 H   0  0  0  0  0  0  0  0  0  0  0  0
    2.0114   -5.7469    7.6564 H   0  0  0  0  0  0  0  0  0  0  0  0
    1.8384   -7.4565    7.5281 H   0  0  0  0  0  0  0  0  0  0  0  0
    0.4205   -6.4492    7.3631 H   0  0  0  0  0  0  0  0  0  0  0  0
    1.8266   -4.7546    4.1137 H   0  0  0  0  0  0  0  0  0  0  0  0
    0.7942   -4.0401    6.8652 H   0  0  0  0  0  0  0  0  0  0  0  0
   -0.1863   -1.7846    6.9747 H   0  0  0  0  0  0  0  0  0  0  0  0
   -1.1226   -2.0072    5.4895 H   0  0  0  0  0  0  0  0  0  0  0  0
   -0.0615   -0.6180    5.6807 H   0  0  0  0  0  0  0  0  0  0  0  0
    2.5740   -2.7895    4.0647 H   0  0  0  0  0  0  0  0  0  0  0  0
    1.0729   -0.0655    4.0170 H   0  0  0  0  0  0  0  0  0  0  0  0
    3.3259    1.6084    2.2632 H   0  0  0  0  0  0  0  0  0  0  0  0
    1.5934    1.5127    2.5170 H   0  0  0  0  0  0  0  0  0  0  0  0
    2.2812    0.9318    1.0172 H   0  0  0  0  0  0  0  0  0  0  0  0
    3.8313   -2.2030    2.6221 H   0  0  0  0  0  0  0  0  0  0  0  0
    5.1459    0.3790    2.5665 H   0  0  0  0  0  0  0  0  0  0  0  0
    5.8147   -1.2260    2.7724 H   0  0  0  0  0  0  0  0  0  0  0  0
    6.5914   -0.2407    0.4650 H   0  0  0  0  0  0  0  0  0  0  0  0
    4.0787   -0.7741   -2.1237 H   0  0  0  0  0  0  0  0  0  0  0  0
    4.8419   -2.3557   -1.9010 H   0  0  0  0  0  0  0  0  0  0  0  0
    5.8259   -0.8940   -1.9443 H   0  0  0  0  0  0  0  0  0  0  0  0
    2.6290   -1.0861    0.1813 H   0  0  0  0  0  0  0  0  0  0  0  0
    3.0839   -3.3765   -0.6604 H   0  0  0  0  0  0  0  0  0  0  0  0
    2.3459   -3.4599    0.9303 H   0  0  0  0  0  0  0  0  0  0  0  0
    4.0780   -3.7180    0.7508 H   0  0  0  0  0  0  0  0  0  0  0  0
    3.0171   -8.3515    1.7307 H   0  0  0  0  0  0  0  0  0  0  0  0
    4.0571   -7.9358    3.0681 H   0  0  0  0  0  0  0  0  0  0  0  0
    3.5346  -10.0773    3.5792 H   0  0  0  0  0  0  0  0  0  0  0  0
    1.6516  -10.2752    1.8548 H   0  0  0  0  0  0  0  0  0  0  0  0
    2.6613  -12.1870    3.0793 H   0  0  0  0  0  0  0  0  0  0  0  0
    0.9824  -12.4069    2.6325 H   0  0  0  0  0  0  0  0  0  0  0  0
    1.3683  -12.0850    4.2969 H   0  0  0  0  0  0  0  0  0  0  0  0
   -1.1893   -7.1459    4.2112 H   0  0  0  0  0  0  0  0  0  0  0  0
   -0.7608   -8.6045    5.1272 H   0  0  0  0  0  0  0  0  0  0  0  0
   -2.1364   -8.6209    4.0429 H   0  0  0  0  0  0  0  0  0  0  0  0
    0.8608   -8.4770    1.2945 H   0  0  0  0  0  0  0  0  0  0  0  0
  1  2  1  0
  1 36  1  0
  1 37  1  0
  1 38  1  0
  2  3  2  0
  2  4  1  0
  4  6  1  0
  4  5  1  0
  4 39  1  1
  6  5  1  1
  5 40  1  0
  5 41  1  0
  6 27  1  0
  6  7  1  0
  7  8  2  3
  7 25  1  0
  8  9  1  0
  8 10  1  0
  9 42  1  0
  9 43  1  0
  9 44  1  0
 10 11  2  3
 10 45  1  0
 11 12  1  0
 11 46  1  0
 12 13  1  0
 12 14  2  3
 13 47  1  0
 13 48  1  0
 13 49  1  0
 14 15  1  0
 14 50  1  0
 15 16  2  3
 15 51  1  0
 16 17  1  0
 16 18  1  0
 17 52  1  0
 17 53  1  0
 17 54  1  0
 18 23  1  0
 18 19  1  0
 18 55  1  1
 19 20  1  0
 19 56  1  0
 19 57  1  0
 20 21  2  0
 20 58  1  0
 21 22  1  0
 21 23  1  0
 22 59  1  0
 22 60  1  0
 22 61  1  0
 23 24  1  0
 23 62  1  6
 24 63  1  0
 24 64  1  0
 24 65  1  0
 25 34  1  0
 25 26  1  0
 26 27  1  0
 26 66  1  0
 26 67  1  0
 27 28  1  0
 27 68  1  1
 28 29  1  0
 28 30  1  0
 28 69  1  6
 29 70  1  0
 29 71  1  0
 29 72  1  0
 30 31  1  0
 31 32  1  0
 31 33  2  3
 32 73  1  0
 32 74  1  0
 32 75  1  0
 33 34  1  0
 33 76  1  0
 34 35  2  0
M  END
>  <i_m_ct_stereo_status>  (264) 
1

>  <s_m_source_file>  (264) 
/var/tmp/pbs.5076255.sched01/tmpk9_hntje/1089a46f3po.sdf

>  <i_m_source_file_index>  (264) 
22

>  <i_lp_mmshare_version>  (264) 
48012

>  <i_f3d_flags>  (264) 
0

>  <s_epik_input>  (264) 
W0NIM11DKD1PKVtDQEhdKFtDSDJdMSlbQ0BAXTEyW0NAQEhdM1tDSDJdTihDKD1PKS9bQ0hdPUMoW0NIM10pXE9bQ0BASF0zW0NIM10pQ1wyPUMoXFtDSDNdKS9bQ0hdPVtDSF0vQyhbQ0gzXSk9W0NIXS9bQ0hdPUMoXFtDSDNdKVtDQEBIXTRbQ0gyXVtDSF09QyhbQ0gzXSlbQ0BIXTRbQ0gzXQ==

>  <s_epik_cmdline>  (264) 
J2VwaWtfcHl0aG9uJywgJy1waHQnLCAnMi4wJywgJy1waCcsICc3LjAnLCAnLXRuJywgJzgnLCAnLW1hJywgJzIwMCcsICctaW1hZScsICc8aW5maWxlLm1hZT4nLCAnLW9tYWUnLCAnPG91dGZpbGUubWFlPic=

>  <r_lp_tautomer_probability>  (264) 
1

>  <r_epik_Ionization_Penalty>  (264) 
1.49479e-07

>  <r_epik_Ionization_Penalty_Charging>  (264) 
0

>  <r_epik_Ionization_Penalty_Neutral>  (264) 
1.49479e-07

>  <r_epik_State_Penalty>  (264) 
-0

>  <r_epik_Charging_Adjusted_Penalty>  (264) 
0

>  <i_epik_Tot_Q>  (264) 
0

>  <i_epik_Tot_abs_Q>  (264) 
0

>  <s_lp_Force_Field>  (264) 
OPLS3e

>  <r_lp_Energy>  (264) 
83.063

>  <b_lp_Chiralities_Consistent>  (264) 
1

>  <s_lp_Variant>  (264) 
69:0-25

>  <s_i_glide_gridfile>  (264) 
pfpi4k_grid

>  <i_i_glide_lignum>  (264) 
22

>  <i_i_glide_rotatable_bonds>  (264) 
5

>  <r_i_docking_score>  (264) 
-2.15098

>  <r_i_glide_ligand_efficiency>  (264) 
-0.0614566

>  <r_i_glide_ligand_efficiency_sa>  (264) 
-0.201029

>  <r_i_glide_ligand_efficiency_ln>  (264) 
-0.472188

>  <r_i_glide_gscore>  (264) 
-2.15098

>  <r_i_glide_lipo>  (264) 
-0.387909

>  <r_i_glide_hbond>  (264) 
-0.0967622

>  <r_i_glide_metal>  (264) 
-0

>  <r_i_glide_rewards>  (264) 
-0.16594

>  <r_i_glide_evdw>  (264) 
-29.0598

>  <r_i_glide_ecoul>  (264) 
-2.28296

>  <r_i_glide_erotb>  (264) 
0.357898

>  <r_i_glide_esite>  (264) 
-0.0628333

>  <r_i_glide_emodel>  (264) 
-33.0881

>  <r_i_glide_energy>  (264) 
-31.3428

>  <r_i_glide_einternal>  (264) 
4.77406

>  <r_i_glide_intrahb_reward>  (264) 
-0

>  <i_i_glide_confnum>  (264) 
3

>  <i_i_glide_posenum>  (264) 
31

>  <r_i_glide_eff_state_penalty>  (264) 
0

>  <ligand_id>  (264) 
69

>  <original_smiles>  (264) 
CC(=O)C1CC12C(=C(C)C=CC(C)=CC=C(C)C1CC=C(C)C1C)N1CC2C(C)OC(C)=CC1=O

>  <smiles>  (264) 
[H]C(=C([H])C(=C1N2C(=O)C([H])=C(C([H])([H])[H])OC([H])(C([H])([H])[H])C([H])(C2([H])[H])C12C([H])([H])C2([H])C(=O)C([H])([H])[H])C([H])([H])[H])C(=C([H])C([H])=C(C([H])([H])[H])C1([H])C([H])([H])C([H])=C(C([H])([H])[H])C1([H])C([H])([H])[H])C([H])([H])[H]

$$$$
69:25:0
     RDKit          3D

 76 79  0  0  1  0  0  0  0  0999 V2000
    4.3322   -6.7205    7.9514 C   0  0  0  0  0  0  0  0  0  0  0  0
    3.5046   -5.9993    6.8992 C   0  0  0  0  0  0  0  0  0  0  0  0
    2.7506   -5.0849    7.2394 O   0  0  0  0  0  0  0  0  0  0  0  0
    3.5868   -6.5018    5.4754 C   0  0  2  0  0  0  0  0  0  0  0  0
    2.7295   -5.8257    4.4207 C   0  0  0  0  0  0  0  0  0  0  0  0
    2.3856   -7.2466    4.8612 C   0  0  1  0  0  0  0  0  0  0  0  0
    2.6220   -8.5047    4.0020 C   0  0  0  0  0  0  0  0  0  0  0  0
    3.5817   -8.8253    3.0817 C   0  0  0  0  0  0  0  0  0  0  0  0
    3.6380  -10.2196    2.4798 C   0  0  0  0  0  0  0  0  0  0  0  0
    4.6319   -7.8699    2.6686 C   0  0  0  0  0  0  0  0  0  0  0  0
    5.5993   -8.1158    1.7634 C   0  0  0  0  0  0  0  0  0  0  0  0
    6.6018   -7.1250    1.3987 C   0  0  0  0  0  0  0  0  0  0  0  0
    8.0527   -7.5384    1.5166 C   0  0  0  0  0  0  0  0  0  0  0  0
    6.2027   -5.9083    0.9825 C   0  0  0  0  0  0  0  0  0  0  0  0
    7.0764   -4.8218    0.5633 C   0  0  0  0  0  0  0  0  0  0  0  0
    6.6950   -3.6116    0.0835 C   0  0  0  0  0  0  0  0  0  0  0  0
    7.7698   -2.5940   -0.2592 C   0  0  0  0  0  0  0  0  0  0  0  0
    5.2270   -3.1868   -0.1340 C   0  0  2  0  0  0  0  0  0  0  0  0
    4.3958   -4.2106   -0.9612 C   0  0  0  0  0  0  0  0  0  0  0  0
    3.7710   -3.4082   -2.0669 C   0  0  0  0  0  0  0  0  0  0  0  0
    4.0822   -2.1252   -2.0030 C   0  0  0  0  0  0  0  0  0  0  0  0
    3.7022   -1.0566   -3.0096 C   0  0  0  0  0  0  0  0  0  0  0  0
    4.9752   -1.7988   -0.8291 C   0  0  1  0  0  0  0  0  0  0  0  0
    4.3410   -0.7817    0.1262 C   0  0  0  0  0  0  0  0  0  0  0  0
    1.5636   -9.3904    4.3532 N   0  0  0  0  0  0  0  0  0  0  0  0
    1.1101   -9.0509    5.6990 C   0  0  0  0  0  0  0  0  0  0  0  0
    1.1533   -7.5139    5.7314 C   0  0  2  0  0  0  0  0  0  0  0  0
   -0.1806   -6.7918    5.3165 C   0  0  1  0  0  0  0  0  0  0  0  0
   -0.3730   -5.4696    6.0747 C   0  0  0  0  0  0  0  0  0  0  0  0
   -0.4120   -6.5221    3.9194 O   0  0  0  0  0  0  0  0  0  0  0  0
   -0.2682   -7.5759    3.0500 C   0  0  0  0  0  0  0  0  0  0  0  0
    0.5069   -7.1487    1.8112 C   0  0  0  0  0  0  0  0  0  0  0  0
   -0.4981   -8.8343    3.4533 C   0  0  0  0  0  0  0  0  0  0  0  0
    0.6275   -9.7783    3.4681 C   0  0  0  0  0  0  0  0  0  0  0  0
    0.6507  -10.8140    2.8104 O   0  0  0  0  0  0  0  0  0  0  0  0
    4.0674   -7.7786    7.9566 H   0  0  0  0  0  0  0  0  0  0  0  0
    4.1287   -6.3203    8.9475 H   0  0  0  0  0  0  0  0  0  0  0  0
    5.3988   -6.6275    7.7460 H   0  0  0  0  0  0  0  0  0  0  0  0
    4.5837   -6.8375    5.1800 H   0  0  0  0  0  0  0  0  0  0  0  0
    2.0915   -5.0180    4.7399 H   0  0  0  0  0  0  0  0  0  0  0  0
    3.1232   -5.6707    3.4234 H   0  0  0  0  0  0  0  0  0  0  0  0
    4.6601  -10.5907    2.3781 H   0  0  0  0  0  0  0  0  0  0  0  0
    3.1824  -10.2178    1.4869 H   0  0  0  0  0  0  0  0  0  0  0  0
    3.1325  -10.9910    3.0757 H   0  0  0  0  0  0  0  0  0  0  0  0
    4.6815   -6.9075    3.1027 H   0  0  0  0  0  0  0  0  0  0  0  0
    5.6703   -9.0639    1.2532 H   0  0  0  0  0  0  0  0  0  0  0  0
    8.2178   -8.0937    2.4442 H   0  0  0  0  0  0  0  0  0  0  0  0
    8.7529   -6.7070    1.5222 H   0  0  0  0  0  0  0  0  0  0  0  0
    8.3213   -8.1850    0.6834 H   0  0  0  0  0  0  0  0  0  0  0  0
    5.1384   -5.7457    0.9558 H   0  0  0  0  0  0  0  0  0  0  0  0
    8.1382   -4.9591    0.6386 H   0  0  0  0  0  0  0  0  0  0  0  0
    7.6027   -1.6717    0.2907 H   0  0  0  0  0  0  0  0  0  0  0  0
    7.7644   -2.4032   -1.3280 H   0  0  0  0  0  0  0  0  0  0  0  0
    8.7750   -2.9431   -0.0031 H   0  0  0  0  0  0  0  0  0  0  0  0
    4.8067   -3.1641    0.8681 H   0  0  0  0  0  0  0  0  0  0  0  0
    4.9960   -5.0225   -1.3944 H   0  0  0  0  0  0  0  0  0  0  0  0
    3.5950   -4.6665   -0.3741 H   0  0  0  0  0  0  0  0  0  0  0  0
    3.1693   -3.8619   -2.8416 H   0  0  0  0  0  0  0  0  0  0  0  0
    3.1232   -0.2832   -2.5189 H   0  0  0  0  0  0  0  0  0  0  0  0
    3.1060   -1.4778   -3.8143 H   0  0  0  0  0  0  0  0  0  0  0  0
    4.5934   -0.6015   -3.4348 H   0  0  0  0  0  0  0  0  0  0  0  0
    5.8450   -1.3326   -1.2975 H   0  0  0  0  0  0  0  0  0  0  0  0
    4.2142    0.1667   -0.3805 H   0  0  0  0  0  0  0  0  0  0  0  0
    4.9962   -0.5934    0.9797 H   0  0  0  0  0  0  0  0  0  0  0  0
    3.3659   -1.1020    0.4940 H   0  0  0  0  0  0  0  0  0  0  0  0
    0.1463   -9.4851    5.9939 H   0  0  0  0  0  0  0  0  0  0  0  0
    1.8357   -9.4517    6.3955 H   0  0  0  0  0  0  0  0  0  0  0  0
    1.2978   -7.3035    6.7888 H   0  0  0  0  0  0  0  0  0  0  0  0
   -0.9938   -7.4221    5.6721 H   0  0  0  0  0  0  0  0  0  0  0  0
   -0.2072   -5.5765    7.1470 H   0  0  0  0  0  0  0  0  0  0  0  0
   -1.3930   -5.1199    5.9695 H   0  0  0  0  0  0  0  0  0  0  0  0
    0.2587   -4.6629    5.7089 H   0  0  0  0  0  0  0  0  0  0  0  0
    0.9164   -8.0029    1.2651 H   0  0  0  0  0  0  0  0  0  0  0  0
    1.3135   -6.4689    2.0554 H   0  0  0  0  0  0  0  0  0  0  0  0
   -0.1711   -6.6378    1.1351 H   0  0  0  0  0  0  0  0  0  0  0  0
   -1.1473   -8.9963    4.3152 H   0  0  0  0  0  0  0  0  0  0  0  0
  1  2  1  0
  1 36  1  0
  1 37  1  0
  1 38  1  0
  2  3  2  0
  2  4  1  0
  4  6  1  0
  4  5  1  0
  4 39  1  6
  6  5  1  6
  5 40  1  0
  5 41  1  0
  6 27  1  0
  6  7  1  0
  7  8  2  3
  7 25  1  0
  8  9  1  0
  8 10  1  0
  9 42  1  0
  9 43  1  0
  9 44  1  0
 10 11  2  3
 10 45  1  0
 11 12  1  0
 11 46  1  0
 12 13  1  0
 12 14  2  3
 13 47  1  0
 13 48  1  0
 13 49  1  0
 14 15  1  0
 14 50  1  0
 15 16  2  3
 15 51  1  0
 16 17  1  0
 16 18  1  0
 17 52  1  0
 17 53  1  0
 17 54  1  0
 18 23  1  0
 18 19  1  0
 18 55  1  1
 19 20  1  0
 19 56  1  0
 19 57  1  0
 20 21  2  0
 20 58  1  0
 21 22  1  0
 21 23  1  0
 22 59  1  0
 22 60  1  0
 22 61  1  0
 23 24  1  0
 23 62  1  6
 24 63  1  0
 24 64  1  0
 24 65  1  0
 25 34  1  0
 25 26  1  0
 26 27  1  0
 26 66  1  0
 26 67  1  0
 27 28  1  0
 27 68  1  1
 28 29  1  0
 28 30  1  0
 28 69  1  1
 29 70  1  0
 29 71  1  0
 29 72  1  0
 30 31  1  0
 31 32  1  0
 31 33  2  3
 32 73  1  0
 32 74  1  0
 32 75  1  0
 33 34  1  0
 33 76  1  0
 34 35  2  0
M  END
>  <i_m_ct_stereo_status>  (265) 
1

>  <s_m_source_file>  (265) 
/var/tmp/pbs.5076255.sched01/tmpk9_hntje/1089a46f3po.sdf

>  <i_m_source_file_index>  (265) 
23

>  <i_lp_mmshare_version>  (265) 
48012

>  <i_f3d_flags>  (265) 
0

>  <s_epik_input>  (265) 
W0NIM11DKD1PKVtDQEhdKFtDSDJdMSlbQ0BAXTEyW0NAQEhdM1tDSDJdTihDKD1PKS9bQ0hdPUMoW0NIM10pXE9bQ0BASF0zW0NIM10pQ1wyPUMoXFtDSDNdKS9bQ0hdPVtDSF0vQyhbQ0gzXSk9W0NIXS9bQ0hdPUMoXFtDSDNdKVtDQEBIXTRbQ0gyXVtDSF09QyhbQ0gzXSlbQ0BIXTRbQ0gzXQ==

>  <s_epik_cmdline>  (265) 
J2VwaWtfcHl0aG9uJywgJy1waHQnLCAnMi4wJywgJy1waCcsICc3LjAnLCAnLXRuJywgJzgnLCAnLW1hJywgJzIwMCcsICctaW1hZScsICc8aW5maWxlLm1hZT4nLCAnLW9tYWUnLCAnPG91dGZpbGUubWFlPic=

>  <r_lp_tautomer_probability>  (265) 
1

>  <r_epik_Ionization_Penalty>  (265) 
1.49479e-07

>  <r_epik_Ionization_Penalty_Charging>  (265) 
0

>  <r_epik_Ionization_Penalty_Neutral>  (265) 
1.49479e-07

>  <r_epik_State_Penalty>  (265) 
-0

>  <r_epik_Charging_Adjusted_Penalty>  (265) 
0

>  <i_epik_Tot_Q>  (265) 
0

>  <i_epik_Tot_abs_Q>  (265) 
0

>  <s_lp_Force_Field>  (265) 
OPLS3e

>  <r_lp_Energy>  (265) 
82.2388

>  <b_lp_Chiralities_Consistent>  (265) 
1

>  <s_lp_Variant>  (265) 
69:0-26

>  <s_i_glide_gridfile>  (265) 
pfpi4k_grid

>  <i_i_glide_lignum>  (265) 
23

>  <i_i_glide_rotatable_bonds>  (265) 
5

>  <r_i_docking_score>  (265) 
-2.30163

>  <r_i_glide_ligand_efficiency>  (265) 
-0.0657609

>  <r_i_glide_ligand_efficiency_sa>  (265) 
-0.215108

>  <r_i_glide_ligand_efficiency_ln>  (265) 
-0.505259

>  <r_i_glide_gscore>  (265) 
-2.30163

>  <r_i_glide_lipo>  (265) 
-0.599489

>  <r_i_glide_hbond>  (265) 
-0.0423953

>  <r_i_glide_metal>  (265) 
-0

>  <r_i_glide_rewards>  (265) 
-0.16594

>  <r_i_glide_evdw>  (265) 
-33.4996

>  <r_i_glide_ecoul>  (265) 
-0.951243

>  <r_i_glide_erotb>  (265) 
0.357898

>  <r_i_glide_esite>  (265) 
-0.0340407

>  <r_i_glide_emodel>  (265) 
-33.4052

>  <r_i_glide_energy>  (265) 
-34.4508

>  <r_i_glide_einternal>  (265) 
10.591

>  <r_i_glide_intrahb_reward>  (265) 
-0

>  <i_i_glide_confnum>  (265) 
2

>  <i_i_glide_posenum>  (265) 
23

>  <r_i_glide_eff_state_penalty>  (265) 
0

>  <ligand_id>  (265) 
69

>  <original_smiles>  (265) 
CC(=O)C1CC12C(=C(C)C=CC(C)=CC=C(C)C1CC=C(C)C1C)N1CC2C(C)OC(C)=CC1=O

>  <smiles>  (265) 
[H]C(=C([H])C(=C1N2C(=O)C([H])=C(C([H])([H])[H])OC([H])(C([H])([H])[H])C([H])(C2([H])[H])C12C([H])([H])C2([H])C(=O)C([H])([H])[H])C([H])([H])[H])C(=C([H])C([H])=C(C([H])([H])[H])C1([H])C([H])([H])C([H])=C(C([H])([H])[H])C1([H])C([H])([H])[H])C([H])([H])[H]

$$$$
69:25:1
     RDKit          3D

 76 79  0  0  1  0  0  0  0  0999 V2000
    3.0317   -4.6447    7.3026 C   0  0  0  0  0  0  0  0  0  0  0  0
    3.3852   -6.0975    7.0239 C   0  0  0  0  0  0  0  0  0  0  0  0
    3.5329   -6.8783    7.9707 O   0  0  0  0  0  0  0  0  0  0  0  0
    3.5444   -6.5703    5.5977 C   0  0  2  0  0  0  0  0  0  0  0  0
    2.6757   -5.9346    4.5268 C   0  0  0  0  0  0  0  0  0  0  0  0
    2.3996   -7.3755    4.9440 C   0  0  1  0  0  0  0  0  0  0  0  0
    2.7153   -8.5999    4.0687 C   0  0  0  0  0  0  0  0  0  0  0  0
    3.7090   -8.8625    3.1652 C   0  0  0  0  0  0  0  0  0  0  0  0
    3.8385  -10.2339    2.5237 C   0  0  0  0  0  0  0  0  0  0  0  0
    4.7251   -7.8532    2.7987 C   0  0  0  0  0  0  0  0  0  0  0  0
    5.7631   -8.0529    1.9636 C   0  0  0  0  0  0  0  0  0  0  0  0
    6.7238   -7.0106    1.6385 C   0  0  0  0  0  0  0  0  0  0  0  0
    8.1911   -7.3485    1.8126 C   0  0  0  0  0  0  0  0  0  0  0  0
    6.2730   -5.8156    1.2048 C   0  0  0  0  0  0  0  0  0  0  0  0
    7.1005   -4.6813    0.8244 C   0  0  0  0  0  0  0  0  0  0  0  0
    6.6687   -3.4955    0.3308 C   0  0  0  0  0  0  0  0  0  0  0  0
    7.6974   -2.4200    0.0277 C   0  0  0  0  0  0  0  0  0  0  0  0
    5.1894   -3.1522    0.0531 C   0  0  2  0  0  0  0  0  0  0  0  0
    4.4595   -4.2020   -0.8359 C   0  0  0  0  0  0  0  0  0  0  0  0
    3.8448   -3.4019   -1.9499 C   0  0  0  0  0  0  0  0  0  0  0  0
    4.0778   -2.1050   -1.8373 C   0  0  0  0  0  0  0  0  0  0  0  0
    3.6802   -1.0369   -2.8346 C   0  0  0  0  0  0  0  0  0  0  0  0
    4.8945   -1.7607   -0.6159 C   0  0  1  0  0  0  0  0  0  0  0  0
    4.1643   -0.8125    0.3368 C   0  0  0  0  0  0  0  0  0  0  0  0
    1.6920   -9.5356    4.3900 N   0  0  0  0  0  0  0  0  0  0  0  0
    1.1860   -9.2408    5.7256 C   0  0  0  0  0  0  0  0  0  0  0  0
    1.1570   -7.7062    5.7750 C   0  0  2  0  0  0  0  0  0  0  0  0
   -0.1936   -7.0420    5.3313 C   0  0  1  0  0  0  0  0  0  0  0  0
   -0.4879   -5.7437    6.1012 C   0  0  0  0  0  0  0  0  0  0  0  0
   -0.3998   -6.7533    3.9339 O   0  0  0  0  0  0  0  0  0  0  0  0
   -0.1964   -7.7867    3.0543 C   0  0  0  0  0  0  0  0  0  0  0  0
    0.5828   -7.3041    1.8446 C   0  0  0  0  0  0  0  0  0  0  0  0
   -0.3747   -9.0634    3.4349 C   0  0  0  0  0  0  0  0  0  0  0  0
    0.7895   -9.9564    3.4814 C   0  0  0  0  0  0  0  0  0  0  0  0
    0.8599  -11.0156    2.8764 O   0  0  0  0  0  0  0  0  0  0  0  0
    3.8203   -3.9840    6.9436 H   0  0  0  0  0  0  0  0  0  0  0  0
    2.8916   -4.4795    8.3720 H   0  0  0  0  0  0  0  0  0  0  0  0
    2.0970   -4.3733    6.8153 H   0  0  0  0  0  0  0  0  0  0  0  0
    4.5644   -6.8523    5.3282 H   0  0  0  0  0  0  0  0  0  0  0  0
    1.9659   -5.1843    4.8282 H   0  0  0  0  0  0  0  0  0  0  0  0
    3.0910   -5.7404    3.5441 H   0  0  0  0  0  0  0  0  0  0  0  0
    4.8760  -10.5683    2.4496 H   0  0  0  0  0  0  0  0  0  0  0  0
    3.4047  -10.2350    1.5199 H   0  0  0  0  0  0  0  0  0  0  0  0
    3.3550  -11.0336    3.0964 H   0  0  0  0  0  0  0  0  0  0  0  0
    4.6846   -6.8809    3.2141 H   0  0  0  0  0  0  0  0  0  0  0  0
    5.9288   -9.0044    1.4833 H   0  0  0  0  0  0  0  0  0  0  0  0
    8.3482   -7.8985    2.7450 H   0  0  0  0  0  0  0  0  0  0  0  0
    8.8560   -6.4890    1.8354 H   0  0  0  0  0  0  0  0  0  0  0  0
    8.5172   -7.9831    0.9893 H   0  0  0  0  0  0  0  0  0  0  0  0
    5.2033   -5.7072    1.1308 H   0  0  0  0  0  0  0  0  0  0  0  0
    8.1641   -4.7630    0.9449 H   0  0  0  0  0  0  0  0  0  0  0  0
    7.4639   -1.5062    0.5692 H   0  0  0  0  0  0  0  0  0  0  0  0
    7.7118   -2.2362   -1.0428 H   0  0  0  0  0  0  0  0  0  0  0  0
    8.7107   -2.7149    0.3133 H   0  0  0  0  0  0  0  0  0  0  0  0
    4.7193   -3.1806    1.0346 H   0  0  0  0  0  0  0  0  0  0  0  0
    5.1242   -4.9667   -1.2551 H   0  0  0  0  0  0  0  0  0  0  0  0
    3.6602   -4.7174   -0.2994 H   0  0  0  0  0  0  0  0  0  0  0  0
    3.3021   -3.8561   -2.7677 H   0  0  0  0  0  0  0  0  0  0  0  0
    3.0309   -0.3188   -2.3490 H   0  0  0  0  0  0  0  0  0  0  0  0
    3.1453   -1.4662   -3.6793 H   0  0  0  0  0  0  0  0  0  0  0  0
    4.5574   -0.5106   -3.2046 H   0  0  0  0  0  0  0  0  0  0  0  0
    5.7592   -1.2327   -1.0243 H   0  0  0  0  0  0  0  0  0  0  0  0
    4.0177    0.1446   -0.1477 H   0  0  0  0  0  0  0  0  0  0  0  0
    4.7620   -0.6119    1.2259 H   0  0  0  0  0  0  0  0  0  0  0  0
    3.1891   -1.1909    0.6427 H   0  0  0  0  0  0  0  0  0  0  0  0
    0.2373   -9.7244    5.9919 H   0  0  0  0  0  0  0  0  0  0  0  0
    1.9150   -9.6174    6.4364 H   0  0  0  0  0  0  0  0  0  0  0  0
    1.2492   -7.4985    6.8375 H   0  0  0  0  0  0  0  0  0  0  0  0
   -0.9858   -7.7204    5.6447 H   0  0  0  0  0  0  0  0  0  0  0  0
   -0.3325   -5.8602    7.1763 H   0  0  0  0  0  0  0  0  0  0  0  0
   -1.5325   -5.4702    5.9634 H   0  0  0  0  0  0  0  0  0  0  0  0
    0.1119   -4.8993    5.7654 H   0  0  0  0  0  0  0  0  0  0  0  0
    1.0398   -8.1305    1.2950 H   0  0  0  0  0  0  0  0  0  0  0  0
    1.3526   -6.5933    2.1246 H   0  0  0  0  0  0  0  0  0  0  0  0
   -0.1044   -6.8067    1.1655 H   0  0  0  0  0  0  0  0  0  0  0  0
   -1.0306   -9.2646    4.2759 H   0  0  0  0  0  0  0  0  0  0  0  0
  1  2  1  0
  1 36  1  0
  1 37  1  0
  1 38  1  0
  2  3  2  0
  2  4  1  0
  4  6  1  0
  4  5  1  0
  4 39  1  6
  6  5  1  6
  5 40  1  0
  5 41  1  0
  6 27  1  0
  6  7  1  0
  7  8  2  3
  7 25  1  0
  8  9  1  0
  8 10  1  0
  9 42  1  0
  9 43  1  0
  9 44  1  0
 10 11  2  3
 10 45  1  0
 11 12  1  0
 11 46  1  0
 12 13  1  0
 12 14  2  3
 13 47  1  0
 13 48  1  0
 13 49  1  0
 14 15  1  0
 14 50  1  0
 15 16  2  3
 15 51  1  0
 16 17  1  0
 16 18  1  0
 17 52  1  0
 17 53  1  0
 17 54  1  0
 18 23  1  0
 18 19  1  0
 18 55  1  1
 19 20  1  0
 19 56  1  0
 19 57  1  0
 20 21  2  0
 20 58  1  0
 21 22  1  0
 21 23  1  0
 22 59  1  0
 22 60  1  0
 22 61  1  0
 23 24  1  0
 23 62  1  6
 24 63  1  0
 24 64  1  0
 24 65  1  0
 25 34  1  0
 25 26  1  0
 26 27  1  0
 26 66  1  0
 26 67  1  0
 27 28  1  0
 27 68  1  1
 28 29  1  0
 28 30  1  0
 28 69  1  1
 29 70  1  0
 29 71  1  0
 29 72  1  0
 30 31  1  0
 31 32  1  0
 31 33  2  3
 32 73  1  0
 32 74  1  0
 32 75  1  0
 33 34  1  0
 33 76  1  0
 34 35  2  0
M  END
>  <i_m_ct_stereo_status>  (266) 
1

>  <s_m_source_file>  (266) 
/var/tmp/pbs.5076255.sched01/tmpk9_hntje/1089a46f3po.sdf

>  <i_m_source_file_index>  (266) 
23

>  <i_lp_mmshare_version>  (266) 
48012

>  <i_f3d_flags>  (266) 
0

>  <s_epik_input>  (266) 
W0NIM11DKD1PKVtDQEhdKFtDSDJdMSlbQ0BAXTEyW0NAQEhdM1tDSDJdTihDKD1PKS9bQ0hdPUMoW0NIM10pXE9bQ0BASF0zW0NIM10pQ1wyPUMoXFtDSDNdKS9bQ0hdPVtDSF0vQyhbQ0gzXSk9W0NIXS9bQ0hdPUMoXFtDSDNdKVtDQEBIXTRbQ0gyXVtDSF09QyhbQ0gzXSlbQ0BIXTRbQ0gzXQ==

>  <s_epik_cmdline>  (266) 
J2VwaWtfcHl0aG9uJywgJy1waHQnLCAnMi4wJywgJy1waCcsICc3LjAnLCAnLXRuJywgJzgnLCAnLW1hJywgJzIwMCcsICctaW1hZScsICc8aW5maWxlLm1hZT4nLCAnLW9tYWUnLCAnPG91dGZpbGUubWFlPic=

>  <r_lp_tautomer_probability>  (266) 
1

>  <r_epik_Ionization_Penalty>  (266) 
1.49479e-07

>  <r_epik_Ionization_Penalty_Charging>  (266) 
0

>  <r_epik_Ionization_Penalty_Neutral>  (266) 
1.49479e-07

>  <r_epik_State_Penalty>  (266) 
-0

>  <r_epik_Charging_Adjusted_Penalty>  (266) 
0

>  <i_epik_Tot_Q>  (266) 
0

>  <i_epik_Tot_abs_Q>  (266) 
0

>  <s_lp_Force_Field>  (266) 
OPLS3e

>  <r_lp_Energy>  (266) 
82.2388

>  <b_lp_Chiralities_Consistent>  (266) 
1

>  <s_lp_Variant>  (266) 
69:0-26

>  <s_i_glide_gridfile>  (266) 
pfpi4k_grid

>  <i_i_glide_lignum>  (266) 
23

>  <i_i_glide_rotatable_bonds>  (266) 
5

>  <r_i_docking_score>  (266) 
-2.21757

>  <r_i_glide_ligand_efficiency>  (266) 
-0.063359

>  <r_i_glide_ligand_efficiency_sa>  (266) 
-0.207252

>  <r_i_glide_ligand_efficiency_ln>  (266) 
-0.486805

>  <r_i_glide_gscore>  (266) 
-2.21757

>  <r_i_glide_lipo>  (266) 
-0.615001

>  <r_i_glide_hbond>  (266) 
-0.00208778

>  <r_i_glide_metal>  (266) 
-0

>  <r_i_glide_rewards>  (266) 
-0.16594

>  <r_i_glide_evdw>  (266) 
-32.8707

>  <r_i_glide_ecoul>  (266) 
-0.845507

>  <r_i_glide_erotb>  (266) 
0.357898

>  <r_i_glide_esite>  (266) 
-0.0220757

>  <r_i_glide_emodel>  (266) 
-31.4132

>  <r_i_glide_energy>  (266) 
-33.7162

>  <r_i_glide_einternal>  (266) 
11.9971

>  <r_i_glide_intrahb_reward>  (266) 
-0

>  <i_i_glide_confnum>  (266) 
2

>  <i_i_glide_posenum>  (266) 
1

>  <r_i_glide_eff_state_penalty>  (266) 
0

>  <ligand_id>  (266) 
69

>  <original_smiles>  (266) 
CC(=O)C1CC12C(=C(C)C=CC(C)=CC=C(C)C1CC=C(C)C1C)N1CC2C(C)OC(C)=CC1=O

>  <smiles>  (266) 
[H]C(=C([H])C(=C1N2C(=O)C([H])=C(C([H])([H])[H])OC([H])(C([H])([H])[H])C([H])(C2([H])[H])C12C([H])([H])C2([H])C(=O)C([H])([H])[H])C([H])([H])[H])C(=C([H])C([H])=C(C([H])([H])[H])C1([H])C([H])([H])C([H])=C(C([H])([H])[H])C1([H])C([H])([H])[H])C([H])([H])[H]

$$$$
69:25:2
     RDKit          3D

 76 79  0  0  1  0  0  0  0  0999 V2000
    4.1811   -6.6218    8.0625 C   0  0  0  0  0  0  0  0  0  0  0  0
    3.3303   -6.0275    6.9536 C   0  0  0  0  0  0  0  0  0  0  0  0
    2.4901   -5.1670    7.2222 O   0  0  0  0  0  0  0  0  0  0  0  0
    3.4980   -6.5898    5.5568 C   0  0  2  0  0  0  0  0  0  0  0  0
    2.6227   -6.0481    4.4483 C   0  0  0  0  0  0  0  0  0  0  0  0
    2.3898   -7.4760    4.9465 C   0  0  1  0  0  0  0  0  0  0  0  0
    2.7653   -8.7282    4.1687 C   0  0  0  0  0  0  0  0  0  0  0  0
    3.7782   -9.0189    3.2917 C   0  0  0  0  0  0  0  0  0  0  0  0
    3.9681  -10.4306    2.7514 C   0  0  0  0  0  0  0  0  0  0  0  0
    4.7546   -8.0070    2.8634 C   0  0  0  0  0  0  0  0  0  0  0  0
    5.7819   -8.2041    2.0105 C   0  0  0  0  0  0  0  0  0  0  0  0
    6.7102   -7.1540    1.6256 C   0  0  0  0  0  0  0  0  0  0  0  0
    8.1862   -7.4699    1.6993 C   0  0  0  0  0  0  0  0  0  0  0  0
    6.2191   -5.9655    1.2208 C   0  0  0  0  0  0  0  0  0  0  0  0
    7.0007   -4.8108    0.7994 C   0  0  0  0  0  0  0  0  0  0  0  0
    6.5203   -3.5908    0.4694 C   0  0  0  0  0  0  0  0  0  0  0  0
    7.4846   -2.4766    0.0761 C   0  0  0  0  0  0  0  0  0  0  0  0
    5.0309   -3.2234    0.4641 C   0  0  2  0  0  0  0  0  0  0  0  0
    4.5336   -2.6139   -0.8832 C   0  0  0  0  0  0  0  0  0  0  0  0
    3.9011   -1.3142   -0.4674 C   0  0  0  0  0  0  0  0  0  0  0  0
    3.9596   -1.0922    0.8440 C   0  0  0  0  0  0  0  0  0  0  0  0
    3.4245    0.1159    1.5877 C   0  0  0  0  0  0  0  0  0  0  0  0
    4.6316   -2.2224    1.5949 C   0  0  1  0  0  0  0  0  0  0  0  0
    3.6826   -2.8572    2.6292 C   0  0  0  0  0  0  0  0  0  0  0  0
    1.7691   -9.7022    4.5279 N   0  0  0  0  0  0  0  0  0  0  0  0
    1.2355   -9.3306    5.8377 C   0  0  0  0  0  0  0  0  0  0  0  0
    1.1589   -7.8012    5.7969 C   0  0  2  0  0  0  0  0  0  0  0  0
   -0.2180   -7.2165    5.3031 C   0  0  1  0  0  0  0  0  0  0  0  0
   -0.5637   -5.8675    5.9724 C   0  0  0  0  0  0  0  0  0  0  0  0
   -0.4209   -7.0197    3.8867 O   0  0  0  0  0  0  0  0  0  0  0  0
   -0.1581   -8.0923    3.0639 C   0  0  0  0  0  0  0  0  0  0  0  0
    0.6152   -7.6656    1.8418 C   0  0  0  0  0  0  0  0  0  0  0  0
   -0.2975   -9.3472    3.5367 C   0  0  0  0  0  0  0  0  0  0  0  0
    0.8829  -10.1984    3.6179 C   0  0  0  0  0  0  0  0  0  0  0  0
    1.0313  -11.2436    3.0056 O   0  0  0  0  0  0  0  0  0  0  0  0
    4.0104   -7.6966    8.1133 H   0  0  0  0  0  0  0  0  0  0  0  0
    3.9114   -6.1937    9.0295 H   0  0  0  0  0  0  0  0  0  0  0  0
    5.2434   -6.4435    7.8829 H   0  0  0  0  0  0  0  0  0  0  0  0
    4.5302   -6.8525    5.3074 H   0  0  0  0  0  0  0  0  0  0  0  0
    1.9052   -5.2774    4.7100 H   0  0  0  0  0  0  0  0  0  0  0  0
    3.0248   -5.9052    3.4534 H   0  0  0  0  0  0  0  0  0  0  0  0
    5.0164  -10.7189    2.6938 H   0  0  0  0  0  0  0  0  0  0  0  0
    3.5318  -10.4904    1.7500 H   0  0  0  0  0  0  0  0  0  0  0  0
    3.5062  -11.2066    3.3676 H   0  0  0  0  0  0  0  0  0  0  0  0
    4.6915   -7.0111    3.2437 H   0  0  0  0  0  0  0  0  0  0  0  0
    5.9597   -9.1719    1.5646 H   0  0  0  0  0  0  0  0  0  0  0  0
    8.4141   -8.0264    2.6131 H   0  0  0  0  0  0  0  0  0  0  0  0
    8.8408   -6.5990    1.6831 H   0  0  0  0  0  0  0  0  0  0  0  0
    8.4638   -8.0956    0.8488 H   0  0  0  0  0  0  0  0  0  0  0  0
    5.1453   -5.8962    1.2130 H   0  0  0  0  0  0  0  0  0  0  0  0
    8.0691   -4.9128    0.7410 H   0  0  0  0  0  0  0  0  0  0  0  0
    7.3500   -1.6032    0.7141 H   0  0  0  0  0  0  0  0  0  0  0  0
    7.3367   -2.1749   -0.9571 H   0  0  0  0  0  0  0  0  0  0  0  0
    8.5213   -2.7960    0.1605 H   0  0  0  0  0  0  0  0  0  0  0  0
    4.4227   -4.1144    0.5886 H   0  0  0  0  0  0  0  0  0  0  0  0
    5.3008   -2.4331   -1.6332 H   0  0  0  0  0  0  0  0  0  0  0  0
    3.7748   -3.2453   -1.3457 H   0  0  0  0  0  0  0  0  0  0  0  0
    3.4480   -0.6663   -1.2004 H   0  0  0  0  0  0  0  0  0  0  0  0
    2.6297   -0.1642    2.2759 H   0  0  0  0  0  0  0  0  0  0  0  0
    3.0171    0.8553    0.9029 H   0  0  0  0  0  0  0  0  0  0  0  0
    4.2112    0.5924    2.1691 H   0  0  0  0  0  0  0  0  0  0  0  0
    5.5068   -1.8250    2.1114 H   0  0  0  0  0  0  0  0  0  0  0  0
    3.3739   -2.1436    3.3951 H   0  0  0  0  0  0  0  0  0  0  0  0
    4.1542   -3.6947    3.1408 H   0  0  0  0  0  0  0  0  0  0  0  0
    2.7745   -3.2289    2.1529 H   0  0  0  0  0  0  0  0  0  0  0  0
    0.3122   -9.8372    6.1252 H   0  0  0  0  0  0  0  0  0  0  0  0
    1.9780   -9.6420    6.5765 H   0  0  0  0  0  0  0  0  0  0  0  0
    1.2387   -7.5313    6.8453 H   0  0  0  0  0  0  0  0  0  0  0  0
   -0.9821   -7.8954    5.6643 H   0  0  0  0  0  0  0  0  0  0  0  0
   -0.4270   -5.9132    7.0569 H   0  0  0  0  0  0  0  0  0  0  0  0
   -1.6126   -5.6389    5.7931 H   0  0  0  0  0  0  0  0  0  0  0  0
    0.0216   -5.0313    5.5966 H   0  0  0  0  0  0  0  0  0  0  0  0
    1.1086   -8.5052    1.3549 H   0  0  0  0  0  0  0  0  0  0  0  0
    1.3539   -6.9065    2.0789 H   0  0  0  0  0  0  0  0  0  0  0  0
   -0.0865   -7.2468    1.1248 H   0  0  0  0  0  0  0  0  0  0  0  0
   -0.9580   -9.4602    4.3784 H   0  0  0  0  0  0  0  0  0  0  0  0
  1  2  1  0
  1 36  1  0
  1 37  1  0
  1 38  1  0
  2  3  2  0
  2  4  1  0
  4  6  1  0
  4  5  1  0
  4 39  1  6
  6  5  1  6
  5 40  1  0
  5 41  1  0
  6 27  1  0
  6  7  1  0
  7  8  2  3
  7 25  1  0
  8  9  1  0
  8 10  1  0
  9 42  1  0
  9 43  1  0
  9 44  1  0
 10 11  2  3
 10 45  1  0
 11 12  1  0
 11 46  1  0
 12 13  1  0
 12 14  2  3
 13 47  1  0
 13 48  1  0
 13 49  1  0
 14 15  1  0
 14 50  1  0
 15 16  2  3
 15 51  1  0
 16 17  1  0
 16 18  1  0
 17 52  1  0
 17 53  1  0
 17 54  1  0
 18 23  1  0
 18 19  1  0
 18 55  1  1
 19 20  1  0
 19 56  1  0
 19 57  1  0
 20 21  2  0
 20 58  1  0
 21 22  1  0
 21 23  1  0
 22 59  1  0
 22 60  1  0
 22 61  1  0
 23 24  1  0
 23 62  1  1
 24 63  1  0
 24 64  1  0
 24 65  1  0
 25 34  1  0
 25 26  1  0
 26 27  1  0
 26 66  1  0
 26 67  1  0
 27 28  1  0
 27 68  1  1
 28 29  1  0
 28 30  1  0
 28 69  1  1
 29 70  1  0
 29 71  1  0
 29 72  1  0
 30 31  1  0
 31 32  1  0
 31 33  2  3
 32 73  1  0
 32 74  1  0
 32 75  1  0
 33 34  1  0
 33 76  1  0
 34 35  2  0
M  END
>  <i_m_ct_stereo_status>  (267) 
1

>  <s_m_source_file>  (267) 
/var/tmp/pbs.5076255.sched01/tmpk9_hntje/1089a46f3po.sdf

>  <i_m_source_file_index>  (267) 
23

>  <i_lp_mmshare_version>  (267) 
48012

>  <i_f3d_flags>  (267) 
0

>  <s_epik_input>  (267) 
W0NIM11DKD1PKVtDQEhdKFtDSDJdMSlbQ0BAXTEyW0NAQEhdM1tDSDJdTihDKD1PKS9bQ0hdPUMoW0NIM10pXE9bQ0BASF0zW0NIM10pQ1wyPUMoXFtDSDNdKS9bQ0hdPVtDSF0vQyhbQ0gzXSk9W0NIXS9bQ0hdPUMoXFtDSDNdKVtDQEBIXTRbQ0gyXVtDSF09QyhbQ0gzXSlbQ0BIXTRbQ0gzXQ==

>  <s_epik_cmdline>  (267) 
J2VwaWtfcHl0aG9uJywgJy1waHQnLCAnMi4wJywgJy1waCcsICc3LjAnLCAnLXRuJywgJzgnLCAnLW1hJywgJzIwMCcsICctaW1hZScsICc8aW5maWxlLm1hZT4nLCAnLW9tYWUnLCAnPG91dGZpbGUubWFlPic=

>  <r_lp_tautomer_probability>  (267) 
1

>  <r_epik_Ionization_Penalty>  (267) 
1.49479e-07

>  <r_epik_Ionization_Penalty_Charging>  (267) 
0

>  <r_epik_Ionization_Penalty_Neutral>  (267) 
1.49479e-07

>  <r_epik_State_Penalty>  (267) 
-0

>  <r_epik_Charging_Adjusted_Penalty>  (267) 
0

>  <i_epik_Tot_Q>  (267) 
0

>  <i_epik_Tot_abs_Q>  (267) 
0

>  <s_lp_Force_Field>  (267) 
OPLS3e

>  <r_lp_Energy>  (267) 
82.2388

>  <b_lp_Chiralities_Consistent>  (267) 
1

>  <s_lp_Variant>  (267) 
69:0-26

>  <s_i_glide_gridfile>  (267) 
pfpi4k_grid

>  <i_i_glide_lignum>  (267) 
23

>  <i_i_glide_rotatable_bonds>  (267) 
5

>  <r_i_docking_score>  (267) 
-2.01323

>  <r_i_glide_ligand_efficiency>  (267) 
-0.057521

>  <r_i_glide_ligand_efficiency_sa>  (267) 
-0.188155

>  <r_i_glide_ligand_efficiency_ln>  (267) 
-0.441949

>  <r_i_glide_gscore>  (267) 
-2.01323

>  <r_i_glide_lipo>  (267) 
-0.612022

>  <r_i_glide_hbond>  (267) 
0

>  <r_i_glide_metal>  (267) 
-0

>  <r_i_glide_rewards>  (267) 
-0.174864

>  <r_i_glide_evdw>  (267) 
-28.8522

>  <r_i_glide_ecoul>  (267) 
-0.795102

>  <r_i_glide_erotb>  (267) 
0.357898

>  <r_i_glide_esite>  (267) 
-0.0223692

>  <r_i_glide_emodel>  (267) 
-31.5782

>  <r_i_glide_energy>  (267) 
-29.6473

>  <r_i_glide_einternal>  (267) 
3.4904

>  <r_i_glide_intrahb_reward>  (267) 
-0

>  <i_i_glide_confnum>  (267) 
4

>  <i_i_glide_posenum>  (267) 
17

>  <r_i_glide_eff_state_penalty>  (267) 
0

>  <ligand_id>  (267) 
69

>  <original_smiles>  (267) 
CC(=O)C1CC12C(=C(C)C=CC(C)=CC=C(C)C1CC=C(C)C1C)N1CC2C(C)OC(C)=CC1=O

>  <smiles>  (267) 
[H]C(=C([H])C(=C1N2C(=O)C([H])=C(C([H])([H])[H])OC([H])(C([H])([H])[H])C([H])(C2([H])[H])C12C([H])([H])C2([H])C(=O)C([H])([H])[H])C([H])([H])[H])C(=C([H])C([H])=C(C([H])([H])[H])C1([H])C([H])([H])C([H])=C(C([H])([H])[H])C1([H])C([H])([H])[H])C([H])([H])[H]

$$$$
69:26:0
     RDKit          3D

 76 79  0  0  1  0  0  0  0  0999 V2000
    0.3206   -6.1275    4.8258 C   0  0  0  0  0  0  0  0  0  0  0  0
    0.7431   -6.5734    3.4219 C   0  0  0  0  0  0  0  0  0  0  0  0
   -0.0720   -6.5871    2.4964 O   0  0  0  0  0  0  0  0  0  0  0  0
    2.1944   -6.9672    3.2317 C   0  0  2  0  0  0  0  0  0  0  0  0
    2.5019   -8.1112    2.2921 C   0  0  0  0  0  0  0  0  0  0  0  0
    2.6712   -8.3129    3.8083 C   0  0  1  0  0  0  0  0  0  0  0  0
    3.9317   -8.2308    4.6843 C   0  0  0  0  0  0  0  0  0  0  0  0
    5.1817   -7.7318    4.3561 C   0  0  0  0  0  0  0  0  0  0  0  0
    5.5364   -7.4798    2.8913 C   0  0  0  0  0  0  0  0  0  0  0  0
    6.1787   -7.4890    5.4088 C   0  0  0  0  0  0  0  0  0  0  0  0
    7.4342   -6.9722    5.3537 C   0  0  0  0  0  0  0  0  0  0  0  0
    8.1755   -6.4710    4.2025 C   0  0  0  0  0  0  0  0  0  0  0  0
    9.6462   -6.8469    4.1088 C   0  0  0  0  0  0  0  0  0  0  0  0
    7.5800   -5.6102    3.3222 C   0  0  0  0  0  0  0  0  0  0  0  0
    8.1668   -5.1035    2.0840 C   0  0  0  0  0  0  0  0  0  0  0  0
    7.5153   -4.3623    1.1525 C   0  0  0  0  0  0  0  0  0  0  0  0
    8.3063   -3.8381   -0.0416 C   0  0  0  0  0  0  0  0  0  0  0  0
    6.0193   -4.0073    1.1749 C   0  0  2  0  0  0  0  0  0  0  0  0
    5.1910   -4.7204    0.0660 C   0  0  0  0  0  0  0  0  0  0  0  0
    4.4613   -3.6043   -0.6366 C   0  0  0  0  0  0  0  0  0  0  0  0
    4.7434   -2.4094   -0.1208 C   0  0  0  0  0  0  0  0  0  0  0  0
    4.2043   -1.0710   -0.5777 C   0  0  0  0  0  0  0  0  0  0  0  0
    5.7015   -2.4903    1.0362 C   0  0  1  0  0  0  0  0  0  0  0  0
    5.0823   -1.9324    2.3216 C   0  0  0  0  0  0  0  0  0  0  0  0
    3.5392   -8.7690    5.9445 N   0  0  0  0  0  0  0  0  0  0  0  0
    2.0756   -8.8651    5.9974 C   0  0  0  0  0  0  0  0  0  0  0  0
    1.6601   -9.1915    4.5542 C   0  0  2  0  0  0  0  0  0  0  0  0
    1.5963  -10.7209    4.1698 C   0  0  1  0  0  0  0  0  0  0  0  0
    0.6203  -10.9568    3.0183 C   0  0  0  0  0  0  0  0  0  0  0  0
    2.8149  -11.3564    3.7406 O   0  0  0  0  0  0  0  0  0  0  0  0
    3.8930  -11.2901    4.5947 C   0  0  0  0  0  0  0  0  0  0  0  0
    5.1684  -11.0876    3.7926 C   0  0  0  0  0  0  0  0  0  0  0  0
    3.7403  -11.0939    5.9190 C   0  0  0  0  0  0  0  0  0  0  0  0
    4.1871   -9.8301    6.4987 C   0  0  0  0  0  0  0  0  0  0  0  0
    4.9421   -9.7285    7.4641 O   0  0  0  0  0  0  0  0  0  0  0  0
    0.1733   -7.0100    5.4443 H   0  0  0  0  0  0  0  0  0  0  0  0
   -0.6273   -5.5879    4.8132 H   0  0  0  0  0  0  0  0  0  0  0  0
    1.0932   -5.5115    5.2934 H   0  0  0  0  0  0  0  0  0  0  0  0
    2.9131   -6.1432    3.2148 H   0  0  0  0  0  0  0  0  0  0  0  0
    1.6597   -8.5883    1.7991 H   0  0  0  0  0  0  0  0  0  0  0  0
    3.3434   -8.0191    1.6179 H   0  0  0  0  0  0  0  0  0  0  0  0
    6.6015   -7.4242    2.7569 H   0  0  0  0  0  0  0  0  0  0  0  0
    5.0768   -6.5330    2.5786 H   0  0  0  0  0  0  0  0  0  0  0  0
    5.1519   -8.2990    2.2914 H   0  0  0  0  0  0  0  0  0  0  0  0
    5.9341   -7.7718    6.4101 H   0  0  0  0  0  0  0  0  0  0  0  0
    7.9610   -6.9210    6.3051 H   0  0  0  0  0  0  0  0  0  0  0  0
   10.2742   -6.2532    4.7943 H   0  0  0  0  0  0  0  0  0  0  0  0
   10.0629   -6.7153    3.1137 H   0  0  0  0  0  0  0  0  0  0  0  0
    9.7533   -7.9016    4.3678 H   0  0  0  0  0  0  0  0  0  0  0  0
    6.5132   -5.4075    3.5706 H   0  0  0  0  0  0  0  0  0  0  0  0
    9.2297   -5.2335    1.9059 H   0  0  0  0  0  0  0  0  0  0  0  0
    7.7937   -4.0249   -0.9849 H   0  0  0  0  0  0  0  0  0  0  0  0
    9.2864   -4.3063   -0.0914 H   0  0  0  0  0  0  0  0  0  0  0  0
    8.4671   -2.7653    0.0485 H   0  0  0  0  0  0  0  0  0  0  0  0
    5.5715   -4.3473    2.1081 H   0  0  0  0  0  0  0  0  0  0  0  0
    5.7971   -5.2721   -0.6543 H   0  0  0  0  0  0  0  0  0  0  0  0
    4.4607   -5.4197    0.4777 H   0  0  0  0  0  0  0  0  0  0  0  0
    3.7728   -3.7827   -1.4612 H   0  0  0  0  0  0  0  0  0  0  0  0
    5.0178   -0.3798   -0.7951 H   0  0  0  0  0  0  0  0  0  0  0  0
    3.5850   -0.6261    0.2007 H   0  0  0  0  0  0  0  0  0  0  0  0
    3.5853   -1.1760   -1.4676 H   0  0  0  0  0  0  0  0  0  0  0  0
    6.5873   -1.9095    0.8002 H   0  0  0  0  0  0  0  0  0  0  0  0
    4.8528   -0.8701    2.2264 H   0  0  0  0  0  0  0  0  0  0  0  0
    5.7574   -2.0528    3.1757 H   0  0  0  0  0  0  0  0  0  0  0  0
    4.1516   -2.4507    2.5579 H   0  0  0  0  0  0  0  0  0  0  0  0
    1.6572   -9.5616    6.7336 H   0  0  0  0  0  0  0  0  0  0  0  0
    1.7780   -7.8614    6.2948 H   0  0  0  0  0  0  0  0  0  0  0  0
    0.6373   -8.8534    4.4280 H   0  0  0  0  0  0  0  0  0  0  0  0
    1.1721  -11.2499    5.0240 H   0  0  0  0  0  0  0  0  0  0  0  0
   -0.3471  -10.4670    3.1776 H   0  0  0  0  0  0  0  0  0  0  0  0
    0.4416  -12.0260    2.9080 H   0  0  0  0  0  0  0  0  0  0  0  0
    1.0118  -10.6078    2.0742 H   0  0  0  0  0  0  0  0  0  0  0  0
    5.9767  -10.6729    4.3995 H   0  0  0  0  0  0  0  0  0  0  0  0
    4.9824  -10.4399    2.9362 H   0  0  0  0  0  0  0  0  0  0  0  0
    5.5026  -12.0495    3.3995 H   0  0  0  0  0  0  0  0  0  0  0  0
    2.7987  -11.4089    6.3386 H   0  0  0  0  0  0  0  0  0  0  0  0
  1  2  1  0
  1 36  1  0
  1 37  1  0
  1 38  1  0
  2  3  2  0
  2  4  1  0
  4  6  1  0
  4  5  1  0
  4 39  1  6
  6  5  1  6
  5 40  1  0
  5 41  1  0
  6 27  1  0
  6  7  1  0
  7  8  2  3
  7 25  1  0
  8  9  1  0
  8 10  1  0
  9 42  1  0
  9 43  1  0
  9 44  1  0
 10 11  2  3
 10 45  1  0
 11 12  1  0
 11 46  1  0
 12 13  1  0
 12 14  2  3
 13 47  1  0
 13 48  1  0
 13 49  1  0
 14 15  1  0
 14 50  1  0
 15 16  2  3
 15 51  1  0
 16 17  1  0
 16 18  1  0
 17 52  1  0
 17 53  1  0
 17 54  1  0
 18 23  1  0
 18 19  1  0
 18 55  1  1
 19 20  1  0
 19 56  1  0
 19 57  1  0
 20 21  2  0
 20 58  1  0
 21 22  1  0
 21 23  1  0
 22 59  1  0
 22 60  1  0
 22 61  1  0
 23 24  1  0
 23 62  1  6
 24 63  1  0
 24 64  1  0
 24 65  1  0
 25 34  1  0
 25 26  1  0
 26 27  1  0
 26 66  1  0
 26 67  1  0
 27 28  1  0
 27 68  1  1
 28 29  1  0
 28 30  1  0
 28 69  1  1
 29 70  1  0
 29 71  1  0
 29 72  1  0
 30 31  1  0
 31 32  1  0
 31 33  2  3
 32 73  1  0
 32 74  1  0
 32 75  1  0
 33 34  1  0
 33 76  1  0
 34 35  2  0
M  END
>  <i_m_ct_stereo_status>  (268) 
1

>  <s_m_source_file>  (268) 
/var/tmp/pbs.5076255.sched01/tmpk9_hntje/1089a46f3po.sdf

>  <i_m_source_file_index>  (268) 
24

>  <i_lp_mmshare_version>  (268) 
48012

>  <i_f3d_flags>  (268) 
0

>  <s_epik_input>  (268) 
W0NIM11DKD1PKVtDQEhdKFtDSDJdMSlbQ0BAXTEyW0NAQEhdM1tDSDJdTihDKD1PKS9bQ0hdPUMoW0NIM10pXE9bQ0BASF0zW0NIM10pQ1wyPUMoXFtDSDNdKS9bQ0hdPVtDSF0vQyhbQ0gzXSk9W0NIXS9bQ0hdPUMoXFtDSDNdKVtDQEBIXTRbQ0gyXVtDSF09QyhbQ0gzXSlbQ0BIXTRbQ0gzXQ==

>  <s_epik_cmdline>  (268) 
J2VwaWtfcHl0aG9uJywgJy1waHQnLCAnMi4wJywgJy1waCcsICc3LjAnLCAnLXRuJywgJzgnLCAnLW1hJywgJzIwMCcsICctaW1hZScsICc8aW5maWxlLm1hZT4nLCAnLW9tYWUnLCAnPG91dGZpbGUubWFlPic=

>  <r_lp_tautomer_probability>  (268) 
1

>  <r_epik_Ionization_Penalty>  (268) 
1.49479e-07

>  <r_epik_Ionization_Penalty_Charging>  (268) 
0

>  <r_epik_Ionization_Penalty_Neutral>  (268) 
1.49479e-07

>  <r_epik_State_Penalty>  (268) 
-0

>  <r_epik_Charging_Adjusted_Penalty>  (268) 
0

>  <i_epik_Tot_Q>  (268) 
0

>  <i_epik_Tot_abs_Q>  (268) 
0

>  <s_lp_Force_Field>  (268) 
OPLS3e

>  <r_lp_Energy>  (268) 
88.0803

>  <b_lp_Chiralities_Consistent>  (268) 
1

>  <s_lp_Variant>  (268) 
69:0-27

>  <s_i_glide_gridfile>  (268) 
pfpi4k_grid

>  <i_i_glide_lignum>  (268) 
24

>  <i_i_glide_rotatable_bonds>  (268) 
5

>  <r_i_docking_score>  (268) 
-2.439

>  <r_i_glide_ligand_efficiency>  (268) 
-0.0696859

>  <r_i_glide_ligand_efficiency_sa>  (268) 
-0.227947

>  <r_i_glide_ligand_efficiency_ln>  (268) 
-0.535416

>  <r_i_glide_gscore>  (268) 
-2.439

>  <r_i_glide_lipo>  (268) 
-0.722688

>  <r_i_glide_hbond>  (268) 
-0.16

>  <r_i_glide_metal>  (268) 
-0

>  <r_i_glide_rewards>  (268) 
-0.16594

>  <r_i_glide_evdw>  (268) 
-28.059

>  <r_i_glide_ecoul>  (268) 
-3.48603

>  <r_i_glide_erotb>  (268) 
0.357898

>  <r_i_glide_esite>  (268) 
-0.0613801

>  <r_i_glide_emodel>  (268) 
-30.4986

>  <r_i_glide_energy>  (268) 
-31.545

>  <r_i_glide_einternal>  (268) 
3.76933

>  <r_i_glide_intrahb_reward>  (268) 
-0

>  <i_i_glide_confnum>  (268) 
1

>  <i_i_glide_posenum>  (268) 
1

>  <r_i_glide_eff_state_penalty>  (268) 
0

>  <ligand_id>  (268) 
69

>  <original_smiles>  (268) 
CC(=O)C1CC12C(=C(C)C=CC(C)=CC=C(C)C1CC=C(C)C1C)N1CC2C(C)OC(C)=CC1=O

>  <smiles>  (268) 
[H]C(=C([H])C(=C1N2C(=O)C([H])=C(C([H])([H])[H])OC([H])(C([H])([H])[H])C([H])(C2([H])[H])C12C([H])([H])C2([H])C(=O)C([H])([H])[H])C([H])([H])[H])C(=C([H])C([H])=C(C([H])([H])[H])C1([H])C([H])([H])C([H])=C(C([H])([H])[H])C1([H])C([H])([H])[H])C([H])([H])[H]

$$$$
69:26:1
     RDKit          3D

 76 79  0  0  1  0  0  0  0  0999 V2000
    1.0925   -6.0428    5.2333 C   0  0  0  0  0  0  0  0  0  0  0  0
    1.0164   -6.5725    3.7999 C   0  0  0  0  0  0  0  0  0  0  0  0
   -0.0722   -6.6011    3.2189 O   0  0  0  0  0  0  0  0  0  0  0  0
    2.3060   -7.0010    3.1120 C   0  0  2  0  0  0  0  0  0  0  0  0
    2.2922   -8.1920    2.1847 C   0  0  0  0  0  0  0  0  0  0  0  0
    3.0588   -8.2946    3.5106 C   0  0  1  0  0  0  0  0  0  0  0  0
    4.5295   -8.0350    3.7840 C   0  0  0  0  0  0  0  0  0  0  0  0
    5.5147   -7.5113    2.9838 C   0  0  0  0  0  0  0  0  0  0  0  0
    5.2533   -7.3043    1.4966 C   0  0  0  0  0  0  0  0  0  0  0  0
    6.8452   -7.1580    3.5098 C   0  0  0  0  0  0  0  0  0  0  0  0
    7.7644   -6.2823    3.0457 C   0  0  0  0  0  0  0  0  0  0  0  0
    7.6954   -5.3724    1.9058 C   0  0  0  0  0  0  0  0  0  0  0  0
    8.8129   -5.4783    0.9008 C   0  0  0  0  0  0  0  0  0  0  0  0
    6.6894   -4.4799    1.8307 C   0  0  0  0  0  0  0  0  0  0  0  0
    6.5062   -3.5116    0.7608 C   0  0  0  0  0  0  0  0  0  0  0  0
    5.5280   -2.5952    0.6526 C   0  0  0  0  0  0  0  0  0  0  0  0
    5.5166   -1.6379   -0.5334 C   0  0  0  0  0  0  0  0  0  0  0  0
    4.4078   -2.3823    1.6874 C   0  0  2  0  0  0  0  0  0  0  0  0
    2.9754   -2.5495    1.1116 C   0  0  0  0  0  0  0  0  0  0  0  0
    2.2771   -1.2866    1.5247 C   0  0  0  0  0  0  0  0  0  0  0  0
    3.0542   -0.4442    2.1940 C   0  0  0  0  0  0  0  0  0  0  0  0
    2.6650    0.9128    2.7374 C   0  0  0  0  0  0  0  0  0  0  0  0
    4.4633   -0.9901    2.4178 C   0  0  1  0  0  0  0  0  0  0  0  0
    4.8076   -1.1190    3.9108 C   0  0  0  0  0  0  0  0  0  0  0  0
    4.7689   -8.5304    5.1258 N   0  0  0  0  0  0  0  0  0  0  0  0
    3.4849   -8.6811    5.7954 C   0  0  0  0  0  0  0  0  0  0  0  0
    2.5207   -9.1326    4.6694 C   0  0  2  0  0  0  0  0  0  0  0  0
    2.4048  -10.6920    4.4439 C   0  0  1  0  0  0  0  0  0  0  0  0
    1.0541  -11.0794    3.8014 C   0  0  0  0  0  0  0  0  0  0  0  0
    3.3956  -11.3382    3.6241 O   0  0  0  0  0  0  0  0  0  0  0  0
    4.7254  -11.1225    3.9192 C   0  0  0  0  0  0  0  0  0  0  0  0
    5.5467  -10.8964    2.6761 C   0  0  0  0  0  0  0  0  0  0  0  0
    5.0756  -10.8292    5.1785 C   0  0  0  0  0  0  0  0  0  0  0  0
    5.6607   -9.5174    5.4497 C   0  0  0  0  0  0  0  0  0  0  0  0
    6.7429   -9.3009    5.9657 O   0  0  0  0  0  0  0  0  0  0  0  0
    1.1548   -6.8686    5.9404 H   0  0  0  0  0  0  0  0  0  0  0  0
    0.2108   -5.4585    5.5242 H   0  0  0  0  0  0  0  0  0  0  0  0
    1.9798   -5.4104    5.3603 H   0  0  0  0  0  0  0  0  0  0  0  0
    2.8918   -6.1548    2.7311 H   0  0  0  0  0  0  0  0  0  0  0  0
    1.3456   -8.7144    2.0900 H   0  0  0  0  0  0  0  0  0  0  0  0
    2.8037   -8.1005    1.2399 H   0  0  0  0  0  0  0  0  0  0  0  0
    6.1751   -7.1315    0.9495 H   0  0  0  0  0  0  0  0  0  0  0  0
    4.6041   -6.4460    1.3106 H   0  0  0  0  0  0  0  0  0  0  0  0
    4.8616   -8.2060    1.0342 H   0  0  0  0  0  0  0  0  0  0  0  0
    7.1904   -7.6618    4.3883 H   0  0  0  0  0  0  0  0  0  0  0  0
    8.6850   -6.2383    3.6290 H   0  0  0  0  0  0  0  0  0  0  0  0
    9.6913   -4.9954    1.3213 H   0  0  0  0  0  0  0  0  0  0  0  0
    8.6079   -5.0264   -0.0620 H   0  0  0  0  0  0  0  0  0  0  0  0
    9.0155   -6.5370    0.7267 H   0  0  0  0  0  0  0  0  0  0  0  0
    5.9856   -4.5343    2.6490 H   0  0  0  0  0  0  0  0  0  0  0  0
    7.2069   -3.5119   -0.0531 H   0  0  0  0  0  0  0  0  0  0  0  0
    4.5367   -1.5783   -1.0121 H   0  0  0  0  0  0  0  0  0  0  0  0
    6.2163   -1.9709   -1.2986 H   0  0  0  0  0  0  0  0  0  0  0  0
    5.8004   -0.6336   -0.2234 H   0  0  0  0  0  0  0  0  0  0  0  0
    4.4910   -3.1515    2.4461 H   0  0  0  0  0  0  0  0  0  0  0  0
    2.9159   -2.6658    0.0356 H   0  0  0  0  0  0  0  0  0  0  0  0
    2.4718   -3.4090    1.5488 H   0  0  0  0  0  0  0  0  0  0  0  0
    1.2504   -1.1036    1.2767 H   0  0  0  0  0  0  0  0  0  0  0  0
    3.3565    1.6811    2.3861 H   0  0  0  0  0  0  0  0  0  0  0  0
    2.6908    0.9031    3.8265 H   0  0  0  0  0  0  0  0  0  0  0  0
    1.6539    1.1931    2.4228 H   0  0  0  0  0  0  0  0  0  0  0  0
    5.1746   -0.3074    1.9446 H   0  0  0  0  0  0  0  0  0  0  0  0
    4.8146   -0.1657    4.4184 H   0  0  0  0  0  0  0  0  0  0  0  0
    5.7724   -1.5766    4.0769 H   0  0  0  0  0  0  0  0  0  0  0  0
    4.0716   -1.7356    4.4002 H   0  0  0  0  0  0  0  0  0  0  0  0
    3.4642   -9.3305    6.6797 H   0  0  0  0  0  0  0  0  0  0  0  0
    3.3323   -7.6624    6.1585 H   0  0  0  0  0  0  0  0  0  0  0  0
    1.5109   -8.8793    4.9781 H   0  0  0  0  0  0  0  0  0  0  0  0
    2.3707  -11.1809    5.4148 H   0  0  0  0  0  0  0  0  0  0  0  0
    0.2092  -10.6000    4.3159 H   0  0  0  0  0  0  0  0  0  0  0  0
    0.8974  -12.1601    3.8538 H   0  0  0  0  0  0  0  0  0  0  0  0
    1.0069  -10.7932    2.7459 H   0  0  0  0  0  0  0  0  0  0  0  0
    6.4967  -10.4106    2.8722 H   0  0  0  0  0  0  0  0  0  0  0  0
    4.9933  -10.3415    1.9299 H   0  0  0  0  0  0  0  0  0  0  0  0
    5.7566  -11.8700    2.2515 H   0  0  0  0  0  0  0  0  0  0  0  0
    4.3846  -11.1351    5.9505 H   0  0  0  0  0  0  0  0  0  0  0  0
  1  2  1  0
  1 36  1  0
  1 37  1  0
  1 38  1  0
  2  3  2  0
  2  4  1  0
  4  6  1  0
  4  5  1  0
  4 39  1  6
  6  5  1  6
  5 40  1  0
  5 41  1  0
  6 27  1  0
  6  7  1  0
  7  8  2  3
  7 25  1  0
  8  9  1  0
  8 10  1  0
  9 42  1  0
  9 43  1  0
  9 44  1  0
 10 11  2  3
 10 45  1  0
 11 12  1  0
 11 46  1  0
 12 13  1  0
 12 14  2  3
 13 47  1  0
 13 48  1  0
 13 49  1  0
 14 15  1  0
 14 50  1  0
 15 16  2  3
 15 51  1  0
 16 17  1  0
 16 18  1  0
 17 52  1  0
 17 53  1  0
 17 54  1  0
 18 23  1  0
 18 19  1  0
 18 55  1  1
 19 20  1  0
 19 56  1  0
 19 57  1  0
 20 21  2  0
 20 58  1  0
 21 22  1  0
 21 23  1  0
 22 59  1  0
 22 60  1  0
 22 61  1  0
 23 24  1  0
 23 62  1  6
 24 63  1  0
 24 64  1  0
 24 65  1  0
 25 34  1  0
 25 26  1  0
 26 27  1  0
 26 66  1  0
 26 67  1  0
 27 28  1  0
 27 68  1  1
 28 29  1  0
 28 30  1  0
 28 69  1  1
 29 70  1  0
 29 71  1  0
 29 72  1  0
 30 31  1  0
 31 32  1  0
 31 33  2  3
 32 73  1  0
 32 74  1  0
 32 75  1  0
 33 34  1  0
 33 76  1  0
 34 35  2  0
M  END
>  <i_m_ct_stereo_status>  (269) 
1

>  <s_m_source_file>  (269) 
/var/tmp/pbs.5076255.sched01/tmpk9_hntje/1089a46f3po.sdf

>  <i_m_source_file_index>  (269) 
24

>  <i_lp_mmshare_version>  (269) 
48012

>  <i_f3d_flags>  (269) 
0

>  <s_epik_input>  (269) 
W0NIM11DKD1PKVtDQEhdKFtDSDJdMSlbQ0BAXTEyW0NAQEhdM1tDSDJdTihDKD1PKS9bQ0hdPUMoW0NIM10pXE9bQ0BASF0zW0NIM10pQ1wyPUMoXFtDSDNdKS9bQ0hdPVtDSF0vQyhbQ0gzXSk9W0NIXS9bQ0hdPUMoXFtDSDNdKVtDQEBIXTRbQ0gyXVtDSF09QyhbQ0gzXSlbQ0BIXTRbQ0gzXQ==

>  <s_epik_cmdline>  (269) 
J2VwaWtfcHl0aG9uJywgJy1waHQnLCAnMi4wJywgJy1waCcsICc3LjAnLCAnLXRuJywgJzgnLCAnLW1hJywgJzIwMCcsICctaW1hZScsICc8aW5maWxlLm1hZT4nLCAnLW9tYWUnLCAnPG91dGZpbGUubWFlPic=

>  <r_lp_tautomer_probability>  (269) 
1

>  <r_epik_Ionization_Penalty>  (269) 
1.49479e-07

>  <r_epik_Ionization_Penalty_Charging>  (269) 
0

>  <r_epik_Ionization_Penalty_Neutral>  (269) 
1.49479e-07

>  <r_epik_State_Penalty>  (269) 
-0

>  <r_epik_Charging_Adjusted_Penalty>  (269) 
0

>  <i_epik_Tot_Q>  (269) 
0

>  <i_epik_Tot_abs_Q>  (269) 
0

>  <s_lp_Force_Field>  (269) 
OPLS3e

>  <r_lp_Energy>  (269) 
88.0803

>  <b_lp_Chiralities_Consistent>  (269) 
1

>  <s_lp_Variant>  (269) 
69:0-27

>  <s_i_glide_gridfile>  (269) 
pfpi4k_grid

>  <i_i_glide_lignum>  (269) 
24

>  <i_i_glide_rotatable_bonds>  (269) 
5

>  <r_i_docking_score>  (269) 
-2.37924

>  <r_i_glide_ligand_efficiency>  (269) 
-0.0679782

>  <r_i_glide_ligand_efficiency_sa>  (269) 
-0.222361

>  <r_i_glide_ligand_efficiency_ln>  (269) 
-0.522295

>  <r_i_glide_gscore>  (269) 
-2.37924

>  <r_i_glide_lipo>  (269) 
-0.646403

>  <r_i_glide_hbond>  (269) 
-0.104536

>  <r_i_glide_metal>  (269) 
-0

>  <r_i_glide_rewards>  (269) 
-0.16594

>  <r_i_glide_evdw>  (269) 
-28.9058

>  <r_i_glide_ecoul>  (269) 
-2.3748

>  <r_i_glide_erotb>  (269) 
0.357898

>  <r_i_glide_esite>  (269) 
-0.0187481

>  <r_i_glide_emodel>  (269) 
-32.8004

>  <r_i_glide_energy>  (269) 
-31.2806

>  <r_i_glide_einternal>  (269) 
5.59187

>  <r_i_glide_intrahb_reward>  (269) 
-0

>  <i_i_glide_confnum>  (269) 
1

>  <i_i_glide_posenum>  (269) 
14

>  <r_i_glide_eff_state_penalty>  (269) 
0

>  <ligand_id>  (269) 
69

>  <original_smiles>  (269) 
CC(=O)C1CC12C(=C(C)C=CC(C)=CC=C(C)C1CC=C(C)C1C)N1CC2C(C)OC(C)=CC1=O

>  <smiles>  (269) 
[H]C(=C([H])C(=C1N2C(=O)C([H])=C(C([H])([H])[H])OC([H])(C([H])([H])[H])C([H])(C2([H])[H])C12C([H])([H])C2([H])C(=O)C([H])([H])[H])C([H])([H])[H])C(=C([H])C([H])=C(C([H])([H])[H])C1([H])C([H])([H])C([H])=C(C([H])([H])[H])C1([H])C([H])([H])[H])C([H])([H])[H]

$$$$
69:26:2
     RDKit          3D

 76 79  0  0  1  0  0  0  0  0999 V2000
    1.2094    1.5140    1.8703 C   0  0  0  0  0  0  0  0  0  0  0  0
    0.2217    0.6367    2.6144 C   0  0  0  0  0  0  0  0  0  0  0  0
   -0.9839    0.8909    2.5707 O   0  0  0  0  0  0  0  0  0  0  0  0
    0.7888   -0.4809    3.4677 C   0  0  2  0  0  0  0  0  0  0  0  0
   -0.1171   -1.2220    4.4222 C   0  0  0  0  0  0  0  0  0  0  0  0
    0.9372   -0.2710    4.9807 C   0  0  1  0  0  0  0  0  0  0  0  0
    2.3482   -0.5713    5.5000 C   0  0  0  0  0  0  0  0  0  0  0  0
    3.0845   -1.7265    5.4153 C   0  0  0  0  0  0  0  0  0  0  0  0
    2.4203   -3.0171    4.9450 C   0  0  0  0  0  0  0  0  0  0  0  0
    4.5078   -1.7541    5.8014 C   0  0  0  0  0  0  0  0  0  0  0  0
    5.4719   -2.6704    5.5542 C   0  0  0  0  0  0  0  0  0  0  0  0
    5.4152   -3.8961    4.7686 C   0  0  0  0  0  0  0  0  0  0  0  0
    5.7789   -5.1820    5.4853 C   0  0  0  0  0  0  0  0  0  0  0  0
    5.0489   -3.8354    3.4681 C   0  0  0  0  0  0  0  0  0  0  0  0
    4.9260   -4.9754    2.5642 C   0  0  0  0  0  0  0  0  0  0  0  0
    4.5678   -4.9520    1.2612 C   0  0  0  0  0  0  0  0  0  0  0  0
    4.5079   -6.2605    0.4805 C   0  0  0  0  0  0  0  0  0  0  0  0
    4.2127   -3.6852    0.4657 C   0  0  2  0  0  0  0  0  0  0  0  0
    2.7315   -3.6329    0.0220 C   0  0  0  0  0  0  0  0  0  0  0  0
    2.7984   -3.3698   -1.4588 C   0  0  0  0  0  0  0  0  0  0  0  0
    4.0500   -3.2919   -1.9091 C   0  0  0  0  0  0  0  0  0  0  0  0
    4.4786   -3.0516   -3.3427 C   0  0  0  0  0  0  0  0  0  0  0  0
    5.0743   -3.4585   -0.8177 C   0  0  1  0  0  0  0  0  0  0  0  0
    5.9806   -2.2292   -0.6858 C   0  0  0  0  0  0  0  0  0  0  0  0
    2.7683    0.6291    6.1501 N   0  0  0  0  0  0  0  0  0  0  0  0
    1.8865    1.7242    5.7359 C   0  0  0  0  0  0  0  0  0  0  0  0
    0.5095    1.0697    5.5811 C   0  0  2  0  0  0  0  0  0  0  0  0
   -0.4025    1.0324    6.8669 C   0  0  1  0  0  0  0  0  0  0  0  0
   -1.8931    0.9695    6.4959 C   0  0  0  0  0  0  0  0  0  0  0  0
   -0.2196   -0.0543    7.7955 O   0  0  0  0  0  0  0  0  0  0  0  0
    1.0420   -0.2687    8.2874 C   0  0  0  0  0  0  0  0  0  0  0  0
    1.3415   -1.7525    8.3665 C   0  0  0  0  0  0  0  0  0  0  0  0
    1.9395    0.7391    8.3321 C   0  0  0  0  0  0  0  0  0  0  0  0
    3.1155    0.6743    7.4730 C   0  0  0  0  0  0  0  0  0  0  0  0
    4.2700    0.7760    7.8681 O   0  0  0  0  0  0  0  0  0  0  0  0
    1.6960    2.1964    2.5645 H   0  0  0  0  0  0  0  0  0  0  0  0
    0.6766    2.1204    1.1398 H   0  0  0  0  0  0  0  0  0  0  0  0
    1.9709    0.9229    1.3604 H   0  0  0  0  0  0  0  0  0  0  0  0
    1.5683   -1.0704    2.9746 H   0  0  0  0  0  0  0  0  0  0  0  0
   -1.1553   -0.9073    4.4404 H   0  0  0  0  0  0  0  0  0  0  0  0
   -0.0101   -2.2946    4.4766 H   0  0  0  0  0  0  0  0  0  0  0  0
    2.9878   -3.9041    5.1993 H   0  0  0  0  0  0  0  0  0  0  0  0
    2.2659   -3.0115    3.8649 H   0  0  0  0  0  0  0  0  0  0  0  0
    1.4918   -3.1941    5.4794 H   0  0  0  0  0  0  0  0  0  0  0  0
    4.8928   -0.9358    6.3811 H   0  0  0  0  0  0  0  0  0  0  0  0
    6.4395   -2.4476    5.9877 H   0  0  0  0  0  0  0  0  0  0  0  0
    6.8617   -5.2731    5.5807 H   0  0  0  0  0  0  0  0  0  0  0  0
    5.4093   -6.0809    5.0002 H   0  0  0  0  0  0  0  0  0  0  0  0
    5.3434   -5.1662    6.4863 H   0  0  0  0  0  0  0  0  0  0  0  0
    4.8288   -2.8466    3.0979 H   0  0  0  0  0  0  0  0  0  0  0  0
    5.1388   -5.9550    2.9525 H   0  0  0  0  0  0  0  0  0  0  0  0
    3.5806   -6.3527   -0.0837 H   0  0  0  0  0  0  0  0  0  0  0  0
    4.5782   -7.1242    1.1398 H   0  0  0  0  0  0  0  0  0  0  0  0
    5.3383   -6.3227   -0.2183 H   0  0  0  0  0  0  0  0  0  0  0  0
    4.3529   -2.8182    1.1055 H   0  0  0  0  0  0  0  0  0  0  0  0
    2.1842   -4.5523    0.2144 H   0  0  0  0  0  0  0  0  0  0  0  0
    2.2051   -2.8160    0.5106 H   0  0  0  0  0  0  0  0  0  0  0  0
    1.9070   -3.2558   -2.0622 H   0  0  0  0  0  0  0  0  0  0  0  0
    5.1577   -3.8400   -3.6696 H   0  0  0  0  0  0  0  0  0  0  0  0
    4.9981   -2.0968   -3.4248 H   0  0  0  0  0  0  0  0  0  0  0  0
    3.6188   -3.0306   -4.0151 H   0  0  0  0  0  0  0  0  0  0  0  0
    5.6931   -4.3212   -1.0586 H   0  0  0  0  0  0  0  0  0  0  0  0
    6.5651   -2.0666   -1.5873 H   0  0  0  0  0  0  0  0  0  0  0  0
    6.6792   -2.3267    0.1453 H   0  0  0  0  0  0  0  0  0  0  0  0
    5.3853   -1.3371   -0.5108 H   0  0  0  0  0  0  0  0  0  0  0  0
    1.8842    2.6099    6.3760 H   0  0  0  0  0  0  0  0  0  0  0  0
    2.2516    2.0537    4.7638 H   0  0  0  0  0  0  0  0  0  0  0  0
   -0.0318    1.7113    4.8896 H   0  0  0  0  0  0  0  0  0  0  0  0
   -0.2902    1.9784    7.3935 H   0  0  0  0  0  0  0  0  0  0  0  0
   -2.1573    1.7173    5.7433 H   0  0  0  0  0  0  0  0  0  0  0  0
   -2.5072    1.1622    7.3767 H   0  0  0  0  0  0  0  0  0  0  0  0
   -2.1813   -0.0061    6.1043 H   0  0  0  0  0  0  0  0  0  0  0  0
    2.4097   -1.9593    8.4082 H   0  0  0  0  0  0  0  0  0  0  0  0
    0.9029   -2.2843    7.5266 H   0  0  0  0  0  0  0  0  0  0  0  0
    0.8969   -2.1522    9.2757 H   0  0  0  0  0  0  0  0  0  0  0  0
    1.5370    1.7390    8.3808 H   0  0  0  0  0  0  0  0  0  0  0  0
  1  2  1  0
  1 36  1  0
  1 37  1  0
  1 38  1  0
  2  3  2  0
  2  4  1  0
  4  6  1  0
  4  5  1  0
  4 39  1  6
  6  5  1  1
  5 40  1  0
  5 41  1  0
  6 27  1  0
  6  7  1  0
  7  8  2  3
  7 25  1  0
  8  9  1  0
  8 10  1  0
  9 42  1  0
  9 43  1  0
  9 44  1  0
 10 11  2  3
 10 45  1  0
 11 12  1  0
 11 46  1  0
 12 13  1  0
 12 14  2  3
 13 47  1  0
 13 48  1  0
 13 49  1  0
 14 15  1  0
 14 50  1  0
 15 16  2  3
 15 51  1  0
 16 17  1  0
 16 18  1  0
 17 52  1  0
 17 53  1  0
 17 54  1  0
 18 23  1  0
 18 19  1  0
 18 55  1  1
 19 20  1  0
 19 56  1  0
 19 57  1  0
 20 21  2  0
 20 58  1  0
 21 22  1  0
 21 23  1  0
 22 59  1  0
 22 60  1  0
 22 61  1  0
 23 24  1  0
 23 62  1  6
 24 63  1  0
 24 64  1  0
 24 65  1  0
 25 34  1  0
 25 26  1  0
 26 27  1  0
 26 66  1  0
 26 67  1  0
 27 28  1  0
 27 68  1  6
 28 29  1  0
 28 30  1  0
 28 69  1  1
 29 70  1  0
 29 71  1  0
 29 72  1  0
 30 31  1  0
 31 32  1  0
 31 33  2  3
 32 73  1  0
 32 74  1  0
 32 75  1  0
 33 34  1  0
 33 76  1  0
 34 35  2  0
M  END
>  <i_m_ct_stereo_status>  (270) 
1

>  <s_m_source_file>  (270) 
/var/tmp/pbs.5076255.sched01/tmpk9_hntje/1089a46f3po.sdf

>  <i_m_source_file_index>  (270) 
24

>  <i_lp_mmshare_version>  (270) 
48012

>  <i_f3d_flags>  (270) 
0

>  <s_epik_input>  (270) 
W0NIM11DKD1PKVtDQEhdKFtDSDJdMSlbQ0BAXTEyW0NAQEhdM1tDSDJdTihDKD1PKS9bQ0hdPUMoW0NIM10pXE9bQ0BASF0zW0NIM10pQ1wyPUMoXFtDSDNdKS9bQ0hdPVtDSF0vQyhbQ0gzXSk9W0NIXS9bQ0hdPUMoXFtDSDNdKVtDQEBIXTRbQ0gyXVtDSF09QyhbQ0gzXSlbQ0BIXTRbQ0gzXQ==

>  <s_epik_cmdline>  (270) 
J2VwaWtfcHl0aG9uJywgJy1waHQnLCAnMi4wJywgJy1waCcsICc3LjAnLCAnLXRuJywgJzgnLCAnLW1hJywgJzIwMCcsICctaW1hZScsICc8aW5maWxlLm1hZT4nLCAnLW9tYWUnLCAnPG91dGZpbGUubWFlPic=

>  <r_lp_tautomer_probability>  (270) 
1

>  <r_epik_Ionization_Penalty>  (270) 
1.49479e-07

>  <r_epik_Ionization_Penalty_Charging>  (270) 
0

>  <r_epik_Ionization_Penalty_Neutral>  (270) 
1.49479e-07

>  <r_epik_State_Penalty>  (270) 
-0

>  <r_epik_Charging_Adjusted_Penalty>  (270) 
0

>  <i_epik_Tot_Q>  (270) 
0

>  <i_epik_Tot_abs_Q>  (270) 
0

>  <s_lp_Force_Field>  (270) 
OPLS3e

>  <r_lp_Energy>  (270) 
88.0803

>  <b_lp_Chiralities_Consistent>  (270) 
1

>  <s_lp_Variant>  (270) 
69:0-27

>  <s_i_glide_gridfile>  (270) 
pfpi4k_grid

>  <i_i_glide_lignum>  (270) 
24

>  <i_i_glide_rotatable_bonds>  (270) 
5

>  <r_i_docking_score>  (270) 
-1.93726

>  <r_i_glide_ligand_efficiency>  (270) 
-0.0553503

>  <r_i_glide_ligand_efficiency_sa>  (270) 
-0.181055

>  <r_i_glide_ligand_efficiency_ln>  (270) 
-0.425272

>  <r_i_glide_gscore>  (270) 
-1.93726

>  <r_i_glide_lipo>  (270) 
-0.597204

>  <r_i_glide_hbond>  (270) 
-0.00253274

>  <r_i_glide_metal>  (270) 
-0

>  <r_i_glide_rewards>  (270) 
-0.16594

>  <r_i_glide_evdw>  (270) 
-28.7729

>  <r_i_glide_ecoul>  (270) 
-0.307818

>  <r_i_glide_erotb>  (270) 
0.357898

>  <r_i_glide_esite>  (270) 
-0.0446673

>  <r_i_glide_emodel>  (270) 
-30.7973

>  <r_i_glide_energy>  (270) 
-29.0807

>  <r_i_glide_einternal>  (270) 
4.12016

>  <r_i_glide_intrahb_reward>  (270) 
-0

>  <i_i_glide_confnum>  (270) 
1

>  <i_i_glide_posenum>  (270) 
18

>  <r_i_glide_eff_state_penalty>  (270) 
0

>  <ligand_id>  (270) 
69

>  <original_smiles>  (270) 
CC(=O)C1CC12C(=C(C)C=CC(C)=CC=C(C)C1CC=C(C)C1C)N1CC2C(C)OC(C)=CC1=O

>  <smiles>  (270) 
[H]C(=C([H])C(=C1N2C(=O)C([H])=C(C([H])([H])[H])OC([H])(C([H])([H])[H])C([H])(C2([H])[H])C12C([H])([H])C2([H])C(=O)C([H])([H])[H])C([H])([H])[H])C(=C([H])C([H])=C(C([H])([H])[H])C1([H])C([H])([H])C([H])=C(C([H])([H])[H])C1([H])C([H])([H])[H])C([H])([H])[H]

$$$$
69:29:0
     RDKit          3D

 76 79  0  0  1  0  0  0  0  0999 V2000
    3.3617   -6.8868    5.3832 C   0  0  0  0  0  0  0  0  0  0  0  0
    4.4644   -5.8839    5.0770 C   0  0  0  0  0  0  0  0  0  0  0  0
    5.6184   -6.1045    5.4468 O   0  0  0  0  0  0  0  0  0  0  0  0
    4.1305   -4.6090    4.3340 C   0  0  2  0  0  0  0  0  0  0  0  0
    3.0199   -4.6185    3.3098 C   0  0  0  0  0  0  0  0  0  0  0  0
    4.4582   -4.5073    2.8305 C   0  0  1  0  0  0  0  0  0  0  0  0
    5.0697   -3.2194    2.2529 C   0  0  0  0  0  0  0  0  0  0  0  0
    4.8561   -1.8906    2.5242 C   0  0  0  0  0  0  0  0  0  0  0  0
    5.7464   -0.8183    1.8964 C   0  0  0  0  0  0  0  0  0  0  0  0
    3.8506   -1.4226    3.4837 C   0  0  0  0  0  0  0  0  0  0  0  0
    3.5006   -0.1322    3.6802 C   0  0  0  0  0  0  0  0  0  0  0  0
    2.5022    0.3212    4.6511 C   0  0  0  0  0  0  0  0  0  0  0  0
    1.8855   -0.6734    5.6202 C   0  0  0  0  0  0  0  0  0  0  0  0
    2.0989    1.6101    4.7179 C   0  0  0  0  0  0  0  0  0  0  0  0
    2.5259    2.7271    3.8817 C   0  0  0  0  0  0  0  0  0  0  0  0
    1.9295    3.9387    3.7847 C   0  0  0  0  0  0  0  0  0  0  0  0
    2.5319    5.0144    2.8926 C   0  0  0  0  0  0  0  0  0  0  0  0
    0.6388    4.3892    4.4871 C   0  0  2  0  0  0  0  0  0  0  0  0
    0.8594    4.8092    5.9644 C   0  0  0  0  0  0  0  0  0  0  0  0
   -0.1836    4.0344    6.7218 C   0  0  0  0  0  0  0  0  0  0  0  0
   -0.9299    3.2624    5.9328 C   0  0  0  0  0  0  0  0  0  0  0  0
   -2.0350    2.3294    6.3828 C   0  0  0  0  0  0  0  0  0  0  0  0
   -0.5538    3.3792    4.4728 C   0  0  1  0  0  0  0  0  0  0  0  0
   -1.7264    3.8541    3.6106 C   0  0  0  0  0  0  0  0  0  0  0  0
    5.9853   -3.6670    1.2652 N   0  0  0  0  0  0  0  0  0  0  0  0
    6.4159   -5.0217    1.6225 C   0  0  0  0  0  0  0  0  0  0  0  0
    5.1503   -5.7043    2.1458 C   0  0  2  0  0  0  0  0  0  0  0  0
    4.3366   -6.5155    1.0615 C   0  0  1  0  0  0  0  0  0  0  0  0
    3.6134   -7.7380    1.6636 C   0  0  0  0  0  0  0  0  0  0  0  0
    3.3398   -5.7831    0.3251 O   0  0  0  0  0  0  0  0  0  0  0  0
    3.7367   -4.6303   -0.3082 C   0  0  0  0  0  0  0  0  0  0  0  0
    2.6954   -3.5431   -0.1552 C   0  0  0  0  0  0  0  0  0  0  0  0
    5.0201   -4.4580   -0.6933 C   0  0  0  0  0  0  0  0  0  0  0  0
    5.7875   -3.3978   -0.0615 C   0  0  0  0  0  0  0  0  0  0  0  0
    6.2360   -2.4160   -0.6490 O   0  0  0  0  0  0  0  0  0  0  0  0
    2.6110   -6.4495    6.0427 H   0  0  0  0  0  0  0  0  0  0  0  0
    3.7749   -7.7767    5.8603 H   0  0  0  0  0  0  0  0  0  0  0  0
    2.8739   -7.2127    4.4676 H   0  0  0  0  0  0  0  0  0  0  0  0
    4.2568   -3.7125    4.9470 H   0  0  0  0  0  0  0  0  0  0  0  0
    2.4983   -5.5513    3.1213 H   0  0  0  0  0  0  0  0  0  0  0  0
    2.3764   -3.7443    3.2322 H   0  0  0  0  0  0  0  0  0  0  0  0
    6.0422   -0.0881    2.6506 H   0  0  0  0  0  0  0  0  0  0  0  0
    5.2231   -0.3026    1.0887 H   0  0  0  0  0  0  0  0  0  0  0  0
    6.6895   -1.2059    1.5097 H   0  0  0  0  0  0  0  0  0  0  0  0
    3.3445   -2.1371    4.0969 H   0  0  0  0  0  0  0  0  0  0  0  0
    3.9917    0.6165    3.0834 H   0  0  0  0  0  0  0  0  0  0  0  0
    1.3809   -1.4746    5.0773 H   0  0  0  0  0  0  0  0  0  0  0  0
    1.1384   -0.2092    6.2653 H   0  0  0  0  0  0  0  0  0  0  0  0
    2.6514   -1.1086    6.2626 H   0  0  0  0  0  0  0  0  0  0  0  0
    1.3811    1.8395    5.4922 H   0  0  0  0  0  0  0  0  0  0  0  0
    3.4141    2.6036    3.2855 H   0  0  0  0  0  0  0  0  0  0  0  0
    2.7772    5.9039    3.4712 H   0  0  0  0  0  0  0  0  0  0  0  0
    1.8189    5.3010    2.1201 H   0  0  0  0  0  0  0  0  0  0  0  0
    3.4367    4.6699    2.3951 H   0  0  0  0  0  0  0  0  0  0  0  0
    0.3085    5.2835    3.9560 H   0  0  0  0  0  0  0  0  0  0  0  0
    1.8548    4.5666    6.3345 H   0  0  0  0  0  0  0  0  0  0  0  0
    0.6983    5.8773    6.1108 H   0  0  0  0  0  0  0  0  0  0  0  0
   -0.2800    4.1087    7.7958 H   0  0  0  0  0  0  0  0  0  0  0  0
   -1.8232    1.3106    6.0608 H   0  0  0  0  0  0  0  0  0  0  0  0
   -2.9863    2.6351    5.9525 H   0  0  0  0  0  0  0  0  0  0  0  0
   -2.1337    2.3340    7.4680 H   0  0  0  0  0  0  0  0  0  0  0  0
   -0.2725    2.4006    4.0887 H   0  0  0  0  0  0  0  0  0  0  0  0
   -2.5379    3.1263    3.6099 H   0  0  0  0  0  0  0  0  0  0  0  0
   -1.4071    3.9853    2.5775 H   0  0  0  0  0  0  0  0  0  0  0  0
   -2.1151    4.8009    3.9714 H   0  0  0  0  0  0  0  0  0  0  0  0
    6.9374   -5.5756    0.8398 H   0  0  0  0  0  0  0  0  0  0  0  0
    7.1296   -4.9247    2.4410 H   0  0  0  0  0  0  0  0  0  0  0  0
    5.5364   -6.4488    2.8372 H   0  0  0  0  0  0  0  0  0  0  0  0
    5.0407   -6.9587    0.3589 H   0  0  0  0  0  0  0  0  0  0  0  0
    4.2879   -8.3486    2.2701 H   0  0  0  0  0  0  0  0  0  0  0  0
    3.2289   -8.3840    0.8763 H   0  0  0  0  0  0  0  0  0  0  0  0
    2.7534   -7.4699    2.2725 H   0  0  0  0  0  0  0  0  0  0  0  0
    3.0935   -2.5481   -0.3479 H   0  0  0  0  0  0  0  0  0  0  0  0
    2.2416   -3.5582    0.8309 H   0  0  0  0  0  0  0  0  0  0  0  0
    1.9080   -3.7187   -0.8846 H   0  0  0  0  0  0  0  0  0  0  0  0
    5.6084   -5.3504   -0.8364 H   0  0  0  0  0  0  0  0  0  0  0  0
  1  2  1  0
  1 36  1  0
  1 37  1  0
  1 38  1  0
  2  3  2  0
  2  4  1  0
  4  6  1  0
  4  5  1  0
  4 39  1  1
  6  5  1  6
  5 40  1  0
  5 41  1  0
  6 27  1  0
  6  7  1  0
  7  8  2  3
  7 25  1  0
  8  9  1  0
  8 10  1  0
  9 42  1  0
  9 43  1  0
  9 44  1  0
 10 11  2  3
 10 45  1  0
 11 12  1  0
 11 46  1  0
 12 13  1  0
 12 14  2  3
 13 47  1  0
 13 48  1  0
 13 49  1  0
 14 15  1  0
 14 50  1  0
 15 16  2  3
 15 51  1  0
 16 17  1  0
 16 18  1  0
 17 52  1  0
 17 53  1  0
 17 54  1  0
 18 23  1  0
 18 19  1  0
 18 55  1  6
 19 20  1  0
 19 56  1  0
 19 57  1  0
 20 21  2  0
 20 58  1  0
 21 22  1  0
 21 23  1  0
 22 59  1  0
 22 60  1  0
 22 61  1  0
 23 24  1  0
 23 62  1  6
 24 63  1  0
 24 64  1  0
 24 65  1  0
 25 34  1  0
 25 26  1  0
 26 27  1  0
 26 66  1  0
 26 67  1  0
 27 28  1  0
 27 68  1  1
 28 29  1  0
 28 30  1  0
 28 69  1  6
 29 70  1  0
 29 71  1  0
 29 72  1  0
 30 31  1  0
 31 32  1  0
 31 33  2  3
 32 73  1  0
 32 74  1  0
 32 75  1  0
 33 34  1  0
 33 76  1  0
 34 35  2  0
M  END
>  <i_m_ct_stereo_status>  (271) 
1

>  <s_m_source_file>  (271) 
/var/tmp/pbs.5076255.sched01/tmpk9_hntje/1089a46f3po.sdf

>  <i_m_source_file_index>  (271) 
27

>  <i_lp_mmshare_version>  (271) 
48012

>  <i_f3d_flags>  (271) 
0

>  <s_epik_input>  (271) 
W0NIM11DKD1PKVtDQEhdKFtDSDJdMSlbQ0BAXTEyW0NAQEhdM1tDSDJdTihDKD1PKS9bQ0hdPUMoW0NIM10pXE9bQ0BASF0zW0NIM10pQ1wyPUMoXFtDSDNdKS9bQ0hdPVtDSF0vQyhbQ0gzXSk9W0NIXS9bQ0hdPUMoXFtDSDNdKVtDQEBIXTRbQ0gyXVtDSF09QyhbQ0gzXSlbQ0BIXTRbQ0gzXQ==

>  <s_epik_cmdline>  (271) 
J2VwaWtfcHl0aG9uJywgJy1waHQnLCAnMi4wJywgJy1waCcsICc3LjAnLCAnLXRuJywgJzgnLCAnLW1hJywgJzIwMCcsICctaW1hZScsICc8aW5maWxlLm1hZT4nLCAnLW9tYWUnLCAnPG91dGZpbGUubWFlPic=

>  <r_lp_tautomer_probability>  (271) 
1

>  <r_epik_Ionization_Penalty>  (271) 
1.49479e-07

>  <r_epik_Ionization_Penalty_Charging>  (271) 
0

>  <r_epik_Ionization_Penalty_Neutral>  (271) 
1.49479e-07

>  <r_epik_State_Penalty>  (271) 
-0

>  <r_epik_Charging_Adjusted_Penalty>  (271) 
0

>  <i_epik_Tot_Q>  (271) 
0

>  <i_epik_Tot_abs_Q>  (271) 
0

>  <s_lp_Force_Field>  (271) 
OPLS3e

>  <r_lp_Energy>  (271) 
80.4263

>  <b_lp_Chiralities_Consistent>  (271) 
1

>  <s_lp_Variant>  (271) 
69:0-30

>  <s_i_glide_gridfile>  (271) 
pfpi4k_grid

>  <i_i_glide_lignum>  (271) 
27

>  <i_i_glide_rotatable_bonds>  (271) 
5

>  <r_i_docking_score>  (271) 
-2.10518

>  <r_i_glide_ligand_efficiency>  (271) 
-0.060148

>  <r_i_glide_ligand_efficiency_sa>  (271) 
-0.196748

>  <r_i_glide_ligand_efficiency_ln>  (271) 
-0.462134

>  <r_i_glide_gscore>  (271) 
-2.10518

>  <r_i_glide_lipo>  (271) 
-0.478199

>  <r_i_glide_hbond>  (271) 
0

>  <r_i_glide_metal>  (271) 
-0

>  <r_i_glide_rewards>  (271) 
-0.369189

>  <r_i_glide_evdw>  (271) 
-29.7172

>  <r_i_glide_ecoul>  (271) 
-0.865517

>  <r_i_glide_erotb>  (271) 
0.357898

>  <r_i_glide_esite>  (271) 
0

>  <r_i_glide_emodel>  (271) 
-31.8358

>  <r_i_glide_energy>  (271) 
-30.5827

>  <r_i_glide_einternal>  (271) 
4.54824

>  <r_i_glide_intrahb_reward>  (271) 
-0

>  <i_i_glide_confnum>  (271) 
6

>  <i_i_glide_posenum>  (271) 
20

>  <r_i_glide_eff_state_penalty>  (271) 
0

>  <ligand_id>  (271) 
69

>  <original_smiles>  (271) 
CC(=O)C1CC12C(=C(C)C=CC(C)=CC=C(C)C1CC=C(C)C1C)N1CC2C(C)OC(C)=CC1=O

>  <smiles>  (271) 
[H]C(=C([H])C(=C1N2C(=O)C([H])=C(C([H])([H])[H])OC([H])(C([H])([H])[H])C([H])(C2([H])[H])C12C([H])([H])C2([H])C(=O)C([H])([H])[H])C([H])([H])[H])C(=C([H])C([H])=C(C([H])([H])[H])C1([H])C([H])([H])C([H])=C(C([H])([H])[H])C1([H])C([H])([H])[H])C([H])([H])[H]

$$$$
69:29:1
     RDKit          3D

 76 79  0  0  1  0  0  0  0  0999 V2000
    6.3160   -5.4170    5.9398 C   0  0  0  0  0  0  0  0  0  0  0  0
    5.0686   -5.6638    5.1063 C   0  0  0  0  0  0  0  0  0  0  0  0
    4.5661   -6.7846    5.0656 O   0  0  0  0  0  0  0  0  0  0  0  0
    4.5380   -4.4993    4.2943 C   0  0  2  0  0  0  0  0  0  0  0  0
    3.3533   -4.7228    3.3851 C   0  0  0  0  0  0  0  0  0  0  0  0
    4.7279   -4.4939    2.7680 C   0  0  1  0  0  0  0  0  0  0  0  0
    5.1551   -3.1976    2.0537 C   0  0  0  0  0  0  0  0  0  0  0  0
    4.8371   -1.8770    2.2573 C   0  0  0  0  0  0  0  0  0  0  0  0
    5.5554   -0.7766    1.4719 C   0  0  0  0  0  0  0  0  0  0  0  0
    3.8685   -1.4335    3.2657 C   0  0  0  0  0  0  0  0  0  0  0  0
    3.4870   -0.1542    3.4799 C   0  0  0  0  0  0  0  0  0  0  0  0
    2.5222    0.2697    4.4961 C   0  0  0  0  0  0  0  0  0  0  0  0
    1.9318   -0.7565    5.4471 C   0  0  0  0  0  0  0  0  0  0  0  0
    2.1249    1.5566    4.6163 C   0  0  0  0  0  0  0  0  0  0  0  0
    2.5361    2.7003    3.8083 C   0  0  0  0  0  0  0  0  0  0  0  0
    1.9411    3.9156    3.7644 C   0  0  0  0  0  0  0  0  0  0  0  0
    2.5287    5.0194    2.8956 C   0  0  0  0  0  0  0  0  0  0  0  0
    0.6676    4.3424    4.5113 C   0  0  2  0  0  0  0  0  0  0  0  0
    0.9193    4.6933    6.0014 C   0  0  0  0  0  0  0  0  0  0  0  0
   -0.1151    3.8914    6.7426 C   0  0  0  0  0  0  0  0  0  0  0  0
   -0.8804    3.1592    5.9337 C   0  0  0  0  0  0  0  0  0  0  0  0
   -1.9845    2.2146    6.3613 C   0  0  0  0  0  0  0  0  0  0  0  0
   -0.5297    3.3385    4.4744 C   0  0  1  0  0  0  0  0  0  0  0  0
   -1.7138    3.8587    3.6558 C   0  0  0  0  0  0  0  0  0  0  0  0
    6.0330   -3.6241    1.0259 N   0  0  0  0  0  0  0  0  0  0  0  0
    6.6325   -4.8980    1.4324 C   0  0  0  0  0  0  0  0  0  0  0  0
    5.4939   -5.6601    2.1149 C   0  0  2  0  0  0  0  0  0  0  0  0
    4.6882   -6.6304    1.1632 C   0  0  1  0  0  0  0  0  0  0  0  0
    4.1410   -7.8713    1.8973 C   0  0  0  0  0  0  0  0  0  0  0  0
    3.5677   -6.0600    0.4592 O   0  0  0  0  0  0  0  0  0  0  0  0
    3.7894   -4.9205   -0.2748 C   0  0  0  0  0  0  0  0  0  0  0  0
    2.6522   -3.9353   -0.1157 C   0  0  0  0  0  0  0  0  0  0  0  0
    5.0106   -4.6487   -0.7821 C   0  0  0  0  0  0  0  0  0  0  0  0
    5.7101   -3.4731   -0.2941 C   0  0  0  0  0  0  0  0  0  0  0  0
    6.0205   -2.5046   -0.9824 O   0  0  0  0  0  0  0  0  0  0  0  0
    7.1261   -5.0884    5.2898 H   0  0  0  0  0  0  0  0  0  0  0  0
    6.6337   -6.3352    6.4369 H   0  0  0  0  0  0  0  0  0  0  0  0
    6.1399   -4.6503    6.6961 H   0  0  0  0  0  0  0  0  0  0  0  0
    4.6031   -3.5405    4.8162 H   0  0  0  0  0  0  0  0  0  0  0  0
    2.9268   -5.7206    3.3426 H   0  0  0  0  0  0  0  0  0  0  0  0
    2.6033   -3.9435    3.2835 H   0  0  0  0  0  0  0  0  0  0  0  0
    5.8388    0.0397    2.1356 H   0  0  0  0  0  0  0  0  0  0  0  0
    4.9153   -0.3809    0.6802 H   0  0  0  0  0  0  0  0  0  0  0  0
    6.4991   -1.0991    1.0305 H   0  0  0  0  0  0  0  0  0  0  0  0
    3.4151   -2.1638    3.9005 H   0  0  0  0  0  0  0  0  0  0  0  0
    3.9185    0.6138    2.8633 H   0  0  0  0  0  0  0  0  0  0  0  0
    1.4081   -1.5347    4.8890 H   0  0  0  0  0  0  0  0  0  0  0  0
    1.2084   -0.3119    6.1313 H   0  0  0  0  0  0  0  0  0  0  0  0
    2.7165   -1.2170    6.0479 H   0  0  0  0  0  0  0  0  0  0  0  0
    1.4276    1.7630    5.4163 H   0  0  0  0  0  0  0  0  0  0  0  0
    3.4116    2.5965    3.1909 H   0  0  0  0  0  0  0  0  0  0  0  0
    2.7855    5.8912    3.4972 H   0  0  0  0  0  0  0  0  0  0  0  0
    1.8066    5.3330    2.1441 H   0  0  0  0  0  0  0  0  0  0  0  0
    3.4216    4.6899    2.3684 H   0  0  0  0  0  0  0  0  0  0  0  0
    0.3340    5.2618    4.0258 H   0  0  0  0  0  0  0  0  0  0  0  0
    1.9200    4.4275    6.3419 H   0  0  0  0  0  0  0  0  0  0  0  0
    0.7682    5.7547    6.1985 H   0  0  0  0  0  0  0  0  0  0  0  0
   -0.1927    3.9191    7.8197 H   0  0  0  0  0  0  0  0  0  0  0  0
   -1.7866    1.2102    5.9893 H   0  0  0  0  0  0  0  0  0  0  0  0
   -2.9414    2.5462    5.9626 H   0  0  0  0  0  0  0  0  0  0  0  0
   -2.0638    2.1715    7.4468 H   0  0  0  0  0  0  0  0  0  0  0  0
   -0.2585    2.3766    4.0436 H   0  0  0  0  0  0  0  0  0  0  0  0
   -2.5311    3.1376    3.6354 H   0  0  0  0  0  0  0  0  0  0  0  0
   -1.4123    4.0380    2.6246 H   0  0  0  0  0  0  0  0  0  0  0  0
   -2.0880    4.7887    4.0711 H   0  0  0  0  0  0  0  0  0  0  0  0
    7.1433   -5.4588    0.6483 H   0  0  0  0  0  0  0  0  0  0  0  0
    7.4012   -4.6609    2.1655 H   0  0  0  0  0  0  0  0  0  0  0  0
    6.0113   -6.2991    2.8264 H   0  0  0  0  0  0  0  0  0  0  0  0
    5.3835   -7.0557    0.4427 H   0  0  0  0  0  0  0  0  0  0  0  0
    4.9236   -8.3625    2.4832 H   0  0  0  0  0  0  0  0  0  0  0  0
    3.7588   -8.5994    1.1786 H   0  0  0  0  0  0  0  0  0  0  0  0
    3.3218   -7.6425    2.5771 H   0  0  0  0  0  0  0  0  0  0  0  0
    2.9293   -2.9242   -0.4110 H   0  0  0  0  0  0  0  0  0  0  0  0
    2.2828   -3.9228    0.9040 H   0  0  0  0  0  0  0  0  0  0  0  0
    1.8393   -4.2496   -0.7651 H   0  0  0  0  0  0  0  0  0  0  0  0
    5.6735   -5.4865   -0.9070 H   0  0  0  0  0  0  0  0  0  0  0  0
  1  2  1  0
  1 36  1  0
  1 37  1  0
  1 38  1  0
  2  3  2  0
  2  4  1  0
  4  6  1  0
  4  5  1  0
  4 39  1  1
  6  5  1  6
  5 40  1  0
  5 41  1  0
  6 27  1  0
  6  7  1  0
  7  8  2  3
  7 25  1  0
  8  9  1  0
  8 10  1  0
  9 42  1  0
  9 43  1  0
  9 44  1  0
 10 11  2  3
 10 45  1  0
 11 12  1  0
 11 46  1  0
 12 13  1  0
 12 14  2  3
 13 47  1  0
 13 48  1  0
 13 49  1  0
 14 15  1  0
 14 50  1  0
 15 16  2  3
 15 51  1  0
 16 17  1  0
 16 18  1  0
 17 52  1  0
 17 53  1  0
 17 54  1  0
 18 23  1  0
 18 19  1  0
 18 55  1  6
 19 20  1  0
 19 56  1  0
 19 57  1  0
 20 21  2  0
 20 58  1  0
 21 22  1  0
 21 23  1  0
 22 59  1  0
 22 60  1  0
 22 61  1  0
 23 24  1  0
 23 62  1  6
 24 63  1  0
 24 64  1  0
 24 65  1  0
 25 34  1  0
 25 26  1  0
 26 27  1  0
 26 66  1  0
 26 67  1  0
 27 28  1  0
 27 68  1  1
 28 29  1  0
 28 30  1  0
 28 69  1  6
 29 70  1  0
 29 71  1  0
 29 72  1  0
 30 31  1  0
 31 32  1  0
 31 33  2  3
 32 73  1  0
 32 74  1  0
 32 75  1  0
 33 34  1  0
 33 76  1  0
 34 35  2  0
M  END
>  <i_m_ct_stereo_status>  (272) 
1

>  <s_m_source_file>  (272) 
/var/tmp/pbs.5076255.sched01/tmpk9_hntje/1089a46f3po.sdf

>  <i_m_source_file_index>  (272) 
27

>  <i_lp_mmshare_version>  (272) 
48012

>  <i_f3d_flags>  (272) 
0

>  <s_epik_input>  (272) 
W0NIM11DKD1PKVtDQEhdKFtDSDJdMSlbQ0BAXTEyW0NAQEhdM1tDSDJdTihDKD1PKS9bQ0hdPUMoW0NIM10pXE9bQ0BASF0zW0NIM10pQ1wyPUMoXFtDSDNdKS9bQ0hdPVtDSF0vQyhbQ0gzXSk9W0NIXS9bQ0hdPUMoXFtDSDNdKVtDQEBIXTRbQ0gyXVtDSF09QyhbQ0gzXSlbQ0BIXTRbQ0gzXQ==

>  <s_epik_cmdline>  (272) 
J2VwaWtfcHl0aG9uJywgJy1waHQnLCAnMi4wJywgJy1waCcsICc3LjAnLCAnLXRuJywgJzgnLCAnLW1hJywgJzIwMCcsICctaW1hZScsICc8aW5maWxlLm1hZT4nLCAnLW9tYWUnLCAnPG91dGZpbGUubWFlPic=

>  <r_lp_tautomer_probability>  (272) 
1

>  <r_epik_Ionization_Penalty>  (272) 
1.49479e-07

>  <r_epik_Ionization_Penalty_Charging>  (272) 
0

>  <r_epik_Ionization_Penalty_Neutral>  (272) 
1.49479e-07

>  <r_epik_State_Penalty>  (272) 
-0

>  <r_epik_Charging_Adjusted_Penalty>  (272) 
0

>  <i_epik_Tot_Q>  (272) 
0

>  <i_epik_Tot_abs_Q>  (272) 
0

>  <s_lp_Force_Field>  (272) 
OPLS3e

>  <r_lp_Energy>  (272) 
80.4263

>  <b_lp_Chiralities_Consistent>  (272) 
1

>  <s_lp_Variant>  (272) 
69:0-30

>  <s_i_glide_gridfile>  (272) 
pfpi4k_grid

>  <i_i_glide_lignum>  (272) 
27

>  <i_i_glide_rotatable_bonds>  (272) 
5

>  <r_i_docking_score>  (272) 
-2.01338

>  <r_i_glide_ligand_efficiency>  (272) 
-0.0575252

>  <r_i_glide_ligand_efficiency_sa>  (272) 
-0.188169

>  <r_i_glide_ligand_efficiency_ln>  (272) 
-0.441982

>  <r_i_glide_gscore>  (272) 
-2.01338

>  <r_i_glide_lipo>  (272) 
-0.458956

>  <r_i_glide_hbond>  (272) 
0

>  <r_i_glide_metal>  (272) 
-0

>  <r_i_glide_rewards>  (272) 
-0.368602

>  <r_i_glide_evdw>  (272) 
-29.7001

>  <r_i_glide_ecoul>  (272) 
-0.391445

>  <r_i_glide_erotb>  (272) 
0.357898

>  <r_i_glide_esite>  (272) 
0

>  <r_i_glide_emodel>  (272) 
-31.8833

>  <r_i_glide_energy>  (272) 
-30.0916

>  <r_i_glide_einternal>  (272) 
2.78914

>  <r_i_glide_intrahb_reward>  (272) 
-0

>  <i_i_glide_confnum>  (272) 
6

>  <i_i_glide_posenum>  (272) 
7

>  <r_i_glide_eff_state_penalty>  (272) 
0

>  <ligand_id>  (272) 
69

>  <original_smiles>  (272) 
CC(=O)C1CC12C(=C(C)C=CC(C)=CC=C(C)C1CC=C(C)C1C)N1CC2C(C)OC(C)=CC1=O

>  <smiles>  (272) 
[H]C(=C([H])C(=C1N2C(=O)C([H])=C(C([H])([H])[H])OC([H])(C([H])([H])[H])C([H])(C2([H])[H])C12C([H])([H])C2([H])C(=O)C([H])([H])[H])C([H])([H])[H])C(=C([H])C([H])=C(C([H])([H])[H])C1([H])C([H])([H])C([H])=C(C([H])([H])[H])C1([H])C([H])([H])[H])C([H])([H])[H]

$$$$
69:29:2
     RDKit          3D

 76 79  0  0  1  0  0  0  0  0999 V2000
    4.9702    0.5056    6.8115 C   0  0  0  0  0  0  0  0  0  0  0  0
    4.6701    0.3108    5.3310 C   0  0  0  0  0  0  0  0  0  0  0  0
    5.4260    0.7738    4.4834 O   0  0  0  0  0  0  0  0  0  0  0  0
    3.4138   -0.4235    4.9429 C   0  0  2  0  0  0  0  0  0  0  0  0
    2.7168   -0.0343    3.6642 C   0  0  0  0  0  0  0  0  0  0  0  0
    2.0521    0.3020    5.0032 C   0  0  1  0  0  0  0  0  0  0  0  0
    0.8771   -0.4425    5.6002 C   0  0  0  0  0  0  0  0  0  0  0  0
    0.4637   -1.7531    5.5813 C   0  0  0  0  0  0  0  0  0  0  0  0
   -0.7144   -2.2317    6.4181 C   0  0  0  0  0  0  0  0  0  0  0  0
    1.1547   -2.7814    4.7810 C   0  0  0  0  0  0  0  0  0  0  0  0
    0.9702   -4.1067    4.8835 C   0  0  0  0  0  0  0  0  0  0  0  0
    1.6853   -5.1066    4.0824 C   0  0  0  0  0  0  0  0  0  0  0  0
    2.4095   -4.6643    2.8228 C   0  0  0  0  0  0  0  0  0  0  0  0
    1.6977   -6.4102    4.4156 C   0  0  0  0  0  0  0  0  0  0  0  0
    1.0209   -7.0587    5.5363 C   0  0  0  0  0  0  0  0  0  0  0  0
    0.9740   -8.3923    5.7936 C   0  0  0  0  0  0  0  0  0  0  0  0
    0.2721   -8.9070    7.0427 C   0  0  0  0  0  0  0  0  0  0  0  0
    1.5718   -9.5189    4.9447 C   0  0  2  0  0  0  0  0  0  0  0  0
    3.0973   -9.7048    5.1834 C   0  0  0  0  0  0  0  0  0  0  0  0
    3.6822   -9.6943    3.7973 C   0  0  0  0  0  0  0  0  0  0  0  0
    2.7620   -9.5291    2.8433 C   0  0  0  0  0  0  0  0  0  0  0  0
    3.0278   -9.4049    1.3676 C   0  0  0  0  0  0  0  0  0  0  0  0
    1.3525   -9.4332    3.3970 C   0  0  1  0  0  0  0  0  0  0  0  0
    0.4417  -10.5480    2.8817 C   0  0  0  0  0  0  0  0  0  0  0  0
    0.1514    0.5705    6.3278 N   0  0  0  0  0  0  0  0  0  0  0  0
    1.1104    1.6098    6.7129 C   0  0  0  0  0  0  0  0  0  0  0  0
    2.0222    1.7623    5.4948 C   0  0  2  0  0  0  0  0  0  0  0  0
    1.5837    2.8845    4.4758 C   0  0  1  0  0  0  0  0  0  0  0  0
    2.7915    3.5321    3.7704 C   0  0  0  0  0  0  0  0  0  0  0  0
    0.6685    2.5022    3.4398 O   0  0  0  0  0  0  0  0  0  0  0  0
   -0.4944    1.8596    3.8119 C   0  0  0  0  0  0  0  0  0  0  0  0
   -0.7864    0.6989    2.9004 C   0  0  0  0  0  0  0  0  0  0  0  0
   -1.0289    2.0828    5.0350 C   0  0  0  0  0  0  0  0  0  0  0  0
   -1.1005    0.9635    5.9654 C   0  0  0  0  0  0  0  0  0  0  0  0
   -2.1270    0.4787    6.3987 O   0  0  0  0  0  0  0  0  0  0  0  0
    4.1451    1.0209    7.3063 H   0  0  0  0  0  0  0  0  0  0  0  0
    5.8733    1.1050    6.9663 H   0  0  0  0  0  0  0  0  0  0  0  0
    5.1047   -0.4601    7.3111 H   0  0  0  0  0  0  0  0  0  0  0  0
    3.4606   -1.4962    5.1556 H   0  0  0  0  0  0  0  0  0  0  0  0
    3.1488    0.7698    3.0835 H   0  0  0  0  0  0  0  0  0  0  0  0
    2.2609   -0.7904    3.0388 H   0  0  0  0  0  0  0  0  0  0  0  0
   -0.5231   -3.1657    6.9451 H   0  0  0  0  0  0  0  0  0  0  0  0
   -1.6057   -2.3404    5.7877 H   0  0  0  0  0  0  0  0  0  0  0  0
   -0.9272   -1.5230    7.2111 H   0  0  0  0  0  0  0  0  0  0  0  0
    1.8665   -2.4631    4.0484 H   0  0  0  0  0  0  0  0  0  0  0  0
    0.2636   -4.4834    5.5977 H   0  0  0  0  0  0  0  0  0  0  0  0
    1.7216   -4.1711    2.1303 H   0  0  0  0  0  0  0  0  0  0  0  0
    2.8358   -5.5177    2.2925 H   0  0  0  0  0  0  0  0  0  0  0  0
    3.2276   -3.9809    3.0555 H   0  0  0  0  0  0  0  0  0  0  0  0
    2.2982   -7.0397    3.7698 H   0  0  0  0  0  0  0  0  0  0  0  0
    0.5079   -6.4527    6.2519 H   0  0  0  0  0  0  0  0  0  0  0  0
    0.9748   -9.4516    7.6690 H   0  0  0  0  0  0  0  0  0  0  0  0
   -0.5354   -9.5969    6.7745 H   0  0  0  0  0  0  0  0  0  0  0  0
   -0.1577   -8.1030    7.6355 H   0  0  0  0  0  0  0  0  0  0  0  0
    1.0957  -10.4351    5.2919 H   0  0  0  0  0  0  0  0  0  0  0  0
    3.5400   -8.9140    5.7858 H   0  0  0  0  0  0  0  0  0  0  0  0
    3.3208  -10.6569    5.6680 H   0  0  0  0  0  0  0  0  0  0  0  0
    4.7407   -9.7900    3.6310 H   0  0  0  0  0  0  0  0  0  0  0  0
    2.6643   -8.4522    0.9903 H   0  0  0  0  0  0  0  0  0  0  0  0
    2.5243  -10.1891    0.8230 H   0  0  0  0  0  0  0  0  0  0  0  0
    4.0947   -9.4782    1.1445 H   0  0  0  0  0  0  0  0  0  0  0  0
    0.8902   -8.5042    3.0775 H   0  0  0  0  0  0  0  0  0  0  0  0
    0.3007  -10.4521    1.8060 H   0  0  0  0  0  0  0  0  0  0  0  0
   -0.5419  -10.4569    3.3287 H   0  0  0  0  0  0  0  0  0  0  0  0
    0.8314  -11.5448    3.0767 H   0  0  0  0  0  0  0  0  0  0  0  0
    0.6610    2.5327    7.0775 H   0  0  0  0  0  0  0  0  0  0  0  0
    1.6799    1.2093    7.5540 H   0  0  0  0  0  0  0  0  0  0  0  0
    2.9502    2.1350    5.9132 H   0  0  0  0  0  0  0  0  0  0  0  0
    1.1490    3.7122    5.0328 H   0  0  0  0  0  0  0  0  0  0  0  0
    3.5567    3.8505    4.4900 H   0  0  0  0  0  0  0  0  0  0  0  0
    2.4777    4.4135    3.2068 H   0  0  0  0  0  0  0  0  0  0  0  0
    3.2830    2.8632    3.0598 H   0  0  0  0  0  0  0  0  0  0  0  0
   -1.4957    0.0028    3.3418 H   0  0  0  0  0  0  0  0  0  0  0  0
    0.1099    0.1616    2.6084 H   0  0  0  0  0  0  0  0  0  0  0  0
   -1.2396    1.0886    1.9913 H   0  0  0  0  0  0  0  0  0  0  0  0
   -0.7580    3.0031    5.5307 H   0  0  0  0  0  0  0  0  0  0  0  0
  1  2  1  0
  1 36  1  0
  1 37  1  0
  1 38  1  0
  2  3  2  0
  2  4  1  0
  4  6  1  0
  4  5  1  0
  4 39  1  6
  6  5  1  6
  5 40  1  0
  5 41  1  0
  6 27  1  0
  6  7  1  0
  7  8  2  3
  7 25  1  0
  8  9  1  0
  8 10  1  0
  9 42  1  0
  9 43  1  0
  9 44  1  0
 10 11  2  3
 10 45  1  0
 11 12  1  0
 11 46  1  0
 12 13  1  0
 12 14  2  3
 13 47  1  0
 13 48  1  0
 13 49  1  0
 14 15  1  0
 14 50  1  0
 15 16  2  3
 15 51  1  0
 16 17  1  0
 16 18  1  0
 17 52  1  0
 17 53  1  0
 17 54  1  0
 18 23  1  0
 18 19  1  0
 18 55  1  1
 19 20  1  0
 19 56  1  0
 19 57  1  0
 20 21  2  0
 20 58  1  0
 21 22  1  0
 21 23  1  0
 22 59  1  0
 22 60  1  0
 22 61  1  0
 23 24  1  0
 23 62  1  1
 24 63  1  0
 24 64  1  0
 24 65  1  0
 25 34  1  0
 25 26  1  0
 26 27  1  0
 26 66  1  0
 26 67  1  0
 27 28  1  0
 27 68  1  1
 28 29  1  0
 28 30  1  0
 28 69  1  1
 29 70  1  0
 29 71  1  0
 29 72  1  0
 30 31  1  0
 31 32  1  0
 31 33  2  3
 32 73  1  0
 32 74  1  0
 32 75  1  0
 33 34  1  0
 33 76  1  0
 34 35  2  0
M  END
>  <i_m_ct_stereo_status>  (273) 
1

>  <s_m_source_file>  (273) 
/var/tmp/pbs.5076255.sched01/tmpk9_hntje/1089a46f3po.sdf

>  <i_m_source_file_index>  (273) 
27

>  <i_lp_mmshare_version>  (273) 
48012

>  <i_f3d_flags>  (273) 
0

>  <s_epik_input>  (273) 
W0NIM11DKD1PKVtDQEhdKFtDSDJdMSlbQ0BAXTEyW0NAQEhdM1tDSDJdTihDKD1PKS9bQ0hdPUMoW0NIM10pXE9bQ0BASF0zW0NIM10pQ1wyPUMoXFtDSDNdKS9bQ0hdPVtDSF0vQyhbQ0gzXSk9W0NIXS9bQ0hdPUMoXFtDSDNdKVtDQEBIXTRbQ0gyXVtDSF09QyhbQ0gzXSlbQ0BIXTRbQ0gzXQ==

>  <s_epik_cmdline>  (273) 
J2VwaWtfcHl0aG9uJywgJy1waHQnLCAnMi4wJywgJy1waCcsICc3LjAnLCAnLXRuJywgJzgnLCAnLW1hJywgJzIwMCcsICctaW1hZScsICc8aW5maWxlLm1hZT4nLCAnLW9tYWUnLCAnPG91dGZpbGUubWFlPic=

>  <r_lp_tautomer_probability>  (273) 
1

>  <r_epik_Ionization_Penalty>  (273) 
1.49479e-07

>  <r_epik_Ionization_Penalty_Charging>  (273) 
0

>  <r_epik_Ionization_Penalty_Neutral>  (273) 
1.49479e-07

>  <r_epik_State_Penalty>  (273) 
-0

>  <r_epik_Charging_Adjusted_Penalty>  (273) 
0

>  <i_epik_Tot_Q>  (273) 
0

>  <i_epik_Tot_abs_Q>  (273) 
0

>  <s_lp_Force_Field>  (273) 
OPLS3e

>  <r_lp_Energy>  (273) 
80.4263

>  <b_lp_Chiralities_Consistent>  (273) 
1

>  <s_lp_Variant>  (273) 
69:0-30

>  <s_i_glide_gridfile>  (273) 
pfpi4k_grid

>  <i_i_glide_lignum>  (273) 
27

>  <i_i_glide_rotatable_bonds>  (273) 
5

>  <r_i_docking_score>  (273) 
-1.8633

>  <r_i_glide_ligand_efficiency>  (273) 
-0.0532371

>  <r_i_glide_ligand_efficiency_sa>  (273) 
-0.174142

>  <r_i_glide_ligand_efficiency_ln>  (273) 
-0.409035

>  <r_i_glide_gscore>  (273) 
-1.8633

>  <r_i_glide_lipo>  (273) 
-0.0983267

>  <r_i_glide_hbond>  (273) 
-0.16

>  <r_i_glide_metal>  (273) 
-0

>  <r_i_glide_rewards>  (273) 
-0.202258

>  <r_i_glide_evdw>  (273) 
-25.8762

>  <r_i_glide_ecoul>  (273) 
-2.81116

>  <r_i_glide_erotb>  (273) 
0.357898

>  <r_i_glide_esite>  (273) 
-0.0451297

>  <r_i_glide_emodel>  (273) 
-29.3317

>  <r_i_glide_energy>  (273) 
-28.6873

>  <r_i_glide_einternal>  (273) 
4.12158

>  <r_i_glide_intrahb_reward>  (273) 
-0

>  <i_i_glide_confnum>  (273) 
5

>  <i_i_glide_posenum>  (273) 
12

>  <r_i_glide_eff_state_penalty>  (273) 
0

>  <ligand_id>  (273) 
69

>  <original_smiles>  (273) 
CC(=O)C1CC12C(=C(C)C=CC(C)=CC=C(C)C1CC=C(C)C1C)N1CC2C(C)OC(C)=CC1=O

>  <smiles>  (273) 
[H]C(=C([H])C(=C1N2C(=O)C([H])=C(C([H])([H])[H])OC([H])(C([H])([H])[H])C([H])(C2([H])[H])C12C([H])([H])C2([H])C(=O)C([H])([H])[H])C([H])([H])[H])C(=C([H])C([H])=C(C([H])([H])[H])C1([H])C([H])([H])C([H])=C(C([H])([H])[H])C1([H])C([H])([H])[H])C([H])([H])[H]

$$$$
69:30:0
     RDKit          3D

 76 79  0  0  1  0  0  0  0  0999 V2000
   -0.1299   -4.8174    5.6946 C   0  0  0  0  0  0  0  0  0  0  0  0
    0.7023   -3.5642    5.9076 C   0  0  0  0  0  0  0  0  0  0  0  0
    0.2289   -2.6430    6.5631 O   0  0  0  0  0  0  0  0  0  0  0  0
    2.0865   -3.5318    5.2626 C   0  0  2  0  0  0  0  0  0  0  0  0
    3.0699   -2.4825    5.7015 C   0  0  0  0  0  0  0  0  0  0  0  0
    2.4712   -2.3906    4.3159 C   0  0  1  0  0  0  0  0  0  0  0  0
    3.3001   -2.6328    3.0033 C   0  0  0  0  0  0  0  0  0  0  0  0
    4.1138   -3.6788    2.6513 C   0  0  0  0  0  0  0  0  0  0  0  0
    4.5190   -4.7726    3.6404 C   0  0  0  0  0  0  0  0  0  0  0  0
    4.5982   -3.7783    1.2512 C   0  0  0  0  0  0  0  0  0  0  0  0
    5.1482   -4.8219    0.5790 C   0  0  0  0  0  0  0  0  0  0  0  0
    5.3874   -6.1634    1.0474 C   0  0  0  0  0  0  0  0  0  0  0  0
    6.8192   -6.6337    1.2281 C   0  0  0  0  0  0  0  0  0  0  0  0
    4.3639   -7.0265    1.3158 C   0  0  0  0  0  0  0  0  0  0  0  0
    2.9364   -6.7246    1.2474 C   0  0  0  0  0  0  0  0  0  0  0  0
    1.9428   -7.5432    1.6842 C   0  0  0  0  0  0  0  0  0  0  0  0
    0.5095   -7.0767    1.5022 C   0  0  0  0  0  0  0  0  0  0  0  0
    2.1200   -8.9312    2.3562 C   0  0  2  0  0  0  0  0  0  0  0  0
    0.7993   -9.6769    2.7652 C   0  0  0  0  0  0  0  0  0  0  0  0
    0.9833  -10.0181    4.2186 C   0  0  0  0  0  0  0  0  0  0  0  0
    2.1631   -9.6185    4.6834 C   0  0  0  0  0  0  0  0  0  0  0  0
    2.6541   -9.8303    6.1073 C   0  0  0  0  0  0  0  0  0  0  0  0
    3.0250   -8.9628    3.6376 C   0  0  1  0  0  0  0  0  0  0  0  0
    4.3329   -9.7808    3.4744 C   0  0  0  0  0  0  0  0  0  0  0  0
    2.9006   -1.6098    2.1505 N   0  0  0  0  0  0  0  0  0  0  0  0
    1.4939   -1.3119    2.4474 C   0  0  0  0  0  0  0  0  0  0  0  0
    1.4266   -1.3109    3.9779 C   0  0  2  0  0  0  0  0  0  0  0  0
    1.5837    0.1271    4.6296 C   0  0  1  0  0  0  0  0  0  0  0  0
    0.8167    0.2868    5.9502 C   0  0  0  0  0  0  0  0  0  0  0  0
    2.9214    0.5871    4.9240 O   0  0  0  0  0  0  0  0  0  0  0  0
    3.8266    0.5646    3.9068 C   0  0  0  0  0  0  0  0  0  0  0  0
    5.2107    0.1746    4.4232 C   0  0  0  0  0  0  0  0  0  0  0  0
    3.4528    0.6035    2.6134 C   0  0  0  0  0  0  0  0  0  0  0  0
    3.7400   -0.5777    1.8258 C   0  0  0  0  0  0  0  0  0  0  0  0
    4.6751   -0.6430    1.0168 O   0  0  0  0  0  0  0  0  0  0  0  0
   -0.2736   -4.9846    4.6273 H   0  0  0  0  0  0  0  0  0  0  0  0
   -1.1087   -4.6770    6.1594 H   0  0  0  0  0  0  0  0  0  0  0  0
    0.3559   -5.6845    6.1432 H   0  0  0  0  0  0  0  0  0  0  0  0
    2.4900   -4.5265    5.0651 H   0  0  0  0  0  0  0  0  0  0  0  0
    2.7583   -1.7580    6.4479 H   0  0  0  0  0  0  0  0  0  0  0  0
    4.1216   -2.7588    5.7920 H   0  0  0  0  0  0  0  0  0  0  0  0
    5.4909   -5.1816    3.3792 H   0  0  0  0  0  0  0  0  0  0  0  0
    3.7923   -5.5812    3.6196 H   0  0  0  0  0  0  0  0  0  0  0  0
    4.6351   -4.4405    4.6709 H   0  0  0  0  0  0  0  0  0  0  0  0
    4.5036   -2.9080    0.6113 H   0  0  0  0  0  0  0  0  0  0  0  0
    5.4511   -4.5977   -0.4315 H   0  0  0  0  0  0  0  0  0  0  0  0
    7.4497   -6.3070    0.3967 H   0  0  0  0  0  0  0  0  0  0  0  0
    6.8817   -7.7177    1.2963 H   0  0  0  0  0  0  0  0  0  0  0  0
    7.2357   -6.2246    2.1447 H   0  0  0  0  0  0  0  0  0  0  0  0
    4.6469   -8.0259    1.6135 H   0  0  0  0  0  0  0  0  0  0  0  0
    2.6415   -5.7906    0.8136 H   0  0  0  0  0  0  0  0  0  0  0  0
    0.0110   -6.9677    2.4641 H   0  0  0  0  0  0  0  0  0  0  0  0
   -0.0352   -7.7851    0.8849 H   0  0  0  0  0  0  0  0  0  0  0  0
    0.4572   -6.1066    0.9906 H   0  0  0  0  0  0  0  0  0  0  0  0
    2.6001   -9.5554    1.5980 H   0  0  0  0  0  0  0  0  0  0  0  0
   -0.1346   -9.0997    2.7267 H   0  0  0  0  0  0  0  0  0  0  0  0
    0.6471  -10.5868    2.1772 H   0  0  0  0  0  0  0  0  0  0  0  0
    0.2167  -10.5325    4.7878 H   0  0  0  0  0  0  0  0  0  0  0  0
    2.9944   -8.8914    6.5492 H   0  0  0  0  0  0  0  0  0  0  0  0
    3.4822  -10.5390    6.1091 H   0  0  0  0  0  0  0  0  0  0  0  0
    1.8654  -10.2491    6.7374 H   0  0  0  0  0  0  0  0  0  0  0  0
    3.2470   -7.9497    3.9780 H   0  0  0  0  0  0  0  0  0  0  0  0
    4.9051   -9.8038    4.4095 H   0  0  0  0  0  0  0  0  0  0  0  0
    5.0197   -9.4262    2.7055 H   0  0  0  0  0  0  0  0  0  0  0  0
    4.0885  -10.8190    3.2364 H   0  0  0  0  0  0  0  0  0  0  0  0
    1.0611   -0.4301    1.9755 H   0  0  0  0  0  0  0  0  0  0  0  0
    0.9131   -2.1483    2.0746 H   0  0  0  0  0  0  0  0  0  0  0  0
    0.4069   -1.6481    4.1782 H   0  0  0  0  0  0  0  0  0  0  0  0
    1.1115    0.8489    3.9603 H   0  0  0  0  0  0  0  0  0  0  0  0
   -0.2159   -0.0511    5.8536 H   0  0  0  0  0  0  0  0  0  0  0  0
    0.7996    1.3363    6.2495 H   0  0  0  0  0  0  0  0  0  0  0  0
    1.2745   -0.2593    6.7734 H   0  0  0  0  0  0  0  0  0  0  0  0
    5.9455    0.0764    3.6210 H   0  0  0  0  0  0  0  0  0  0  0  0
    5.1846   -0.7421    5.0030 H   0  0  0  0  0  0  0  0  0  0  0  0
    5.5658    0.9677    5.0765 H   0  0  0  0  0  0  0  0  0  0  0  0
    2.4805    1.0349    2.3724 H   0  0  0  0  0  0  0  0  0  0  0  0
  1  2  1  0
  1 36  1  0
  1 37  1  0
  1 38  1  0
  2  3  2  0
  2  4  1  0
  4  6  1  0
  4  5  1  0
  4 39  1  6
  6  5  1  1
  5 40  1  0
  5 41  1  0
  6 27  1  0
  6  7  1  0
  7  8  2  3
  7 25  1  0
  8  9  1  0
  8 10  1  0
  9 42  1  0
  9 43  1  0
  9 44  1  0
 10 11  2  3
 10 45  1  0
 11 12  1  0
 11 46  1  0
 12 13  1  0
 12 14  2  3
 13 47  1  0
 13 48  1  0
 13 49  1  0
 14 15  1  0
 14 50  1  0
 15 16  2  3
 15 51  1  0
 16 17  1  0
 16 18  1  0
 17 52  1  0
 17 53  1  0
 17 54  1  0
 18 23  1  0
 18 19  1  0
 18 55  1  6
 19 20  1  0
 19 56  1  0
 19 57  1  0
 20 21  2  0
 20 58  1  0
 21 22  1  0
 21 23  1  0
 22 59  1  0
 22 60  1  0
 22 61  1  0
 23 24  1  0
 23 62  1  1
 24 63  1  0
 24 64  1  0
 24 65  1  0
 25 34  1  0
 25 26  1  0
 26 27  1  0
 26 66  1  0
 26 67  1  0
 27 28  1  0
 27 68  1  6
 28 29  1  0
 28 30  1  0
 28 69  1  6
 29 70  1  0
 29 71  1  0
 29 72  1  0
 30 31  1  0
 31 32  1  0
 31 33  2  3
 32 73  1  0
 32 74  1  0
 32 75  1  0
 33 34  1  0
 33 76  1  0
 34 35  2  0
M  END
>  <i_m_ct_stereo_status>  (274) 
1

>  <s_m_source_file>  (274) 
/var/tmp/pbs.5076255.sched01/tmpk9_hntje/1089a46f3po.sdf

>  <i_m_source_file_index>  (274) 
28

>  <i_lp_mmshare_version>  (274) 
48012

>  <i_f3d_flags>  (274) 
0

>  <s_epik_input>  (274) 
W0NIM11DKD1PKVtDQEhdKFtDSDJdMSlbQ0BAXTEyW0NAQEhdM1tDSDJdTihDKD1PKS9bQ0hdPUMoW0NIM10pXE9bQ0BASF0zW0NIM10pQ1wyPUMoXFtDSDNdKS9bQ0hdPVtDSF0vQyhbQ0gzXSk9W0NIXS9bQ0hdPUMoXFtDSDNdKVtDQEBIXTRbQ0gyXVtDSF09QyhbQ0gzXSlbQ0BIXTRbQ0gzXQ==

>  <s_epik_cmdline>  (274) 
J2VwaWtfcHl0aG9uJywgJy1waHQnLCAnMi4wJywgJy1waCcsICc3LjAnLCAnLXRuJywgJzgnLCAnLW1hJywgJzIwMCcsICctaW1hZScsICc8aW5maWxlLm1hZT4nLCAnLW9tYWUnLCAnPG91dGZpbGUubWFlPic=

>  <r_lp_tautomer_probability>  (274) 
1

>  <r_epik_Ionization_Penalty>  (274) 
1.49479e-07

>  <r_epik_Ionization_Penalty_Charging>  (274) 
0

>  <r_epik_Ionization_Penalty_Neutral>  (274) 
1.49479e-07

>  <r_epik_State_Penalty>  (274) 
-0

>  <r_epik_Charging_Adjusted_Penalty>  (274) 
0

>  <i_epik_Tot_Q>  (274) 
0

>  <i_epik_Tot_abs_Q>  (274) 
0

>  <s_lp_Force_Field>  (274) 
OPLS3e

>  <r_lp_Energy>  (274) 
89.148

>  <b_lp_Chiralities_Consistent>  (274) 
1

>  <s_lp_Variant>  (274) 
69:0-31

>  <s_i_glide_gridfile>  (274) 
pfpi4k_grid

>  <i_i_glide_lignum>  (274) 
28

>  <i_i_glide_rotatable_bonds>  (274) 
5

>  <r_i_docking_score>  (274) 
-2.20596

>  <r_i_glide_ligand_efficiency>  (274) 
-0.0630274

>  <r_i_glide_ligand_efficiency_sa>  (274) 
-0.206167

>  <r_i_glide_ligand_efficiency_ln>  (274) 
-0.484257

>  <r_i_glide_gscore>  (274) 
-2.20596

>  <r_i_glide_lipo>  (274) 
-0.577906

>  <r_i_glide_hbond>  (274) 
0

>  <r_i_glide_metal>  (274) 
-0

>  <r_i_glide_rewards>  (274) 
-0.181707

>  <r_i_glide_evdw>  (274) 
-29.1028

>  <r_i_glide_ecoul>  (274) 
-2.20294

>  <r_i_glide_erotb>  (274) 
0.357898

>  <r_i_glide_esite>  (274) 
-0.0186616

>  <r_i_glide_emodel>  (274) 
-27.953

>  <r_i_glide_energy>  (274) 
-31.3058

>  <r_i_glide_einternal>  (274) 
14.162

>  <r_i_glide_intrahb_reward>  (274) 
-0

>  <i_i_glide_confnum>  (274) 
3

>  <i_i_glide_posenum>  (274) 
1

>  <r_i_glide_eff_state_penalty>  (274) 
0

>  <ligand_id>  (274) 
69

>  <original_smiles>  (274) 
CC(=O)C1CC12C(=C(C)C=CC(C)=CC=C(C)C1CC=C(C)C1C)N1CC2C(C)OC(C)=CC1=O

>  <smiles>  (274) 
[H]C(=C([H])C(=C1N2C(=O)C([H])=C(C([H])([H])[H])OC([H])(C([H])([H])[H])C([H])(C2([H])[H])C12C([H])([H])C2([H])C(=O)C([H])([H])[H])C([H])([H])[H])C(=C([H])C([H])=C(C([H])([H])[H])C1([H])C([H])([H])C([H])=C(C([H])([H])[H])C1([H])C([H])([H])[H])C([H])([H])[H]

$$$$
69:30:1
     RDKit          3D

 76 79  0  0  1  0  0  0  0  0999 V2000
   -1.5089   -0.9413    4.9080 C   0  0  0  0  0  0  0  0  0  0  0  0
   -0.2423   -1.2607    5.6955 C   0  0  0  0  0  0  0  0  0  0  0  0
   -0.1586   -0.9672    6.8837 O   0  0  0  0  0  0  0  0  0  0  0  0
    0.8281   -2.0366    4.9781 C   0  0  2  0  0  0  0  0  0  0  0  0
    2.2784   -1.7316    5.2877 C   0  0  0  0  0  0  0  0  0  0  0  0
    1.7052   -1.3236    3.9266 C   0  0  1  0  0  0  0  0  0  0  0  0
    2.0883   -2.0226    2.6341 C   0  0  0  0  0  0  0  0  0  0  0  0
    2.2370   -3.3539    2.3244 C   0  0  0  0  0  0  0  0  0  0  0  0
    2.0204   -4.4487    3.3685 C   0  0  0  0  0  0  0  0  0  0  0  0
    2.4258   -3.7216    0.8993 C   0  0  0  0  0  0  0  0  0  0  0  0
    3.0255   -4.7941    0.3463 C   0  0  0  0  0  0  0  0  0  0  0  0
    3.6961   -5.8951    1.0352 C   0  0  0  0  0  0  0  0  0  0  0  0
    5.1941   -5.9375    1.0086 C   0  0  0  0  0  0  0  0  0  0  0  0
    3.0203   -6.9485    1.5975 C   0  0  0  0  0  0  0  0  0  0  0  0
    1.5523   -7.0216    1.7064 C   0  0  0  0  0  0  0  0  0  0  0  0
    0.8722   -8.0061    2.3596 C   0  0  0  0  0  0  0  0  0  0  0  0
   -0.6282   -7.9362    2.3721 C   0  0  0  0  0  0  0  0  0  0  0  0
    1.5357   -9.2451    3.0587 C   0  0  2  0  0  0  0  0  0  0  0  0
    0.5106  -10.3044    3.6678 C   0  0  0  0  0  0  0  0  0  0  0  0
    0.9462  -10.4535    5.0950 C   0  0  0  0  0  0  0  0  0  0  0  0
    2.0011   -9.7002    5.4058 C   0  0  0  0  0  0  0  0  0  0  0  0
    2.6815   -9.6597    6.7626 C   0  0  0  0  0  0  0  0  0  0  0  0
    2.5410   -8.9180    4.2233 C   0  0  1  0  0  0  0  0  0  0  0  0
    4.0164   -9.3658    3.9566 C   0  0  0  0  0  0  0  0  0  0  0  0
    2.2174   -0.9669    1.6904 N   0  0  0  0  0  0  0  0  0  0  0  0
    1.2712    0.0869    2.0959 C   0  0  0  0  0  0  0  0  0  0  0  0
    1.3892    0.1713    3.6282 C   0  0  2  0  0  0  0  0  0  0  0  0
    2.4263    1.2634    4.1487 C   0  0  1  0  0  0  0  0  0  0  0  0
    1.9774    1.8121    5.5172 C   0  0  0  0  0  0  0  0  0  0  0  0
    3.8107    0.9133    4.2756 O   0  0  0  0  0  0  0  0  0  0  0  0
    4.4061    0.2786    3.2040 C   0  0  0  0  0  0  0  0  0  0  0  0
    5.3902   -0.7531    3.6429 C   0  0  0  0  0  0  0  0  0  0  0  0
    3.9672    0.4713    1.9421 C   0  0  0  0  0  0  0  0  0  0  0  0
    3.4518   -0.6511    1.1974 C   0  0  0  0  0  0  0  0  0  0  0  0
    4.0899   -1.2814    0.3757 O   0  0  0  0  0  0  0  0  0  0  0  0
   -1.2773   -0.3732    4.0122 H   0  0  0  0  0  0  0  0  0  0  0  0
   -2.2348   -0.4075    5.5261 H   0  0  0  0  0  0  0  0  0  0  0  0
   -1.9685   -1.8767    4.6020 H   0  0  0  0  0  0  0  0  0  0  0  0
    0.5965   -3.1040    4.9131 H   0  0  0  0  0  0  0  0  0  0  0  0
    2.5052   -0.9554    6.0157 H   0  0  0  0  0  0  0  0  0  0  0  0
    3.0111   -2.5365    5.3115 H   0  0  0  0  0  0  0  0  0  0  0  0
    2.6272   -5.2887    3.1968 H   0  0  0  0  0  0  0  0  0  0  0  0
    0.9335   -4.6759    3.3641 H   0  0  0  0  0  0  0  0  0  0  0  0
    2.2336   -4.0989    4.3784 H   0  0  0  0  0  0  0  0  0  0  0  0
    2.0396   -3.0456    0.1513 H   0  0  0  0  0  0  0  0  0  0  0  0
    3.0295   -4.8332   -0.7349 H   0  0  0  0  0  0  0  0  0  0  0  0
    5.6470   -5.6877    0.0505 H   0  0  0  0  0  0  0  0  0  0  0  0
    5.5837   -6.9064    1.3248 H   0  0  0  0  0  0  0  0  0  0  0  0
    5.5391   -5.2281    1.7477 H   0  0  0  0  0  0  0  0  0  0  0  0
    3.5920   -7.7506    1.9421 H   0  0  0  0  0  0  0  0  0  0  0  0
    0.9373   -6.2885    1.1807 H   0  0  0  0  0  0  0  0  0  0  0  0
   -1.0023   -7.8977    3.4079 H   0  0  0  0  0  0  0  0  0  0  0  0
   -1.0771   -8.8104    1.8816 H   0  0  0  0  0  0  0  0  0  0  0  0
   -1.0064   -7.0576    1.8608 H   0  0  0  0  0  0  0  0  0  0  0  0
    2.0890   -9.7614    2.2751 H   0  0  0  0  0  0  0  0  0  0  0  0
   -0.5393  -10.0131    3.7371 H   0  0  0  0  0  0  0  0  0  0  0  0
    0.5851  -11.2676    3.1433 H   0  0  0  0  0  0  0  0  0  0  0  0
    0.4178  -11.1171    5.7794 H   0  0  0  0  0  0  0  0  0  0  0  0
    2.7875   -8.6363    7.1331 H   0  0  0  0  0  0  0  0  0  0  0  0
    3.6728  -10.1129    6.6915 H   0  0  0  0  0  0  0  0  0  0  0  0
    2.1234  -10.2540    7.5061 H   0  0  0  0  0  0  0  0  0  0  0  0
    2.4814   -7.8621    4.4955 H   0  0  0  0  0  0  0  0  0  0  0  0
    4.6406   -9.1647    4.8443 H   0  0  0  0  0  0  0  0  0  0  0  0
    4.5147   -8.9326    3.1115 H   0  0  0  0  0  0  0  0  0  0  0  0
    4.0179  -10.4587    3.8456 H   0  0  0  0  0  0  0  0  0  0  0  0
    1.3568    1.0484    1.5661 H   0  0  0  0  0  0  0  0  0  0  0  0
    0.2754   -0.2827    1.8465 H   0  0  0  0  0  0  0  0  0  0  0  0
    0.4119    0.4968    3.9666 H   0  0  0  0  0  0  0  0  0  0  0  0
    2.3478    2.1098    3.4667 H   0  0  0  0  0  0  0  0  0  0  0  0
    0.9227    2.0944    5.5164 H   0  0  0  0  0  0  0  0  0  0  0  0
    2.5607    2.7016    5.7464 H   0  0  0  0  0  0  0  0  0  0  0  0
    2.1228    1.1070    6.3334 H   0  0  0  0  0  0  0  0  0  0  0  0
    5.8576   -1.2511    2.7895 H   0  0  0  0  0  0  0  0  0  0  0  0
    4.9285   -1.4917    4.2967 H   0  0  0  0  0  0  0  0  0  0  0  0
    6.1914   -0.2603    4.1992 H   0  0  0  0  0  0  0  0  0  0  0  0
    3.3827    1.3781    1.7671 H   0  0  0  0  0  0  0  0  0  0  0  0
  1  2  1  0
  1 36  1  0
  1 37  1  0
  1 38  1  0
  2  3  2  0
  2  4  1  0
  4  6  1  0
  4  5  1  0
  4 39  1  6
  6  5  1  1
  5 40  1  0
  5 41  1  0
  6 27  1  0
  6  7  1  0
  7  8  2  3
  7 25  1  0
  8  9  1  0
  8 10  1  0
  9 42  1  0
  9 43  1  0
  9 44  1  0
 10 11  2  3
 10 45  1  0
 11 12  1  0
 11 46  1  0
 12 13  1  0
 12 14  2  3
 13 47  1  0
 13 48  1  0
 13 49  1  0
 14 15  1  0
 14 50  1  0
 15 16  2  3
 15 51  1  0
 16 17  1  0
 16 18  1  0
 17 52  1  0
 17 53  1  0
 17 54  1  0
 18 23  1  0
 18 19  1  0
 18 55  1  6
 19 20  1  0
 19 56  1  0
 19 57  1  0
 20 21  2  0
 20 58  1  0
 21 22  1  0
 21 23  1  0
 22 59  1  0
 22 60  1  0
 22 61  1  0
 23 24  1  0
 23 62  1  1
 24 63  1  0
 24 64  1  0
 24 65  1  0
 25 34  1  0
 25 26  1  0
 26 27  1  0
 26 66  1  0
 26 67  1  0
 27 28  1  0
 27 68  1  1
 28 29  1  0
 28 30  1  0
 28 69  1  6
 29 70  1  0
 29 71  1  0
 29 72  1  0
 30 31  1  0
 31 32  1  0
 31 33  2  3
 32 73  1  0
 32 74  1  0
 32 75  1  0
 33 34  1  0
 33 76  1  0
 34 35  2  0
M  END
>  <i_m_ct_stereo_status>  (275) 
1

>  <s_m_source_file>  (275) 
/var/tmp/pbs.5076255.sched01/tmpk9_hntje/1089a46f3po.sdf

>  <i_m_source_file_index>  (275) 
28

>  <i_lp_mmshare_version>  (275) 
48012

>  <i_f3d_flags>  (275) 
0

>  <s_epik_input>  (275) 
W0NIM11DKD1PKVtDQEhdKFtDSDJdMSlbQ0BAXTEyW0NAQEhdM1tDSDJdTihDKD1PKS9bQ0hdPUMoW0NIM10pXE9bQ0BASF0zW0NIM10pQ1wyPUMoXFtDSDNdKS9bQ0hdPVtDSF0vQyhbQ0gzXSk9W0NIXS9bQ0hdPUMoXFtDSDNdKVtDQEBIXTRbQ0gyXVtDSF09QyhbQ0gzXSlbQ0BIXTRbQ0gzXQ==

>  <s_epik_cmdline>  (275) 
J2VwaWtfcHl0aG9uJywgJy1waHQnLCAnMi4wJywgJy1waCcsICc3LjAnLCAnLXRuJywgJzgnLCAnLW1hJywgJzIwMCcsICctaW1hZScsICc8aW5maWxlLm1hZT4nLCAnLW9tYWUnLCAnPG91dGZpbGUubWFlPic=

>  <r_lp_tautomer_probability>  (275) 
1

>  <r_epik_Ionization_Penalty>  (275) 
1.49479e-07

>  <r_epik_Ionization_Penalty_Charging>  (275) 
0

>  <r_epik_Ionization_Penalty_Neutral>  (275) 
1.49479e-07

>  <r_epik_State_Penalty>  (275) 
-0

>  <r_epik_Charging_Adjusted_Penalty>  (275) 
0

>  <i_epik_Tot_Q>  (275) 
0

>  <i_epik_Tot_abs_Q>  (275) 
0

>  <s_lp_Force_Field>  (275) 
OPLS3e

>  <r_lp_Energy>  (275) 
89.148

>  <b_lp_Chiralities_Consistent>  (275) 
1

>  <s_lp_Variant>  (275) 
69:0-31

>  <s_i_glide_gridfile>  (275) 
pfpi4k_grid

>  <i_i_glide_lignum>  (275) 
28

>  <i_i_glide_rotatable_bonds>  (275) 
5

>  <r_i_docking_score>  (275) 
-2.12292

>  <r_i_glide_ligand_efficiency>  (275) 
-0.0606548

>  <r_i_glide_ligand_efficiency_sa>  (275) 
-0.198406

>  <r_i_glide_ligand_efficiency_ln>  (275) 
-0.466027

>  <r_i_glide_gscore>  (275) 
-2.12292

>  <r_i_glide_lipo>  (275) 
-0.27878

>  <r_i_glide_hbond>  (275) 
0

>  <r_i_glide_metal>  (275) 
-0

>  <r_i_glide_rewards>  (275) 
-0.16594

>  <r_i_glide_evdw>  (275) 
-30.7515

>  <r_i_glide_ecoul>  (275) 
-2.49641

>  <r_i_glide_erotb>  (275) 
0.357898

>  <r_i_glide_esite>  (275) 
-0.12406

>  <r_i_glide_emodel>  (275) 
-27.361

>  <r_i_glide_energy>  (275) 
-33.2479

>  <r_i_glide_einternal>  (275) 
16.8007

>  <r_i_glide_intrahb_reward>  (275) 
-0

>  <i_i_glide_confnum>  (275) 
3

>  <i_i_glide_posenum>  (275) 
29

>  <r_i_glide_eff_state_penalty>  (275) 
0

>  <ligand_id>  (275) 
69

>  <original_smiles>  (275) 
CC(=O)C1CC12C(=C(C)C=CC(C)=CC=C(C)C1CC=C(C)C1C)N1CC2C(C)OC(C)=CC1=O

>  <smiles>  (275) 
[H]C(=C([H])C(=C1N2C(=O)C([H])=C(C([H])([H])[H])OC([H])(C([H])([H])[H])C([H])(C2([H])[H])C12C([H])([H])C2([H])C(=O)C([H])([H])[H])C([H])([H])[H])C(=C([H])C([H])=C(C([H])([H])[H])C1([H])C([H])([H])C([H])=C(C([H])([H])[H])C1([H])C([H])([H])[H])C([H])([H])[H]

$$$$
69:30:2
     RDKit          3D

 76 79  0  0  1  0  0  0  0  0999 V2000
   -2.1584    2.5396    3.5618 C   0  0  0  0  0  0  0  0  0  0  0  0
   -1.0269    1.5599    3.1713 C   0  0  0  0  0  0  0  0  0  0  0  0
   -0.4826    1.5851    2.0623 O   0  0  0  0  0  0  0  0  0  0  0  0
   -0.5385    0.5521    4.1927 C   0  0  2  0  0  0  0  0  0  0  0  0
   -0.9160    0.7200    5.6567 C   0  0  0  0  0  0  0  0  0  0  0  0
    0.5404    1.0017    5.2424 C   0  0  1  0  0  0  0  0  0  0  0  0
    1.7138    0.1091    5.6350 C   0  0  0  0  0  0  0  0  0  0  0  0
    1.9252   -1.2479    5.5023 C   0  0  0  0  0  0  0  0  0  0  0  0
    0.7906   -2.1872    5.0888 C   0  0  0  0  0  0  0  0  0  0  0  0
    3.2382   -1.8331    5.7664 C   0  0  0  0  0  0  0  0  0  0  0  0
    3.8266   -2.9123    5.2063 C   0  0  0  0  0  0  0  0  0  0  0  0
    3.3404   -3.7873    4.1569 C   0  0  0  0  0  0  0  0  0  0  0  0
    2.6627   -5.0983    4.5574 C   0  0  0  0  0  0  0  0  0  0  0  0
    3.5151   -3.5010    2.8520 C   0  0  0  0  0  0  0  0  0  0  0  0
    4.1959   -2.3312    2.3006 C   0  0  0  0  0  0  0  0  0  0  0  0
    4.5706   -2.1574    1.0044 C   0  0  0  0  0  0  0  0  0  0  0  0
    5.2642   -0.8675    0.5828 C   0  0  0  0  0  0  0  0  0  0  0  0
    4.3690   -3.1976   -0.1145 C   0  0  2  0  0  0  0  0  0  0  0  0
    5.6959   -3.6954   -0.7484 C   0  0  0  0  0  0  0  0  0  0  0  0
    5.5058   -3.4805   -2.2220 C   0  0  0  0  0  0  0  0  0  0  0  0
    4.3266   -2.9434   -2.5204 C   0  0  0  0  0  0  0  0  0  0  0  0
    3.8137   -2.6037   -3.9023 C   0  0  0  0  0  0  0  0  0  0  0  0
    3.4818   -2.6927   -1.2931 C   0  0  1  0  0  0  0  0  0  0  0  0
    2.1550   -3.4744   -1.3636 C   0  0  0  0  0  0  0  0  0  0  0  0
    2.7456    1.0118    6.0349 N   0  0  0  0  0  0  0  0  0  0  0  0
    2.5655    2.1978    5.1999 C   0  0  0  0  0  0  0  0  0  0  0  0
    1.0465    2.4684    5.1945 C   0  0  2  0  0  0  0  0  0  0  0  0
    0.5906    3.5021    6.3329 C   0  0  1  0  0  0  0  0  0  0  0  0
   -0.6388    4.3541    5.9944 C   0  0  0  0  0  0  0  0  0  0  0  0
    0.2347    2.9543    7.6107 O   0  0  0  0  0  0  0  0  0  0  0  0
    1.1808    2.1784    8.2477 C   0  0  0  0  0  0  0  0  0  0  0  0
    0.5169    1.0477    9.0032 C   0  0  0  0  0  0  0  0  0  0  0  0
    2.4945    2.3034    7.9537 C   0  0  0  0  0  0  0  0  0  0  0  0
    3.1128    1.1335    7.3485 C   0  0  0  0  0  0  0  0  0  0  0  0
    3.8629    0.3780    7.9493 O   0  0  0  0  0  0  0  0  0  0  0  0
   -3.0716    2.0011    3.8638 H   0  0  0  0  0  0  0  0  0  0  0  0
   -2.3869    3.2412    2.7479 H   0  0  0  0  0  0  0  0  0  0  0  0
   -1.7677    3.0604    4.4081 H   0  0  0  0  0  0  0  0  0  0  0  0
   -0.4780   -0.4796    3.8301 H   0  0  0  0  0  0  0  0  0  0  0  0
   -1.5076    1.5797    5.9640 H   0  0  0  0  0  0  0  0  0  0  0  0
   -1.0895   -0.1813    6.2374 H   0  0  0  0  0  0  0  0  0  0  0  0
    0.9798   -3.1429    5.5811 H   0  0  0  0  0  0  0  0  0  0  0  0
    0.8009   -2.3360    4.0007 H   0  0  0  0  0  0  0  0  0  0  0  0
   -0.2051   -1.8857    5.4182 H   0  0  0  0  0  0  0  0  0  0  0  0
    3.8528   -1.4055    6.5337 H   0  0  0  0  0  0  0  0  0  0  0  0
    4.8057   -3.1493    5.6042 H   0  0  0  0  0  0  0  0  0  0  0  0
    3.1911   -5.5447    5.4088 H   0  0  0  0  0  0  0  0  0  0  0  0
    2.6738   -5.8023    3.7226 H   0  0  0  0  0  0  0  0  0  0  0  0
    1.6204   -4.9531    4.8324 H   0  0  0  0  0  0  0  0  0  0  0  0
    3.1072   -4.2218    2.1693 H   0  0  0  0  0  0  0  0  0  0  0  0
    4.4160   -1.5204    2.9838 H   0  0  0  0  0  0  0  0  0  0  0  0
    4.6984   -0.3381   -0.1861 H   0  0  0  0  0  0  0  0  0  0  0  0
    6.2610   -1.0637    0.1854 H   0  0  0  0  0  0  0  0  0  0  0  0
    5.3838   -0.1822    1.4234 H   0  0  0  0  0  0  0  0  0  0  0  0
    3.8993   -4.0864    0.2911 H   0  0  0  0  0  0  0  0  0  0  0  0
    6.5843   -3.1731   -0.4032 H   0  0  0  0  0  0  0  0  0  0  0  0
    5.8401   -4.7557   -0.5433 H   0  0  0  0  0  0  0  0  0  0  0  0
    6.2590   -3.7675   -2.9459 H   0  0  0  0  0  0  0  0  0  0  0  0
    3.5017   -1.5596   -3.9564 H   0  0  0  0  0  0  0  0  0  0  0  0
    2.9585   -3.2288   -4.1628 H   0  0  0  0  0  0  0  0  0  0  0  0
    4.5919   -2.7763   -4.6454 H   0  0  0  0  0  0  0  0  0  0  0  0
    3.2623   -1.6342   -1.2351 H   0  0  0  0  0  0  0  0  0  0  0  0
    1.5310   -3.1125   -2.1961 H   0  0  0  0  0  0  0  0  0  0  0  0
    1.5994   -3.2911   -0.4420 H   0  0  0  0  0  0  0  0  0  0  0  0
    2.2913   -4.5295   -1.4562 H   0  0  0  0  0  0  0  0  0  0  0  0
    3.1666    3.0678    5.4742 H   0  0  0  0  0  0  0  0  0  0  0  0
    2.8919    1.9435    4.1862 H   0  0  0  0  0  0  0  0  0  0  0  0
    0.8695    2.9334    4.2255 H   0  0  0  0  0  0  0  0  0  0  0  0
    1.4075    4.2281    6.4443 H   0  0  0  0  0  0  0  0  0  0  0  0
   -0.5882    4.6986    4.9685 H   0  0  0  0  0  0  0  0  0  0  0  0
   -0.6729    5.2345    6.6377 H   0  0  0  0  0  0  0  0  0  0  0  0
   -1.5548    3.7672    6.0893 H   0  0  0  0  0  0  0  0  0  0  0  0
    1.2408    0.3661    9.4588 H   0  0  0  0  0  0  0  0  0  0  0  0
   -0.1684    0.4788    8.3741 H   0  0  0  0  0  0  0  0  0  0  0  0
   -0.0715    1.4703    9.8231 H   0  0  0  0  0  0  0  0  0  0  0  0
    2.8461    3.2243    7.5332 H   0  0  0  0  0  0  0  0  0  0  0  0
  1  2  1  0
  1 36  1  0
  1 37  1  0
  1 38  1  0
  2  3  2  0
  2  4  1  0
  4  6  1  0
  4  5  1  0
  4 39  1  6
  6  5  1  1
  5 40  1  0
  5 41  1  0
  6 27  1  0
  6  7  1  0
  7  8  2  3
  7 25  1  0
  8  9  1  0
  8 10  1  0
  9 42  1  0
  9 43  1  0
  9 44  1  0
 10 11  2  3
 10 45  1  0
 11 12  1  0
 11 46  1  0
 12 13  1  0
 12 14  2  3
 13 47  1  0
 13 48  1  0
 13 49  1  0
 14 15  1  0
 14 50  1  0
 15 16  2  3
 15 51  1  0
 16 17  1  0
 16 18  1  0
 17 52  1  0
 17 53  1  0
 17 54  1  0
 18 23  1  0
 18 19  1  0
 18 55  1  1
 19 20  1  0
 19 56  1  0
 19 57  1  0
 20 21  2  0
 20 58  1  0
 21 22  1  0
 21 23  1  0
 22 59  1  0
 22 60  1  0
 22 61  1  0
 23 24  1  0
 23 62  1  1
 24 63  1  0
 24 64  1  0
 24 65  1  0
 25 34  1  0
 25 26  1  0
 26 27  1  0
 26 66  1  0
 26 67  1  0
 27 28  1  0
 27 68  1  6
 28 29  1  0
 28 30  1  0
 28 69  1  1
 29 70  1  0
 29 71  1  0
 29 72  1  0
 30 31  1  0
 31 32  1  0
 31 33  2  3
 32 73  1  0
 32 74  1  0
 32 75  1  0
 33 34  1  0
 33 76  1  0
 34 35  2  0
M  END
>  <i_m_ct_stereo_status>  (276) 
1

>  <s_m_source_file>  (276) 
/var/tmp/pbs.5076255.sched01/tmpk9_hntje/1089a46f3po.sdf

>  <i_m_source_file_index>  (276) 
28

>  <i_lp_mmshare_version>  (276) 
48012

>  <i_f3d_flags>  (276) 
0

>  <s_epik_input>  (276) 
W0NIM11DKD1PKVtDQEhdKFtDSDJdMSlbQ0BAXTEyW0NAQEhdM1tDSDJdTihDKD1PKS9bQ0hdPUMoW0NIM10pXE9bQ0BASF0zW0NIM10pQ1wyPUMoXFtDSDNdKS9bQ0hdPVtDSF0vQyhbQ0gzXSk9W0NIXS9bQ0hdPUMoXFtDSDNdKVtDQEBIXTRbQ0gyXVtDSF09QyhbQ0gzXSlbQ0BIXTRbQ0gzXQ==

>  <s_epik_cmdline>  (276) 
J2VwaWtfcHl0aG9uJywgJy1waHQnLCAnMi4wJywgJy1waCcsICc3LjAnLCAnLXRuJywgJzgnLCAnLW1hJywgJzIwMCcsICctaW1hZScsICc8aW5maWxlLm1hZT4nLCAnLW9tYWUnLCAnPG91dGZpbGUubWFlPic=

>  <r_lp_tautomer_probability>  (276) 
1

>  <r_epik_Ionization_Penalty>  (276) 
1.49479e-07

>  <r_epik_Ionization_Penalty_Charging>  (276) 
0

>  <r_epik_Ionization_Penalty_Neutral>  (276) 
1.49479e-07

>  <r_epik_State_Penalty>  (276) 
-0

>  <r_epik_Charging_Adjusted_Penalty>  (276) 
0

>  <i_epik_Tot_Q>  (276) 
0

>  <i_epik_Tot_abs_Q>  (276) 
0

>  <s_lp_Force_Field>  (276) 
OPLS3e

>  <r_lp_Energy>  (276) 
89.148

>  <b_lp_Chiralities_Consistent>  (276) 
1

>  <s_lp_Variant>  (276) 
69:0-31

>  <s_i_glide_gridfile>  (276) 
pfpi4k_grid

>  <i_i_glide_lignum>  (276) 
28

>  <i_i_glide_rotatable_bonds>  (276) 
5

>  <r_i_docking_score>  (276) 
-1.57528

>  <r_i_glide_ligand_efficiency>  (276) 
-0.0450081

>  <r_i_glide_ligand_efficiency_sa>  (276) 
-0.147224

>  <r_i_glide_ligand_efficiency_ln>  (276) 
-0.34581

>  <r_i_glide_gscore>  (276) 
-1.57528

>  <r_i_glide_lipo>  (276) 
-0.518

>  <r_i_glide_hbond>  (276) 
0

>  <r_i_glide_metal>  (276) 
-0

>  <r_i_glide_rewards>  (276) 
-0.16594

>  <r_i_glide_evdw>  (276) 
-27.5975

>  <r_i_glide_ecoul>  (276) 
1.1084

>  <r_i_glide_erotb>  (276) 
0.357898

>  <r_i_glide_esite>  (276) 
-0.0356255

>  <r_i_glide_emodel>  (276) 
-22.4064

>  <r_i_glide_energy>  (276) 
-26.4891

>  <r_i_glide_einternal>  (276) 
12.1179

>  <r_i_glide_intrahb_reward>  (276) 
-0

>  <i_i_glide_confnum>  (276) 
2

>  <i_i_glide_posenum>  (276) 
4

>  <r_i_glide_eff_state_penalty>  (276) 
0

>  <ligand_id>  (276) 
69

>  <original_smiles>  (276) 
CC(=O)C1CC12C(=C(C)C=CC(C)=CC=C(C)C1CC=C(C)C1C)N1CC2C(C)OC(C)=CC1=O

>  <smiles>  (276) 
[H]C(=C([H])C(=C1N2C(=O)C([H])=C(C([H])([H])[H])OC([H])(C([H])([H])[H])C([H])(C2([H])[H])C12C([H])([H])C2([H])C(=O)C([H])([H])[H])C([H])([H])[H])C(=C([H])C([H])=C(C([H])([H])[H])C1([H])C([H])([H])C([H])=C(C([H])([H])[H])C1([H])C([H])([H])[H])C([H])([H])[H]

$$$$
70:0:0
     RDKit          3D

 85 92  0  0  1  0  0  0  0  0999 V2000
    2.7814   -2.2495    2.8353 C   0  0  0  0  0  0  0  0  0  0  0  0
    2.3172   -1.0821    3.4984 O   0  0  0  0  0  0  0  0  0  0  0  0
    2.9546   -0.6704    4.7016 C   0  0  2  0  0  0  0  0  0  0  0  0
    4.4565   -0.4128    4.2792 C   0  0  0  0  0  0  0  0  0  0  0  0
    5.4206   -0.0854    5.4316 C   0  0  0  0  0  0  0  0  0  0  0  0
    4.6439    0.1669    6.7223 C   0  0  2  0  0  0  0  0  0  0  0  0
    3.7975   -1.1129    7.0606 C   0  0  0  0  0  0  0  0  0  0  0  0
    3.0642   -1.7550    5.8363 C   0  0  1  0  0  0  0  0  0  0  0  0
    1.7613   -2.4950    6.2624 C   0  0  0  0  0  0  0  0  0  0  0  0
    1.4195   -3.5287    5.3404 O   0  0  0  0  0  0  0  0  0  0  0  0
    0.5650   -4.5220    5.6456 C   0  0  0  0  0  0  0  0  0  0  0  0
   -0.0558   -4.5983    6.7091 O   0  0  0  0  0  0  0  0  0  0  0  0
    0.4197   -5.5380    4.5553 C   0  0  0  0  0  0  0  0  0  0  0  0
   -0.3109   -6.7304    4.7300 C   0  0  0  0  0  0  0  0  0  0  0  0
   -0.4446   -7.6499    3.6766 C   0  0  0  0  0  0  0  0  0  0  0  0
    0.1848   -7.3459    2.4461 C   0  0  0  0  0  0  0  0  0  0  0  0
    0.8664   -6.2115    2.2373 N   0  0  0  0  0  0  0  0  0  0  0  0
    1.0249   -5.3010    3.2707 C   0  0  0  0  0  0  0  0  0  0  0  0
    3.9591    1.5710    6.6225 C   0  0  2  0  0  0  0  0  0  0  0  0
    2.7806    1.8774    7.7120 C   0  0  0  0  0  0  0  0  0  0  0  0
    1.4884    2.7562    7.1401 C   0  0  2  0  0  0  0  0  0  0  0  0
    0.1026    2.1325    7.2752 C   0  0  0  0  0  0  0  0  0  0  0  0
   -0.1987    0.9132    6.4022 C   0  0  1  0  0  0  0  0  0  0  0  0
   -1.7274    0.6970    6.4010 C   0  0  0  0  0  0  0  0  0  0  0  0
    0.5912    0.8560    5.0237 C   0  0  1  0  0  0  0  0  0  0  0  0
   -0.0267   -0.2294    4.3590 O   0  0  0  0  0  0  0  0  0  0  0  0
    0.4333    2.0528    4.0536 C   0  0  1  0  0  0  0  0  0  0  0  0
   -0.8668    2.7383    4.1458 N   0  0  0  0  0  0  0  0  0  0  0  0
   -2.0108    2.1336    3.4027 C   0  0  0  0  0  0  0  0  0  0  0  0
   -3.1609    3.1015    3.3641 C   0  0  0  0  0  0  0  0  0  0  0  0
   -3.9731    3.2626    2.1017 C   0  0  0  0  0  0  0  0  0  0  0  0
   -3.0152    4.3514    2.5229 C   0  0  0  0  0  0  0  0  0  0  0  0
    1.5820    3.0196    4.2457 C   0  0  2  0  0  0  0  0  0  0  0  0
    2.9784    2.3128    3.9147 C   0  0  0  0  0  0  0  0  0  0  0  0
    3.1414    1.9163    5.3654 C   0  0  2  0  0  0  0  0  0  0  0  0
    3.0702    3.5120    5.7605 C   0  0  1  0  0  0  0  0  0  0  0  0
    3.7271    4.5649    5.0514 O   0  0  0  0  0  0  0  0  0  0  0  0
    1.6378    3.5643    5.7416 C   0  0  2  0  0  0  0  0  0  0  0  0
    1.0527    4.8550    5.8151 O   0  0  0  0  0  0  0  0  0  0  0  0
    2.1521    0.6112    5.2890 C   0  0  2  0  0  0  0  0  0  0  0  0
    1.9892   -2.5250    2.1540 H   0  0  0  0  0  0  0  0  0  0  0  0
    2.9281   -3.1026    3.4876 H   0  0  0  0  0  0  0  0  0  0  0  0
    3.6711   -2.0631    2.2214 H   0  0  0  0  0  0  0  0  0  0  0  0
    4.8740   -1.3183    3.8509 H   0  0  0  0  0  0  0  0  0  0  0  0
    4.5662    0.3165    3.4816 H   0  0  0  0  0  0  0  0  0  0  0  0
    6.1092   -0.9223    5.5858 H   0  0  0  0  0  0  0  0  0  0  0  0
    6.0478    0.7696    5.1685 H   0  0  0  0  0  0  0  0  0  0  0  0
    5.3781    0.2449    7.5170 H   0  0  0  0  0  0  0  0  0  0  0  0
    4.4951   -1.8561    7.4334 H   0  0  0  0  0  0  0  0  0  0  0  0
    3.1098   -0.9617    7.8970 H   0  0  0  0  0  0  0  0  0  0  0  0
    3.7589   -2.5289    5.5062 H   0  0  0  0  0  0  0  0  0  0  0  0
    1.9123   -2.9083    7.2584 H   0  0  0  0  0  0  0  0  0  0  0  0
    0.9369   -1.7983    6.3589 H   0  0  0  0  0  0  0  0  0  0  0  0
   -0.7914   -6.9204    5.6867 H   0  0  0  0  0  0  0  0  0  0  0  0
   -1.0123   -8.5865    3.7857 H   0  0  0  0  0  0  0  0  0  0  0  0
    0.1319   -8.0311    1.5937 H   0  0  0  0  0  0  0  0  0  0  0  0
    1.5629   -4.4445    3.0226 H   0  0  0  0  0  0  0  0  0  0  0  0
    4.7963    2.2707    6.7456 H   0  0  0  0  0  0  0  0  0  0  0  0
    2.4216    0.9788    8.2102 H   0  0  0  0  0  0  0  0  0  0  0  0
    3.2293    2.4360    8.5321 H   0  0  0  0  0  0  0  0  0  0  0  0
    1.4639    3.5569    7.8693 H   0  0  0  0  0  0  0  0  0  0  0  0
   -0.0401    1.8497    8.3142 H   0  0  0  0  0  0  0  0  0  0  0  0
   -0.6244    2.9248    7.0789 H   0  0  0  0  0  0  0  0  0  0  0  0
    0.1488    0.0578    6.9849 H   0  0  0  0  0  0  0  0  0  0  0  0
   -2.2798    1.5409    5.9771 H   0  0  0  0  0  0  0  0  0  0  0  0
   -2.0432    0.5377    7.4379 H   0  0  0  0  0  0  0  0  0  0  0  0
   -2.0244   -0.1881    5.8416 H   0  0  0  0  0  0  0  0  0  0  0  0
    0.3442   -1.0336    4.6868 H   0  0  0  0  0  0  0  0  0  0  0  0
    0.5252    1.7223    3.0237 H   0  0  0  0  0  0  0  0  0  0  0  0
   -1.0972    2.8545    5.1408 H   0  0  0  0  0  0  0  0  0  0  0  0
   -1.6884    1.9089    2.3764 H   0  0  0  0  0  0  0  0  0  0  0  0
   -2.3323    1.2425    3.9330 H   0  0  0  0  0  0  0  0  0  0  0  0
   -3.6922    3.1944    4.3157 H   0  0  0  0  0  0  0  0  0  0  0  0
   -3.7155    2.6019    1.2806 H   0  0  0  0  0  0  0  0  0  0  0  0
   -5.0443    3.4686    2.1938 H   0  0  0  0  0  0  0  0  0  0  0  0
   -3.4812    5.2742    2.8745 H   0  0  0  0  0  0  0  0  0  0  0  0
   -2.0113    4.4554    2.0834 H   0  0  0  0  0  0  0  0  0  0  0  0
    1.4585    3.8466    3.5416 H   0  0  0  0  0  0  0  0  0  0  0  0
    2.8346    1.5124    3.1839 H   0  0  0  0  0  0  0  0  0  0  0  0
    3.7773    2.9221    3.4824 H   0  0  0  0  0  0  0  0  0  0  0  0
    3.4518    3.8564    6.7232 H   0  0  0  0  0  0  0  0  0  0  0  0
    3.4803    4.4923    4.1479 H   0  0  0  0  0  0  0  0  0  0  0  0
    1.5184    5.4151    5.2092 H   0  0  0  0  0  0  0  0  0  0  0  0
    2.0146    0.2337    6.2822 H   0  0  0  0  0  0  0  0  0  0  0  0
   -0.7217    3.6750    3.7600 H   0  0  0  0  0  0  0  0  0  0  0  0
  1  2  1  0
  1 41  1  0
  1 42  1  0
  1 43  1  0
  3  2  1  6
  3  8  1  0
  3 40  1  0
  3  4  1  0
  4  5  1  0
  4 44  1  0
  4 45  1  0
  5  6  1  0
  5 46  1  0
  5 47  1  0
  6  7  1  0
  6 19  1  0
  6 48  1  1
  7  8  1  0
  7 49  1  0
  7 50  1  0
  8  9  1  0
  8 51  1  6
  9 10  1  0
  9 52  1  0
  9 53  1  0
 10 11  1  0
 11 12  2  0
 11 13  1  0
 13 18  1  0
 13 14  2  0
 14 15  1  0
 14 54  1  0
 15 16  2  0
 15 55  1  0
 16 17  1  0
 16 56  1  0
 17 18  2  0
 18 57  1  0
 19 35  1  0
 19 20  1  0
 19 58  1  1
 20 21  1  0
 20 59  1  0
 20 60  1  0
 21 38  1  0
 21 22  1  0
 21 61  1  1
 22 23  1  0
 22 62  1  0
 22 63  1  0
 23 24  1  0
 23 25  1  0
 23 64  1  1
 24 65  1  0
 24 66  1  0
 24 67  1  0
 25 40  1  0
 25 26  1  6
 25 27  1  0
 26 68  1  0
 27 28  1  0
 27 33  1  0
 27 69  1  6
 28 29  1  0
 28 70  1  0
 28 85  1  0
 29 30  1  0
 29 71  1  0
 29 72  1  0
 30 32  1  0
 30 31  1  0
 30 73  1  0
 31 32  1  0
 31 74  1  0
 31 75  1  0
 32 76  1  0
 32 77  1  0
 33 38  1  0
 33 34  1  0
 33 78  1  6
 35 34  1  6
 34 79  1  0
 34 80  1  0
 35 36  1  0
 35 40  1  0
 36 37  1  0
 36 38  1  0
 36 81  1  1
 37 82  1  0
 38 39  1  6
 39 83  1  0
 40 84  1  1
M  CHG  1  28   1
M  END
>  <i_m_ct_stereo_status>  (277) 
1

>  <s_m_source_file>  (277) 
/var/tmp/pbs.5076255.sched01/tmpk9_hntje/1089a46f3po.sdf

>  <i_m_source_file_index>  (277) 
30

>  <i_lp_mmshare_version>  (277) 
48012

>  <i_f3d_flags>  (277) 
0

>  <s_epik_input>  (277) 
W2NIXTFuW2NIXVtjSF1bY0hdYzFDKD1PKU9bQ0gyXVtDQEhdKFtDSDJdMilbQ0BdKE9bQ0gzXSkoW0NIMl1bQ0gyXVtDQEhdMltDQEhdM1tDQF00NTYpW0NAQEhdNltDQEBdNyhbT0hdKVtDQEhdKFtDSDNdKVtDSDJdW0NAQEhdKFtDSDJdMylbQ0BAXShbT0hdKShbQ0BASF01W09IXSlbQ0BASF0oW0NIMl00KVtDQEBIXTdbTkhdW0NIMl1bQ0hdOFtDSDJdW0NIMl04

>  <s_epik_cmdline>  (277) 
J2VwaWtfcHl0aG9uJywgJy1waHQnLCAnMi4wJywgJy1waCcsICc3LjAnLCAnLXRuJywgJzgnLCAnLW1hJywgJzIwMCcsICctaW1hZScsICc8aW5maWxlLm1hZT4nLCAnLW9tYWUnLCAnPG91dGZpbGUubWFlPic=

>  <r_epik_Ionization_Penalty>  (277) 
0.00110007

>  <r_epik_Ionization_Penalty_Charging>  (277) 
0.000949881

>  <r_epik_Ionization_Penalty_Neutral>  (277) 
0.000150191

>  <r_epik_State_Penalty>  (277) 
0.000617056

>  <r_epik_Charging_Adjusted_Penalty>  (277) 
0.00156694

>  <i_epik_Tot_Q>  (277) 
1

>  <i_epik_Tot_abs_Q>  (277) 
1

>  <s_epik_Chemistry_Notes>  (277) 
This compound has an ester and may undergo hydrolysis at high or low pH.

>  <s_lp_Force_Field>  (277) 
OPLS3e

>  <r_lp_Energy>  (277) 
285.601

>  <b_lp_Chiralities_Consistent>  (277) 
1

>  <s_lp_Variant>  (277) 
70:0-1

>  <s_i_glide_gridfile>  (277) 
pfpi4k_grid

>  <i_i_glide_lignum>  (277) 
30

>  <i_i_glide_rotatable_bonds>  (277) 
11

>  <r_i_docking_score>  (277) 
-1.81962

>  <r_i_glide_ligand_efficiency>  (277) 
-0.0454906

>  <r_i_glide_ligand_efficiency_sa>  (277) 
-0.155576

>  <r_i_glide_ligand_efficiency_ln>  (277) 
-0.388072

>  <r_i_glide_gscore>  (277) 
-1.81962

>  <r_i_glide_lipo>  (277) 
-0.182961

>  <r_i_glide_hbond>  (277) 
-0.0217576

>  <r_i_glide_metal>  (277) 
-0

>  <r_i_glide_rewards>  (277) 
0

>  <r_i_glide_evdw>  (277) 
-25.5013

>  <r_i_glide_ecoul>  (277) 
-4.25255

>  <r_i_glide_erotb>  (277) 
0.333409

>  <r_i_glide_esite>  (277) 
-0.0353665

>  <r_i_glide_emodel>  (277) 
-27.9765

>  <r_i_glide_energy>  (277) 
-29.7539

>  <r_i_glide_einternal>  (277) 
4.34595

>  <r_i_glide_intrahb_reward>  (277) 
-0

>  <i_i_glide_confnum>  (277) 
1

>  <i_i_glide_posenum>  (277) 
20

>  <r_i_glide_eff_state_penalty>  (277) 
0

>  <ligand_id>  (277) 
70

>  <original_smiles>  (277) 
COC12CCC(CC1COC(=O)c1cccnc1)C1CC3CC(C)C4(O)C(NCC5CC5)C5CC1(C(O)C35O)C24

>  <smiles>  (277) 
[H]OC1([H])C2(O[H])C3([H])C([H])([H])C([H])(C([H])([H])[H])C4(O[H])C5([H])C6(OC([H])([H])[H])C([H])([H])C([H])([H])C([H])(C([H])([H])C6([H])C([H])([H])OC(=O)c6c([H])nc([H])c([H])c6[H])C([H])(C3([H])[H])C15C([H])([H])C2([H])C4([H])[N+]([H])([H])C([H])([H])C1([H])C([H])([H])C1([H])[H]

$$$$
70:0:1
     RDKit          3D

 85 92  0  0  1  0  0  0  0  0999 V2000
    1.6934   -1.5273    2.0321 C   0  0  0  0  0  0  0  0  0  0  0  0
    1.2544   -0.4634    2.8690 O   0  0  0  0  0  0  0  0  0  0  0  0
    2.0859    0.0109    3.9347 C   0  0  2  0  0  0  0  0  0  0  0  0
    3.5175    0.2738    3.3134 C   0  0  0  0  0  0  0  0  0  0  0  0
    4.6157    0.5835    4.3376 C   0  0  0  0  0  0  0  0  0  0  0  0
    4.0212    0.8826    5.7029 C   0  0  2  0  0  0  0  0  0  0  0  0
    3.2450   -0.3914    6.1642 C   0  0  0  0  0  0  0  0  0  0  0  0
    2.3764   -1.0537    5.0483 C   0  0  1  0  0  0  0  0  0  0  0  0
    1.1415   -1.7501    5.6560 C   0  0  0  0  0  0  0  0  0  0  0  0
    1.5358   -2.9076    6.3880 O   0  0  0  0  0  0  0  0  0  0  0  0
    0.7822   -3.4022    7.3999 C   0  0  0  0  0  0  0  0  0  0  0  0
   -0.2318   -2.8452    7.8432 O   0  0  0  0  0  0  0  0  0  0  0  0
    1.2902   -4.7034    7.9277 C   0  0  0  0  0  0  0  0  0  0  0  0
    0.6396   -5.3640    8.9931 C   0  0  0  0  0  0  0  0  0  0  0  0
    1.1424   -6.6035    9.4362 C   0  0  0  0  0  0  0  0  0  0  0  0
    2.2760   -7.1387    8.8054 C   0  0  0  0  0  0  0  0  0  0  0  0
    2.9119   -6.5213    7.7901 N   0  0  0  0  0  0  0  0  0  0  0  0
    2.4281   -5.3341    7.3649 C   0  0  0  0  0  0  0  0  0  0  0  0
    3.3218    2.2914    5.6703 C   0  0  2  0  0  0  0  0  0  0  0  0
    2.2950    2.6085    6.9012 C   0  0  0  0  0  0  0  0  0  0  0  0
    0.9381    3.4688    6.4938 C   0  0  2  0  0  0  0  0  0  0  0  0
   -0.4101    2.8438    6.8225 C   0  0  0  0  0  0  0  0  0  0  0  0
   -0.7908    1.6160    6.0032 C   0  0  1  0  0  0  0  0  0  0  0  0
   -2.2772    1.3397    6.2222 C   0  0  0  0  0  0  0  0  0  0  0  0
   -0.2089    1.5443    4.5296 C   0  0  1  0  0  0  0  0  0  0  0  0
   -0.8736    0.4257    3.9781 O   0  0  0  0  0  0  0  0  0  0  0  0
   -0.5282    2.7452    3.5854 C   0  0  1  0  0  0  0  0  0  0  0  0
   -1.8073    3.4780    3.9139 N   0  0  0  0  0  0  0  0  0  0  0  0
   -3.0969    2.8006    3.5427 C   0  0  0  0  0  0  0  0  0  0  0  0
   -3.5588    3.3770    2.2696 C   0  0  0  0  0  0  0  0  0  0  0  0
   -4.5340    4.5073    2.0278 C   0  0  0  0  0  0  0  0  0  0  0  0
   -4.9171    3.1130    1.5916 C   0  0  0  0  0  0  0  0  0  0  0  0
    0.6570    3.7093    3.6166 C   0  0  2  0  0  0  0  0  0  0  0  0
    1.9988    2.9960    3.1023 C   0  0  0  0  0  0  0  0  0  0  0  0
    2.3427    2.6114    4.5226 C   0  0  2  0  0  0  0  0  0  0  0  0
    2.3047    4.2177    4.9154 C   0  0  1  0  0  0  0  0  0  0  0  0
    2.8627    5.2584    4.1095 O   0  0  0  0  0  0  0  0  0  0  0  0
    0.8900    4.2650    5.0855 C   0  0  2  0  0  0  0  0  0  0  0  0
    0.3135    5.5526    5.2183 O   0  0  0  0  0  0  0  0  0  0  0  0
    1.3742    1.3013    4.5959 C   0  0  2  0  0  0  0  0  0  0  0  0
    0.8684   -1.8063    1.3915 H   0  0  0  0  0  0  0  0  0  0  0  0
    1.9936   -2.4180    2.5851 H   0  0  0  0  0  0  0  0  0  0  0  0
    2.4796   -1.2295    1.3385 H   0  0  0  0  0  0  0  0  0  0  0  0
    3.9027   -0.6292    2.8491 H   0  0  0  0  0  0  0  0  0  0  0  0
    3.5202    1.0016    2.5019 H   0  0  0  0  0  0  0  0  0  0  0  0
    5.3402   -0.2353    4.3917 H   0  0  0  0  0  0  0  0  0  0  0  0
    5.1837    1.4321    4.0083 H   0  0  0  0  0  0  0  0  0  0  0  0
    4.8594    0.9879    6.3871 H   0  0  0  0  0  0  0  0  0  0  0  0
    3.9907   -1.1228    6.4563 H   0  0  0  0  0  0  0  0  0  0  0  0
    2.6831   -0.2283    7.0849 H   0  0  0  0  0  0  0  0  0  0  0  0
    2.9794   -1.8352    4.5806 H   0  0  0  0  0  0  0  0  0  0  0  0
    0.5801   -1.0549    6.2772 H   0  0  0  0  0  0  0  0  0  0  0  0
    0.4833   -2.0898    4.8624 H   0  0  0  0  0  0  0  0  0  0  0  0
   -0.2384   -4.9324    9.4646 H   0  0  0  0  0  0  0  0  0  0  0  0
    0.6863   -7.1446   10.2554 H   0  0  0  0  0  0  0  0  0  0  0  0
    2.7057   -8.0797    9.1161 H   0  0  0  0  0  0  0  0  0  0  0  0
    2.9805   -4.9118    6.5407 H   0  0  0  0  0  0  0  0  0  0  0  0
    4.1610    2.9997    5.6818 H   0  0  0  0  0  0  0  0  0  0  0  0
    2.0014    1.7208    7.4554 H   0  0  0  0  0  0  0  0  0  0  0  0
    2.8466    3.1698    7.6570 H   0  0  0  0  0  0  0  0  0  0  0  0
    0.9951    4.2722    7.2196 H   0  0  0  0  0  0  0  0  0  0  0  0
   -0.4188    2.5565    7.8695 H   0  0  0  0  0  0  0  0  0  0  0  0
   -1.1756    3.6161    6.7349 H   0  0  0  0  0  0  0  0  0  0  0  0
   -0.3871    0.7590    6.5306 H   0  0  0  0  0  0  0  0  0  0  0  0
   -2.9138    2.1522    5.8972 H   0  0  0  0  0  0  0  0  0  0  0  0
   -2.5346    1.2555    7.2760 H   0  0  0  0  0  0  0  0  0  0  0  0
   -2.5224    0.3960    5.7355 H   0  0  0  0  0  0  0  0  0  0  0  0
   -0.5853    0.3220    3.0768 H   0  0  0  0  0  0  0  0  0  0  0  0
   -0.5812    2.4108    2.5531 H   0  0  0  0  0  0  0  0  0  0  0  0
   -1.8173    3.5024    4.9165 H   0  0  0  0  0  0  0  0  0  0  0  0
   -2.8722    1.7227    3.3784 H   0  0  0  0  0  0  0  0  0  0  0  0
   -3.9323    2.9782    4.2211 H   0  0  0  0  0  0  0  0  0  0  0  0
   -2.6391    3.3471    1.7035 H   0  0  0  0  0  0  0  0  0  0  0  0
   -5.0958    4.9423    2.8607 H   0  0  0  0  0  0  0  0  0  0  0  0
   -4.2736    5.1909    1.2242 H   0  0  0  0  0  0  0  0  0  0  0  0
   -4.9663    3.0338    0.5145 H   0  0  0  0  0  0  0  0  0  0  0  0
   -5.7076    2.5213    2.0877 H   0  0  0  0  0  0  0  0  0  0  0  0
    0.4328    4.5259    2.9326 H   0  0  0  0  0  0  0  0  0  0  0  0
    1.7509    2.1946    2.4162 H   0  0  0  0  0  0  0  0  0  0  0  0
    2.7116    3.5986    2.5486 H   0  0  0  0  0  0  0  0  0  0  0  0
    2.8207    4.5719    5.8122 H   0  0  0  0  0  0  0  0  0  0  0  0
    2.5625    5.1403    3.2123 H   0  0  0  0  0  0  0  0  0  0  0  0
    0.7647    6.1374    4.6150 H   0  0  0  0  0  0  0  0  0  0  0  0
    1.3646    0.9404    5.5997 H   0  0  0  0  0  0  0  0  0  0  0  0
   -1.7256    4.3966    3.4706 H   0  0  0  0  0  0  0  0  0  0  0  0
  1  2  1  0
  1 41  1  0
  1 42  1  0
  1 43  1  0
  3  2  1  6
  3  8  1  0
  3 40  1  0
  3  4  1  0
  4  5  1  0
  4 44  1  0
  4 45  1  0
  5  6  1  0
  5 46  1  0
  5 47  1  0
  6  7  1  0
  6 19  1  0
  6 48  1  1
  7  8  1  0
  7 49  1  0
  7 50  1  0
  8  9  1  0
  8 51  1  6
  9 10  1  0
  9 52  1  0
  9 53  1  0
 10 11  1  0
 11 12  2  0
 11 13  1  0
 13 18  1  0
 13 14  2  0
 14 15  1  0
 14 54  1  0
 15 16  2  0
 15 55  1  0
 16 17  1  0
 16 56  1  0
 17 18  2  0
 18 57  1  0
 19 35  1  0
 19 20  1  0
 19 58  1  1
 20 21  1  0
 20 59  1  0
 20 60  1  0
 21 38  1  0
 21 22  1  0
 21 61  1  1
 22 23  1  0
 22 62  1  0
 22 63  1  0
 23 24  1  0
 23 25  1  0
 23 64  1  1
 24 65  1  0
 24 66  1  0
 24 67  1  0
 25 40  1  0
 25 26  1  6
 25 27  1  0
 26 68  1  0
 27 28  1  0
 27 33  1  0
 27 69  1  6
 28 29  1  0
 28 70  1  0
 28 85  1  0
 29 30  1  0
 29 71  1  0
 29 72  1  0
 30 32  1  0
 30 31  1  0
 30 73  1  0
 31 32  1  0
 31 74  1  0
 31 75  1  0
 32 76  1  0
 32 77  1  0
 33 38  1  0
 33 34  1  0
 33 78  1  6
 35 34  1  6
 34 79  1  0
 34 80  1  0
 35 36  1  0
 35 40  1  0
 36 37  1  0
 36 38  1  0
 36 81  1  1
 37 82  1  0
 38 39  1  1
 39 83  1  0
 40 84  1  1
M  CHG  1  28   1
M  END
>  <i_m_ct_stereo_status>  (278) 
1

>  <s_m_source_file>  (278) 
/var/tmp/pbs.5076255.sched01/tmpk9_hntje/1089a46f3po.sdf

>  <i_m_source_file_index>  (278) 
30

>  <i_lp_mmshare_version>  (278) 
48012

>  <i_f3d_flags>  (278) 
0

>  <s_epik_input>  (278) 
W2NIXTFuW2NIXVtjSF1bY0hdYzFDKD1PKU9bQ0gyXVtDQEhdKFtDSDJdMilbQ0BdKE9bQ0gzXSkoW0NIMl1bQ0gyXVtDQEhdMltDQEhdM1tDQF00NTYpW0NAQEhdNltDQEBdNyhbT0hdKVtDQEhdKFtDSDNdKVtDSDJdW0NAQEhdKFtDSDJdMylbQ0BAXShbT0hdKShbQ0BASF01W09IXSlbQ0BASF0oW0NIMl00KVtDQEBIXTdbTkhdW0NIMl1bQ0hdOFtDSDJdW0NIMl04

>  <s_epik_cmdline>  (278) 
J2VwaWtfcHl0aG9uJywgJy1waHQnLCAnMi4wJywgJy1waCcsICc3LjAnLCAnLXRuJywgJzgnLCAnLW1hJywgJzIwMCcsICctaW1hZScsICc8aW5maWxlLm1hZT4nLCAnLW9tYWUnLCAnPG91dGZpbGUubWFlPic=

>  <r_epik_Ionization_Penalty>  (278) 
0.00110007

>  <r_epik_Ionization_Penalty_Charging>  (278) 
0.000949881

>  <r_epik_Ionization_Penalty_Neutral>  (278) 
0.000150191

>  <r_epik_State_Penalty>  (278) 
0.000617056

>  <r_epik_Charging_Adjusted_Penalty>  (278) 
0.00156694

>  <i_epik_Tot_Q>  (278) 
1

>  <i_epik_Tot_abs_Q>  (278) 
1

>  <s_epik_Chemistry_Notes>  (278) 
This compound has an ester and may undergo hydrolysis at high or low pH.

>  <s_lp_Force_Field>  (278) 
OPLS3e

>  <r_lp_Energy>  (278) 
285.601

>  <b_lp_Chiralities_Consistent>  (278) 
1

>  <s_lp_Variant>  (278) 
70:0-1

>  <s_i_glide_gridfile>  (278) 
pfpi4k_grid

>  <i_i_glide_lignum>  (278) 
30

>  <i_i_glide_rotatable_bonds>  (278) 
11

>  <r_i_docking_score>  (278) 
-1.40834

>  <r_i_glide_ligand_efficiency>  (278) 
-0.0352086

>  <r_i_glide_ligand_efficiency_sa>  (278) 
-0.120412

>  <r_i_glide_ligand_efficiency_ln>  (278) 
-0.300358

>  <r_i_glide_gscore>  (278) 
-1.40834

>  <r_i_glide_lipo>  (278) 
-0.333212

>  <r_i_glide_hbond>  (278) 
-0.0682452

>  <r_i_glide_metal>  (278) 
-0

>  <r_i_glide_rewards>  (278) 
0

>  <r_i_glide_evdw>  (278) 
-13.7487

>  <r_i_glide_ecoul>  (278) 
-4.47793

>  <r_i_glide_erotb>  (278) 
0.333409

>  <r_i_glide_esite>  (278) 
-0.0614937

>  <r_i_glide_emodel>  (278) 
-14.4807

>  <r_i_glide_energy>  (278) 
-18.2266

>  <r_i_glide_einternal>  (278) 
4.66304

>  <r_i_glide_intrahb_reward>  (278) 
-0

>  <i_i_glide_confnum>  (278) 
1

>  <i_i_glide_posenum>  (278) 
8

>  <r_i_glide_eff_state_penalty>  (278) 
0

>  <ligand_id>  (278) 
70

>  <original_smiles>  (278) 
COC12CCC(CC1COC(=O)c1cccnc1)C1CC3CC(C)C4(O)C(NCC5CC5)C5CC1(C(O)C35O)C24

>  <smiles>  (278) 
[H]OC1([H])C2(O[H])C3([H])C([H])([H])C([H])(C([H])([H])[H])C4(O[H])C5([H])C6(OC([H])([H])[H])C([H])([H])C([H])([H])C([H])(C([H])([H])C6([H])C([H])([H])OC(=O)c6c([H])nc([H])c([H])c6[H])C([H])(C3([H])[H])C15C([H])([H])C2([H])C4([H])[N+]([H])([H])C([H])([H])C1([H])C([H])([H])C1([H])[H]

$$$$
71:0:0
     RDKit          3D

 42 46  0  0  1  0  0  0  0  0999 V2000
   -0.2815   -8.8568    5.6301 C   0  0  0  0  0  0  0  0  0  0  0  0
   -0.8609   -7.7835    4.8844 O   0  0  0  0  0  0  0  0  0  0  0  0
   -0.0053   -7.1191    4.0034 C   0  0  2  0  0  0  0  0  0  0  0  0
    0.1561   -8.0014    2.7153 C   0  0  0  0  0  0  0  0  0  0  0  0
    1.3364   -7.6432    1.7956 C   0  0  1  0  0  0  0  0  0  0  0  0
    1.2993   -6.2276    1.4644 O   0  0  0  0  0  0  0  0  0  0  0  0
    2.0165   -5.3192    2.3385 C   0  0  2  0  0  0  0  0  0  0  0  0
    2.6108   -4.1783    1.4615 C   0  0  0  0  0  0  0  0  0  0  0  0
    4.1047   -4.2307    1.1526 C   0  0  0  0  0  0  0  0  0  0  0  0
    4.8323   -3.0241    1.0640 C   0  0  0  0  0  0  0  0  0  0  0  0
    6.2048   -3.0405    0.7676 C   0  0  0  0  0  0  0  0  0  0  0  0
    6.8652   -4.2600    0.5604 C   0  0  0  0  0  0  0  0  0  0  0  0
    6.1514   -5.4685    0.6417 C   0  0  0  0  0  0  0  0  0  0  0  0
    4.7719   -5.4589    0.9306 C   0  0  0  0  0  0  0  0  0  0  0  0
    4.0985   -6.6469    1.0097 O   0  0  0  0  0  0  0  0  0  0  0  0
    3.6468   -6.9856    2.2627 C   0  0  0  0  0  0  0  0  0  0  0  0
    3.0579   -6.1209    3.1004 C   0  0  0  0  0  0  0  0  0  0  0  0
    2.5078   -6.9303    4.2807 C   0  0  2  0  0  0  0  0  0  0  0  0
    2.7271   -8.3826    3.8264 C   0  0  0  0  0  0  0  0  0  0  0  0
    2.7391   -8.1817    2.3041 C   0  0  1  0  0  0  0  0  0  0  0  0
    3.2615   -9.4073    1.5448 C   0  0  0  0  0  0  0  0  0  0  0  0
    1.1559   -6.6463    4.6615 O   0  0  0  0  0  0  0  0  0  0  0  0
   -1.0231   -9.3098    6.2882 H   0  0  0  0  0  0  0  0  0  0  0  0
    0.5394   -8.5095    6.2597 H   0  0  0  0  0  0  0  0  0  0  0  0
    0.0783   -9.6628    4.9942 H   0  0  0  0  0  0  0  0  0  0  0  0
   -0.5361   -6.2044    3.7454 H   0  0  0  0  0  0  0  0  0  0  0  0
    0.1760   -9.0662    2.9456 H   0  0  0  0  0  0  0  0  0  0  0  0
   -0.7718   -7.8652    2.1578 H   0  0  0  0  0  0  0  0  0  0  0  0
    1.1292   -8.1557    0.8610 H   0  0  0  0  0  0  0  0  0  0  0  0
    1.2958   -4.8695    3.0193 H   0  0  0  0  0  0  0  0  0  0  0  0
    2.0904   -4.1305    0.5061 H   0  0  0  0  0  0  0  0  0  0  0  0
    2.4032   -3.2323    1.9598 H   0  0  0  0  0  0  0  0  0  0  0  0
    4.3271   -2.0846    1.2169 H   0  0  0  0  0  0  0  0  0  0  0  0
    6.7490   -2.1097    0.6999 H   0  0  0  0  0  0  0  0  0  0  0  0
    7.9202   -4.2717    0.3334 H   0  0  0  0  0  0  0  0  0  0  0  0
    6.6642   -6.4062    0.4940 H   0  0  0  0  0  0  0  0  0  0  0  0
    3.1413   -6.7207    5.1410 H   0  0  0  0  0  0  0  0  0  0  0  0
    3.7176   -8.7099    4.1510 H   0  0  0  0  0  0  0  0  0  0  0  0
    2.0295   -9.1246    4.2035 H   0  0  0  0  0  0  0  0  0  0  0  0
    2.6038  -10.2602    1.6893 H   0  0  0  0  0  0  0  0  0  0  0  0
    4.2573   -9.6920    1.8823 H   0  0  0  0  0  0  0  0  0  0  0  0
    3.3235   -9.2168    0.4796 H   0  0  0  0  0  0  0  0  0  0  0  0
  1  2  1  0
  1 23  1  0
  1 24  1  0
  1 25  1  0
  2  3  1  0
  3 22  1  0
  3  4  1  0
  3 26  1  6
  4  5  1  0
  4 27  1  0
  4 28  1  0
  5 20  1  0
  5  6  1  0
  5 29  1  6
  6  7  1  0
  7 17  1  0
  7  8  1  0
  7 30  1  1
  8  9  1  0
  8 31  1  0
  8 32  1  0
  9 14  2  0
  9 10  1  0
 10 11  2  0
 10 33  1  0
 11 12  1  0
 11 34  1  0
 12 13  2  0
 12 35  1  0
 13 14  1  0
 13 36  1  0
 14 15  1  0
 15 16  1  0
 16 20  1  0
 16 17  2  0
 17 18  1  0
 18 19  1  0
 18 22  1  0
 18 37  1  1
 19 20  1  0
 19 38  1  0
 19 39  1  0
 20 21  1  6
 21 40  1  0
 21 41  1  0
 21 42  1  0
M  END
>  <i_m_ct_stereo_status>  (279) 
1

>  <s_m_source_file>  (279) 
/var/tmp/pbs.5076255.sched01/tmpk9_hntje/1089a46f3po.sdf

>  <i_m_source_file_index>  (279) 
31

>  <i_lp_mmshare_version>  (279) 
48012

>  <i_f3d_flags>  (279) 
0

>  <s_epik_input>  (279) 
W0NIM11bQ0BdMTJbQ0BIXTNbQ0gyXVtDQEBIXShPW0NIM10pT1tDQEBIXShbQ0gyXTIpQzQ9QzFPYzVjKFtDSDJdW0NASF00TzMpW2NIXVtjSF1bY0hdW2NIXTU=

>  <s_epik_cmdline>  (279) 
J2VwaWtfcHl0aG9uJywgJy1waHQnLCAnMi4wJywgJy1waCcsICc3LjAnLCAnLXRuJywgJzgnLCAnLW1hJywgJzIwMCcsICctaW1hZScsICc8aW5maWxlLm1hZT4nLCAnLW9tYWUnLCAnPG91dGZpbGUubWFlPic=

>  <r_lp_tautomer_probability>  (279) 
1

>  <r_epik_Ionization_Penalty>  (279) 
4.64269e-13

>  <r_epik_Ionization_Penalty_Charging>  (279) 
0

>  <r_epik_Ionization_Penalty_Neutral>  (279) 
4.64269e-13

>  <r_epik_State_Penalty>  (279) 
-0

>  <r_epik_Charging_Adjusted_Penalty>  (279) 
0

>  <i_epik_Tot_Q>  (279) 
0

>  <i_epik_Tot_abs_Q>  (279) 
0

>  <s_epik_Chemistry_Notes>  (279) 
This compound contains an acetal/aminal-like group ( X-CH(R)-Y where X, Y are N, S, or O) that may be acid/base labile, releasing an aldehyde.

>  <s_lp_Force_Field>  (279) 
OPLS3e

>  <r_lp_Energy>  (279) 
95.136

>  <b_lp_Chiralities_Consistent>  (279) 
1

>  <s_lp_Variant>  (279) 
71:0-1

>  <s_i_glide_gridfile>  (279) 
pfpi4k_grid

>  <i_i_glide_lignum>  (279) 
31

>  <i_i_glide_rotatable_bonds>  (279) 
1

>  <r_i_docking_score>  (279) 
-3.16796

>  <r_i_glide_ligand_efficiency>  (279) 
-0.143998

>  <r_i_glide_ligand_efficiency_sa>  (279) 
-0.403489

>  <r_i_glide_ligand_efficiency_ln>  (279) 
-0.774365

>  <r_i_glide_gscore>  (279) 
-3.16796

>  <r_i_glide_lipo>  (279) 
-0.439604

>  <r_i_glide_hbond>  (279) 
-0.0854823

>  <r_i_glide_metal>  (279) 
-0

>  <r_i_glide_rewards>  (279) 
-1.36126

>  <r_i_glide_evdw>  (279) 
-18.8878

>  <r_i_glide_ecoul>  (279) 
-1.99853

>  <r_i_glide_erotb>  (279) 
0

>  <r_i_glide_esite>  (279) 
-0.03745

>  <r_i_glide_emodel>  (279) 
-23.8886

>  <r_i_glide_energy>  (279) 
-20.8863

>  <r_i_glide_einternal>  (279) 
1.91043

>  <r_i_glide_intrahb_reward>  (279) 
-0

>  <i_i_glide_confnum>  (279) 
1

>  <i_i_glide_posenum>  (279) 
18

>  <r_i_glide_eff_state_penalty>  (279) 
0

>  <ligand_id>  (279) 
71

>  <original_smiles>  (279) 
COC1CC2OC3Cc4ccccc4OC4=C3C(CC42C)O1

>  <smiles>  (279) 
[H]c1c([H])c([H])c2c(c1[H])OC1=C3C([H])(OC4([H])C([H])([H])C([H])(OC([H])([H])[H])OC3([H])C([H])([H])C14C([H])([H])[H])C2([H])[H]

$$$$
71:0:1
     RDKit          3D

 42 46  0  0  1  0  0  0  0  0999 V2000
   -1.3092   -8.2107    2.3318 C   0  0  0  0  0  0  0  0  0  0  0  0
    0.0280   -8.2813    2.7893 O   0  0  0  0  0  0  0  0  0  0  0  0
    0.9321   -7.4560    2.1219 C   0  0  2  0  0  0  0  0  0  0  0  0
    2.3388   -7.9546    2.5842 C   0  0  0  0  0  0  0  0  0  0  0  0
    3.5265   -6.9989    2.3423 C   0  0  1  0  0  0  0  0  0  0  0  0
    3.5270   -6.5378    0.9637 O   0  0  0  0  0  0  0  0  0  0  0  0
    2.7640   -5.3460    0.6573 C   0  0  2  0  0  0  0  0  0  0  0  0
    3.5208   -4.5723   -0.4589 C   0  0  0  0  0  0  0  0  0  0  0  0
    4.3202   -3.3404   -0.0544 C   0  0  0  0  0  0  0  0  0  0  0  0
    4.3841   -2.2414   -0.9417 C   0  0  0  0  0  0  0  0  0  0  0  0
    5.1276   -1.0999   -0.6069 C   0  0  0  0  0  0  0  0  0  0  0  0
    5.8129   -1.0487    0.6168 C   0  0  0  0  0  0  0  0  0  0  0  0
    5.7590   -2.1362    1.5072 C   0  0  0  0  0  0  0  0  0  0  0  0
    5.0181   -3.2838    1.1736 C   0  0  0  0  0  0  0  0  0  0  0  0
    4.9691   -4.3320    2.0578 O   0  0  0  0  0  0  0  0  0  0  0  0
    3.7414   -4.5746    2.6260 C   0  0  0  0  0  0  0  0  0  0  0  0
    2.5903   -4.5632    1.9467 C   0  0  0  0  0  0  0  0  0  0  0  0
    1.4984   -5.0962    2.8839 C   0  0  2  0  0  0  0  0  0  0  0  0
    2.3030   -5.5880    4.0978 C   0  0  0  0  0  0  0  0  0  0  0  0
    3.6609   -5.8462    3.4242 C   0  0  1  0  0  0  0  0  0  0  0  0
    4.8130   -6.0428    4.4172 C   0  0  0  0  0  0  0  0  0  0  0  0
    0.6109   -6.0919    2.3484 O   0  0  0  0  0  0  0  0  0  0  0  0
   -1.9215   -8.9203    2.8871 H   0  0  0  0  0  0  0  0  0  0  0  0
   -1.3743   -8.4753    1.2779 H   0  0  0  0  0  0  0  0  0  0  0  0
   -1.7304   -7.2163    2.4784 H   0  0  0  0  0  0  0  0  0  0  0  0
    0.8212   -7.6250    1.0515 H   0  0  0  0  0  0  0  0  0  0  0  0
    2.3020   -8.2832    3.6233 H   0  0  0  0  0  0  0  0  0  0  0  0
    2.5197   -8.8677    2.0146 H   0  0  0  0  0  0  0  0  0  0  0  0
    4.4231   -7.6103    2.4222 H   0  0  0  0  0  0  0  0  0  0  0  0
    1.8023   -5.6528    0.2509 H   0  0  0  0  0  0  0  0  0  0  0  0
    4.2142   -5.2335   -0.9785 H   0  0  0  0  0  0  0  0  0  0  0  0
    2.7832   -4.2546   -1.1963 H   0  0  0  0  0  0  0  0  0  0  0  0
    3.8564   -2.2797   -1.8816 H   0  0  0  0  0  0  0  0  0  0  0  0
    5.1593   -0.2605   -1.2890 H   0  0  0  0  0  0  0  0  0  0  0  0
    6.3756   -0.1702    0.8778 H   0  0  0  0  0  0  0  0  0  0  0  0
    6.2677   -2.0809    2.4578 H   0  0  0  0  0  0  0  0  0  0  0  0
    0.8965   -4.2403    3.1836 H   0  0  0  0  0  0  0  0  0  0  0  0
    2.4135   -4.7684    4.8123 H   0  0  0  0  0  0  0  0  0  0  0  0
    1.8595   -6.4193    4.6475 H   0  0  0  0  0  0  0  0  0  0  0  0
    4.6456   -6.9261    5.0286 H   0  0  0  0  0  0  0  0  0  0  0  0
    4.9068   -5.1883    5.0846 H   0  0  0  0  0  0  0  0  0  0  0  0
    5.7653   -6.1685    3.9048 H   0  0  0  0  0  0  0  0  0  0  0  0
  1  2  1  0
  1 23  1  0
  1 24  1  0
  1 25  1  0
  2  3  1  0
  3 22  1  0
  3  4  1  0
  3 26  1  6
  4  5  1  0
  4 27  1  0
  4 28  1  0
  5 20  1  0
  5  6  1  0
  5 29  1  6
  6  7  1  0
  7 17  1  0
  7  8  1  0
  7 30  1  6
  8  9  1  0
  8 31  1  0
  8 32  1  0
  9 14  2  0
  9 10  1  0
 10 11  2  0
 10 33  1  0
 11 12  1  0
 11 34  1  0
 12 13  2  0
 12 35  1  0
 13 14  1  0
 13 36  1  0
 14 15  1  0
 15 16  1  0
 16 20  1  0
 16 17  2  0
 17 18  1  0
 18 19  1  0
 18 22  1  0
 18 37  1  1
 19 20  1  0
 19 38  1  0
 19 39  1  0
 20 21  1  1
 21 40  1  0
 21 41  1  0
 21 42  1  0
M  END
>  <i_m_ct_stereo_status>  (280) 
1

>  <s_m_source_file>  (280) 
/var/tmp/pbs.5076255.sched01/tmpk9_hntje/1089a46f3po.sdf

>  <i_m_source_file_index>  (280) 
31

>  <i_lp_mmshare_version>  (280) 
48012

>  <i_f3d_flags>  (280) 
0

>  <s_epik_input>  (280) 
W0NIM11bQ0BdMTJbQ0BIXTNbQ0gyXVtDQEBIXShPW0NIM10pT1tDQEBIXShbQ0gyXTIpQzQ9QzFPYzVjKFtDSDJdW0NASF00TzMpW2NIXVtjSF1bY0hdW2NIXTU=

>  <s_epik_cmdline>  (280) 
J2VwaWtfcHl0aG9uJywgJy1waHQnLCAnMi4wJywgJy1waCcsICc3LjAnLCAnLXRuJywgJzgnLCAnLW1hJywgJzIwMCcsICctaW1hZScsICc8aW5maWxlLm1hZT4nLCAnLW9tYWUnLCAnPG91dGZpbGUubWFlPic=

>  <r_lp_tautomer_probability>  (280) 
1

>  <r_epik_Ionization_Penalty>  (280) 
4.64269e-13

>  <r_epik_Ionization_Penalty_Charging>  (280) 
0

>  <r_epik_Ionization_Penalty_Neutral>  (280) 
4.64269e-13

>  <r_epik_State_Penalty>  (280) 
-0

>  <r_epik_Charging_Adjusted_Penalty>  (280) 
0

>  <i_epik_Tot_Q>  (280) 
0

>  <i_epik_Tot_abs_Q>  (280) 
0

>  <s_epik_Chemistry_Notes>  (280) 
This compound contains an acetal/aminal-like group ( X-CH(R)-Y where X, Y are N, S, or O) that may be acid/base labile, releasing an aldehyde.

>  <s_lp_Force_Field>  (280) 
OPLS3e

>  <r_lp_Energy>  (280) 
95.136

>  <b_lp_Chiralities_Consistent>  (280) 
1

>  <s_lp_Variant>  (280) 
71:0-1

>  <s_i_glide_gridfile>  (280) 
pfpi4k_grid

>  <i_i_glide_lignum>  (280) 
31

>  <i_i_glide_rotatable_bonds>  (280) 
1

>  <r_i_docking_score>  (280) 
-3.14518

>  <r_i_glide_ligand_efficiency>  (280) 
-0.142963

>  <r_i_glide_ligand_efficiency_sa>  (280) 
-0.400587

>  <r_i_glide_ligand_efficiency_ln>  (280) 
-0.768797

>  <r_i_glide_gscore>  (280) 
-3.14518

>  <r_i_glide_lipo>  (280) 
-0.290873

>  <r_i_glide_hbond>  (280) 
-0.0956965

>  <r_i_glide_metal>  (280) 
-0

>  <r_i_glide_rewards>  (280) 
-1.36126

>  <r_i_glide_evdw>  (280) 
-19.1562

>  <r_i_glide_ecoul>  (280) 
-2.6487

>  <r_i_glide_erotb>  (280) 
0

>  <r_i_glide_esite>  (280) 
-0.0422414

>  <r_i_glide_emodel>  (280) 
-25.867

>  <r_i_glide_energy>  (280) 
-21.8049

>  <r_i_glide_einternal>  (280) 
0.00367346

>  <r_i_glide_intrahb_reward>  (280) 
-0

>  <i_i_glide_confnum>  (280) 
1

>  <i_i_glide_posenum>  (280) 
7

>  <r_i_glide_eff_state_penalty>  (280) 
0

>  <ligand_id>  (280) 
71

>  <original_smiles>  (280) 
COC1CC2OC3Cc4ccccc4OC4=C3C(CC42C)O1

>  <smiles>  (280) 
[H]c1c([H])c([H])c2c(c1[H])OC1=C3C([H])(OC4([H])C([H])([H])C([H])(OC([H])([H])[H])OC3([H])C([H])([H])C14C([H])([H])[H])C2([H])[H]

$$$$
71:0:2
     RDKit          3D

 42 46  0  0  1  0  0  0  0  0999 V2000
   -1.7430   -8.4588    4.1652 C   0  0  0  0  0  0  0  0  0  0  0  0
   -1.4258   -8.6781    2.8000 O   0  0  0  0  0  0  0  0  0  0  0  0
   -0.2810   -8.0324    2.3407 C   0  0  2  0  0  0  0  0  0  0  0  0
    0.9917   -8.8179    2.8189 C   0  0  0  0  0  0  0  0  0  0  0  0
    2.3324   -8.0513    2.7517 C   0  0  1  0  0  0  0  0  0  0  0  0
    2.5283   -7.4739    1.4330 O   0  0  0  0  0  0  0  0  0  0  0  0
    2.0020   -6.1463    1.1971 C   0  0  2  0  0  0  0  0  0  0  0  0
    2.9639   -5.4231    0.2105 C   0  0  0  0  0  0  0  0  0  0  0  0
    3.9195   -4.3867    0.7986 C   0  0  0  0  0  0  0  0  0  0  0  0
    4.2417   -3.2373    0.0410 C   0  0  0  0  0  0  0  0  0  0  0  0
    5.1344   -2.2733    0.5508 C   0  0  0  0  0  0  0  0  0  0  0  0
    5.7027   -2.4480    1.8249 C   0  0  0  0  0  0  0  0  0  0  0  0
    5.3854   -3.5879    2.5879 C   0  0  0  0  0  0  0  0  0  0  0  0
    4.5064   -4.5584    2.0744 C   0  0  0  0  0  0  0  0  0  0  0  0
    4.2108   -5.6566    2.8375 O   0  0  0  0  0  0  0  0  0  0  0  0
    2.9256   -5.7374    3.2972 C   0  0  0  0  0  0  0  0  0  0  0  0
    1.8560   -5.4569    2.5439 C   0  0  0  0  0  0  0  0  0  0  0  0
    0.6191   -5.8794    3.3359 C   0  0  2  0  0  0  0  0  0  0  0  0
    1.2237   -6.6056    4.5514 C   0  0  0  0  0  0  0  0  0  0  0  0
    2.5680   -7.0380    3.9498 C   0  0  1  0  0  0  0  0  0  0  0  0
    3.5681   -7.5255    5.0007 C   0  0  0  0  0  0  0  0  0  0  0  0
   -0.3556   -6.6483    2.6110 O   0  0  0  0  0  0  0  0  0  0  0  0
   -2.6082   -9.0482    4.4266 H   0  0  0  0  0  0  0  0  0  0  0  0
   -1.9892   -7.4190    4.3572 H   0  0  0  0  0  0  0  0  0  0  0  0
   -0.9719   -8.7837    4.8549 H   0  0  0  0  0  0  0  0  0  0  0  0
   -0.3447   -8.0923    1.2570 H   0  0  0  0  0  0  0  0  0  0  0  0
    0.8589   -9.2627    3.8021 H   0  0  0  0  0  0  0  0  0  0  0  0
    1.0582   -9.6727    2.1436 H   0  0  0  0  0  0  0  0  0  0  0  0
    3.1057   -8.8141    2.8279 H   0  0  0  0  0  0  0  0  0  0  0  0
    1.0404   -6.2534    0.6924 H   0  0  0  0  0  0  0  0  0  0  0  0
    3.5673   -6.1594   -0.3237 H   0  0  0  0  0  0  0  0  0  0  0  0
    2.3598   -4.9269   -0.5495 H   0  0  0  0  0  0  0  0  0  0  0  0
    3.8089   -3.0991   -0.9365 H   0  0  0  0  0  0  0  0  0  0  0  0
    5.3730   -1.4024   -0.0336 H   0  0  0  0  0  0  0  0  0  0  0  0
    6.3766   -1.7072    2.2109 H   0  0  0  0  0  0  0  0  0  0  0  0
    5.8054   -3.7157    3.5718 H   0  0  0  0  0  0  0  0  0  0  0  0
    0.1516   -4.9616    3.6901 H   0  0  0  0  0  0  0  0  0  0  0  0
    1.4103   -5.8756    5.3448 H   0  0  0  0  0  0  0  0  0  0  0  0
    0.6256   -7.3925    5.0061 H   0  0  0  0  0  0  0  0  0  0  0  0
    3.1987   -8.4177    5.5030 H   0  0  0  0  0  0  0  0  0  0  0  0
    3.7398   -6.7658    5.7606 H   0  0  0  0  0  0  0  0  0  0  0  0
    4.5270   -7.7709    4.5521 H   0  0  0  0  0  0  0  0  0  0  0  0
  1  2  1  0
  1 23  1  0
  1 24  1  0
  1 25  1  0
  2  3  1  0
  3 22  1  0
  3  4  1  0
  3 26  1  6
  4  5  1  0
  4 27  1  0
  4 28  1  0
  5 20  1  0
  5  6  1  0
  5 29  1  1
  6  7  1  0
  7 17  1  0
  7  8  1  0
  7 30  1  6
  8  9  1  0
  8 31  1  0
  8 32  1  0
  9 14  2  0
  9 10  1  0
 10 11  2  0
 10 33  1  0
 11 12  1  0
 11 34  1  0
 12 13  2  0
 12 35  1  0
 13 14  1  0
 13 36  1  0
 14 15  1  0
 15 16  1  0
 16 20  1  0
 16 17  2  0
 17 18  1  0
 18 19  1  0
 18 22  1  0
 18 37  1  1
 19 20  1  0
 19 38  1  0
 19 39  1  0
 20 21  1  1
 21 40  1  0
 21 41  1  0
 21 42  1  0
M  END
>  <i_m_ct_stereo_status>  (281) 
1

>  <s_m_source_file>  (281) 
/var/tmp/pbs.5076255.sched01/tmpk9_hntje/1089a46f3po.sdf

>  <i_m_source_file_index>  (281) 
31

>  <i_lp_mmshare_version>  (281) 
48012

>  <i_f3d_flags>  (281) 
0

>  <s_epik_input>  (281) 
W0NIM11bQ0BdMTJbQ0BIXTNbQ0gyXVtDQEBIXShPW0NIM10pT1tDQEBIXShbQ0gyXTIpQzQ9QzFPYzVjKFtDSDJdW0NASF00TzMpW2NIXVtjSF1bY0hdW2NIXTU=

>  <s_epik_cmdline>  (281) 
J2VwaWtfcHl0aG9uJywgJy1waHQnLCAnMi4wJywgJy1waCcsICc3LjAnLCAnLXRuJywgJzgnLCAnLW1hJywgJzIwMCcsICctaW1hZScsICc8aW5maWxlLm1hZT4nLCAnLW9tYWUnLCAnPG91dGZpbGUubWFlPic=

>  <r_lp_tautomer_probability>  (281) 
1

>  <r_epik_Ionization_Penalty>  (281) 
4.64269e-13

>  <r_epik_Ionization_Penalty_Charging>  (281) 
0

>  <r_epik_Ionization_Penalty_Neutral>  (281) 
4.64269e-13

>  <r_epik_State_Penalty>  (281) 
-0

>  <r_epik_Charging_Adjusted_Penalty>  (281) 
0

>  <i_epik_Tot_Q>  (281) 
0

>  <i_epik_Tot_abs_Q>  (281) 
0

>  <s_epik_Chemistry_Notes>  (281) 
This compound contains an acetal/aminal-like group ( X-CH(R)-Y where X, Y are N, S, or O) that may be acid/base labile, releasing an aldehyde.

>  <s_lp_Force_Field>  (281) 
OPLS3e

>  <r_lp_Energy>  (281) 
95.136

>  <b_lp_Chiralities_Consistent>  (281) 
1

>  <s_lp_Variant>  (281) 
71:0-1

>  <s_i_glide_gridfile>  (281) 
pfpi4k_grid

>  <i_i_glide_lignum>  (281) 
31

>  <i_i_glide_rotatable_bonds>  (281) 
1

>  <r_i_docking_score>  (281) 
-3.11873

>  <r_i_glide_ligand_efficiency>  (281) 
-0.14176

>  <r_i_glide_ligand_efficiency_sa>  (281) 
-0.397218

>  <r_i_glide_ligand_efficiency_ln>  (281) 
-0.762332

>  <r_i_glide_gscore>  (281) 
-3.11873

>  <r_i_glide_lipo>  (281) 
-0.175013

>  <r_i_glide_hbond>  (281) 
-0.16

>  <r_i_glide_metal>  (281) 
-0

>  <r_i_glide_rewards>  (281) 
-1.36126

>  <r_i_glide_evdw>  (281) 
-17.6176

>  <r_i_glide_ecoul>  (281) 
-3.23198

>  <r_i_glide_erotb>  (281) 
0

>  <r_i_glide_esite>  (281) 
-0.0567813

>  <r_i_glide_emodel>  (281) 
-23.6886

>  <r_i_glide_energy>  (281) 
-20.8496

>  <r_i_glide_einternal>  (281) 
2.0012

>  <r_i_glide_intrahb_reward>  (281) 
-0

>  <i_i_glide_confnum>  (281) 
2

>  <i_i_glide_posenum>  (281) 
15

>  <r_i_glide_eff_state_penalty>  (281) 
0

>  <ligand_id>  (281) 
71

>  <original_smiles>  (281) 
COC1CC2OC3Cc4ccccc4OC4=C3C(CC42C)O1

>  <smiles>  (281) 
[H]c1c([H])c([H])c2c(c1[H])OC1=C3C([H])(OC4([H])C([H])([H])C([H])(OC([H])([H])[H])OC3([H])C([H])([H])C14C([H])([H])[H])C2([H])[H]

$$$$
72:0:0
     RDKit          3D

 51 55  0  0  1  0  0  0  0  0999 V2000
    4.8488   -2.4600    8.0423 C   0  0  0  0  0  0  0  0  0  0  0  0
    4.2336   -3.7977    7.7075 C   0  0  0  0  0  0  0  0  0  0  0  0
    2.8577   -3.8949    7.4196 C   0  0  0  0  0  0  0  0  0  0  0  0
    2.2783   -5.1391    7.1019 C   0  0  0  0  0  0  0  0  0  0  0  0
    3.0841   -6.2978    7.0807 C   0  0  0  0  0  0  0  0  0  0  0  0
    2.5720   -7.6179    6.8632 N   0  0  0  0  0  0  0  0  0  0  0  0
    3.1936   -8.6231    6.2078 C   0  0  0  0  0  0  0  0  0  0  0  0
    2.5125   -9.8045    6.8447 C   0  0  0  0  0  0  0  0  0  0  0  0
    1.1319   -9.3452    6.3930 C   0  0  1  0  0  0  0  0  0  0  0  0
   -0.0740  -10.1851    6.7561 C   0  0  0  0  0  0  0  0  0  0  0  0
    1.1485   -7.9745    7.0814 C   0  0  0  0  0  0  0  0  0  0  0  0
    1.4361   -9.3476    4.8868 C   0  0  1  0  0  0  0  0  0  0  0  0
    0.4355   -8.6112    4.0391 C   0  0  0  0  0  0  0  0  0  0  0  0
   -0.5311   -9.3148    3.2968 C   0  0  0  0  0  0  0  0  0  0  0  0
   -1.4728   -8.5777    2.5711 C   0  0  0  0  0  0  0  0  0  0  0  0
   -1.4001   -7.1699    2.6351 C   0  0  0  0  0  0  0  0  0  0  0  0
   -0.4810   -6.4963    3.3339 N   0  0  0  0  0  0  0  0  0  0  0  0
    0.4257   -7.2047    4.0257 C   0  0  0  0  0  0  0  0  0  0  0  0
    2.7905   -8.7431    4.9300 N   0  0  0  0  0  0  0  0  0  0  0  0
    3.6073   -8.5739    3.7625 C   0  0  0  0  0  0  0  0  0  0  0  0
    3.5705   -9.4727    2.6716 C   0  0  0  0  0  0  0  0  0  0  0  0
    4.4197   -9.2659    1.5799 C   0  0  0  0  0  0  0  0  0  0  0  0
    5.3020   -8.1742    1.5665 C   0  0  0  0  0  0  0  0  0  0  0  0
    5.3327   -7.2767    2.6472 C   0  0  0  0  0  0  0  0  0  0  0  0
    4.4824   -7.4794    3.7381 C   0  0  0  0  0  0  0  0  0  0  0  0
    4.4553   -6.2034    7.3533 C   0  0  0  0  0  0  0  0  0  0  0  0
    5.0276   -4.9624    7.6699 C   0  0  0  0  0  0  0  0  0  0  0  0
    4.7234   -1.7671    7.2184 H   0  0  0  0  0  0  0  0  0  0  0  0
    5.9103   -2.5480    8.2347 H   0  0  0  0  0  0  0  0  0  0  0  0
    4.3893   -2.0312    8.9250 H   0  0  0  0  0  0  0  0  0  0  0  0
    2.2389   -3.0111    7.4637 H   0  0  0  0  0  0  0  0  0  0  0  0
    1.2081   -5.2007    6.9028 H   0  0  0  0  0  0  0  0  0  0  0  0
    2.8656  -10.7587    6.4329 H   0  0  0  0  0  0  0  0  0  0  0  0
    2.6655   -9.8186    7.9297 H   0  0  0  0  0  0  0  0  0  0  0  0
   -1.0227   -9.6752    6.5581 H   0  0  0  0  0  0  0  0  0  0  0  0
   -0.0269  -10.4458    7.8099 H   0  0  0  0  0  0  0  0  0  0  0  0
   -0.0598  -11.0892    6.1559 H   0  0  0  0  0  0  0  0  0  0  0  0
    0.9462   -8.0382    8.1597 H   0  0  0  0  0  0  0  0  0  0  0  0
    0.4314   -7.2706    6.6541 H   0  0  0  0  0  0  0  0  0  0  0  0
    1.5109  -10.3889    4.5051 H   0  0  0  0  0  0  0  0  0  0  0  0
   -0.5701  -10.4000    3.2882 H   0  0  0  0  0  0  0  0  0  0  0  0
   -2.2492   -9.0356    1.9674 H   0  0  0  0  0  0  0  0  0  0  0  0
   -2.1103   -6.5719    2.1011 H   0  0  0  0  0  0  0  0  0  0  0  0
    1.1198   -6.5890    4.5746 H   0  0  0  0  0  0  0  0  0  0  0  0
    2.9104  -10.3356    2.6856 H   0  0  0  0  0  0  0  0  0  0  0  0
    4.4231   -9.9504    0.7440 H   0  0  0  0  0  0  0  0  0  0  0  0
    5.9503   -8.0326    0.7267 H   0  0  0  0  0  0  0  0  0  0  0  0
    6.0273   -6.4386    2.6224 H   0  0  0  0  0  0  0  0  0  0  0  0
    4.5158   -6.7898    4.5739 H   0  0  0  0  0  0  0  0  0  0  0  0
    5.0668   -7.1036    7.3471 H   0  0  0  0  0  0  0  0  0  0  0  0
    6.0916   -4.9056    7.9037 H   0  0  0  0  0  0  0  0  0  0  0  0
  1  2  1  0
  1 28  1  0
  1 29  1  0
  1 30  1  0
  2 27  2  0
  2  3  1  0
  3  4  2  0
  3 31  1  0
  4  5  1  0
  4 32  1  0
  5  6  1  0
  5 26  2  0
  6 11  1  0
  6  7  2  0
  7 19  1  0
  7  8  1  0
  8  9  1  0
  8 33  1  0
  8 34  1  0
  9 10  1  6
  9 11  1  0
  9 12  1  0
 10 35  1  0
 10 36  1  0
 10 37  1  0
 11 38  1  0
 11 39  1  0
 12 13  1  0
 12 19  1  0
 12 40  1  6
 13 18  1  0
 13 14  2  0
 14 15  1  0
 14 41  1  0
 15 16  2  0
 15 42  1  0
 16 17  1  0
 16 43  1  0
 17 18  2  0
 18 44  1  0
 19 20  1  0
 20 25  1  0
 20 21  2  0
 21 22  1  0
 21 45  1  0
 22 23  2  0
 22 46  1  0
 23 24  1  0
 23 47  1  0
 24 25  2  0
 24 48  1  0
 25 49  1  0
 26 27  1  0
 26 50  1  0
 27 51  1  0
M  CHG  1   6   1
M  END
>  <i_m_ct_stereo_status>  (282) 
1

>  <s_m_source_file>  (282) 
/var/tmp/pbs.5076255.sched01/tmpk9_hntje/1089a46f3po.sdf

>  <i_m_source_file_index>  (282) 
32

>  <i_lp_mmshare_version>  (282) 
48012

>  <i_f3d_flags>  (282) 
0

>  <s_epik_input>  (282) 
W0NIM11jMVtjSF1bY0hdYyhbY0hdW2NIXTEpW04rXShbQ0gyXTIpPUMoW0NIMl1bQ0BAXTIzW0NIM10pTihjNFtjSF1bY0hdW2NIXVtjSF1bY0hdNClbQ0BASF0zYzVbY0hdW2NIXVtjSF1uW2NIXTU=

>  <s_epik_cmdline>  (282) 
J2VwaWtfcHl0aG9uJywgJy1waHQnLCAnMi4wJywgJy1waCcsICc3LjAnLCAnLXRuJywgJzgnLCAnLW1hJywgJzIwMCcsICctaW1hZScsICc8aW5maWxlLm1hZT4nLCAnLW9tYWUnLCAnPG91dGZpbGUubWFlPic=

>  <r_epik_Ionization_Penalty>  (282) 
0.00153798

>  <r_epik_Ionization_Penalty_Charging>  (282) 
0

>  <r_epik_Ionization_Penalty_Neutral>  (282) 
0.00153798

>  <r_epik_State_Penalty>  (282) 
0.0010321

>  <r_epik_Charging_Adjusted_Penalty>  (282) 
0.0010321

>  <i_epik_Tot_Q>  (282) 
1

>  <i_epik_Tot_abs_Q>  (282) 
1

>  <s_epik_Chemistry_Notes>  (282) 
This compound has an imine and may undergo hydrolysis.

>  <s_lp_Force_Field>  (282) 
OPLS3e

>  <r_lp_Energy>  (282) 
93.8746

>  <b_lp_Chiralities_Consistent>  (282) 
1

>  <s_lp_Variant>  (282) 
72:0-1

>  <s_i_glide_gridfile>  (282) 
pfpi4k_grid

>  <i_i_glide_lignum>  (282) 
32

>  <i_i_glide_rotatable_bonds>  (282) 
3

>  <r_i_docking_score>  (282) 
-2.05456

>  <r_i_glide_ligand_efficiency>  (282) 
-0.0760949

>  <r_i_glide_ligand_efficiency_sa>  (282) 
-0.228285

>  <r_i_glide_ligand_efficiency_ln>  (282) 
-0.478268

>  <r_i_glide_gscore>  (282) 
-2.05456

>  <r_i_glide_lipo>  (282) 
-0.122207

>  <r_i_glide_hbond>  (282) 
-0.137947

>  <r_i_glide_metal>  (282) 
-0

>  <r_i_glide_rewards>  (282) 
-0.992267

>  <r_i_glide_evdw>  (282) 
-13.5918

>  <r_i_glide_ecoul>  (282) 
-3.73615

>  <r_i_glide_erotb>  (282) 
0.456256

>  <r_i_glide_esite>  (282) 
-0.018387

>  <r_i_glide_emodel>  (282) 
-18.1199

>  <r_i_glide_energy>  (282) 
-17.3279

>  <r_i_glide_einternal>  (282) 
0.927121

>  <r_i_glide_intrahb_reward>  (282) 
-0

>  <i_i_glide_confnum>  (282) 
2

>  <i_i_glide_posenum>  (282) 
1

>  <r_i_glide_eff_state_penalty>  (282) 
0

>  <ligand_id>  (282) 
72

>  <original_smiles>  (282) 
Cc1ccc([N+]2=C3CC(C)(C2)C(c2cccnc2)N3c2ccccc2)cc1

>  <smiles>  (282) 
[H]c1nc([H])c(C2([H])N(c3c([H])c([H])c([H])c([H])c3[H])C3=[N+](c4c([H])c([H])c(C([H])([H])[H])c([H])c4[H])C([H])([H])C2(C([H])([H])[H])C3([H])[H])c([H])c1[H]

$$$$
73:0:0
     RDKit          3D

 81 86  0  0  1  0  0  0  0  0999 V2000
    1.0030   -9.5841    4.9513 C   0  0  0  0  0  0  0  0  0  0  0  0
    1.3621   -8.3217    4.4002 O   0  0  0  0  0  0  0  0  0  0  0  0
    1.1560   -8.1210    2.9903 C   0  0  2  0  0  0  0  0  0  0  0  0
    1.8512   -6.7585    2.5958 C   0  0  2  0  0  0  0  0  0  0  0  0
    3.4185   -6.7799    2.8193 C   0  0  0  0  0  0  0  0  0  0  0  0
    4.1321   -5.3950    2.9708 C   0  0  1  0  0  0  0  0  0  0  0  0
    4.6319   -4.8546    1.6153 C   0  0  0  0  0  0  0  0  0  0  0  0
    3.1749   -4.5024    3.7810 C   0  0  2  0  0  0  0  0  0  0  0  0
    1.8177   -4.4278    3.0906 C   0  0  2  0  0  0  0  0  0  0  0  0
    1.1648   -3.1558    3.6691 C   0  0  0  0  0  0  0  0  0  0  0  0
    2.3647   -2.1722    3.7478 C   0  0  1  0  0  0  0  0  0  0  0  0
    2.6868   -1.7567    2.2675 C   0  0  0  0  0  0  0  0  0  0  0  0
    2.2007   -0.8881    4.6399 C   0  0  1  0  0  0  0  0  0  0  0  0
    3.5811   -0.0684    4.7131 C   0  0  1  0  0  0  0  0  0  0  0  0
    3.6595    1.0359    5.8281 C   0  0  0  0  0  0  0  0  0  0  0  0
    2.8207    2.3419    5.6936 C   0  0  0  0  0  0  0  0  0  0  0  0
    1.4925    2.1796    4.9238 C   0  0  2  0  0  0  0  0  0  0  0  0
    0.0728    2.4138    5.3752 C   0  0  0  0  0  0  0  0  0  0  0  0
    0.6891    1.0242    5.4737 C   0  0  2  0  0  0  0  0  0  0  0  0
    0.6081    0.5078    6.9159 C   0  0  0  0  0  0  0  0  0  0  0  0
    0.9173   -0.0225    4.3530 C   0  0  1  0  0  0  0  0  0  0  0  0
    1.1565    0.8243    3.1145 C   0  0  0  0  0  0  0  0  0  0  0  0
    1.5663    2.0714    3.4779 C   0  0  0  0  0  0  0  0  0  0  0  0
    1.9200    3.2499    2.6073 C   0  0  0  0  0  0  0  0  0  0  0  0
    4.8639   -0.9791    4.8224 C   0  0  0  0  0  0  0  0  0  0  0  0
    4.8335   -2.3798    4.1372 C   0  0  0  0  0  0  0  0  0  0  0  0
    3.4768   -3.0824    4.3862 C   0  0  2  0  0  0  0  0  0  0  0  0
    3.3552   -3.2896    5.9441 C   0  0  0  0  0  0  0  0  0  0  0  0
    1.1876   -5.6837    3.2908 O   0  0  0  0  0  0  0  0  0  0  0  0
   -0.3705   -8.2905    2.6180 C   0  0  0  0  0  0  0  0  0  0  0  0
   -0.8652   -9.7652    2.5342 C   0  0  0  0  0  0  0  0  0  0  0  0
   -1.2858   -7.4223    3.5160 C   0  0  0  0  0  0  0  0  0  0  0  0
   -0.5582   -7.8251    1.2900 O   0  0  0  0  0  0  0  0  0  0  0  0
    1.2500   -9.6454    6.0055 H   0  0  0  0  0  0  0  0  0  0  0  0
    1.4983  -10.3944    4.4225 H   0  0  0  0  0  0  0  0  0  0  0  0
   -0.0469   -9.7305    4.9726 H   0  0  0  0  0  0  0  0  0  0  0  0
    1.7005   -8.9054    2.4580 H   0  0  0  0  0  0  0  0  0  0  0  0
    1.6906   -6.5928    1.5324 H   0  0  0  0  0  0  0  0  0  0  0  0
    3.6443   -7.3533    3.7154 H   0  0  0  0  0  0  0  0  0  0  0  0
    3.8941   -7.3382    2.0074 H   0  0  0  0  0  0  0  0  0  0  0  0
    5.0258   -5.5486    3.5820 H   0  0  0  0  0  0  0  0  0  0  0  0
    3.8173   -4.6976    0.9105 H   0  0  0  0  0  0  0  0  0  0  0  0
    5.3176   -5.5652    1.1506 H   0  0  0  0  0  0  0  0  0  0  0  0
    5.1858   -3.9240    1.7076 H   0  0  0  0  0  0  0  0  0  0  0  0
    2.9904   -5.1414    4.6450 H   0  0  0  0  0  0  0  0  0  0  0  0
    1.9122   -4.2847    2.0156 H   0  0  0  0  0  0  0  0  0  0  0  0
    0.3691   -2.7801    3.0275 H   0  0  0  0  0  0  0  0  0  0  0  0
    0.7265   -3.3425    4.6492 H   0  0  0  0  0  0  0  0  0  0  0  0
    3.3323   -0.8863    2.1807 H   0  0  0  0  0  0  0  0  0  0  0  0
    1.7859   -1.5319    1.7005 H   0  0  0  0  0  0  0  0  0  0  0  0
    3.1937   -2.5358    1.7088 H   0  0  0  0  0  0  0  0  0  0  0  0
    1.9995   -1.2760    5.6254 H   0  0  0  0  0  0  0  0  0  0  0  0
    3.7079    0.4686    3.7778 H   0  0  0  0  0  0  0  0  0  0  0  0
    3.4778    0.5823    6.7957 H   0  0  0  0  0  0  0  0  0  0  0  0
    4.6948    1.3621    5.9087 H   0  0  0  0  0  0  0  0  0  0  0  0
    2.6020    2.7346    6.6796 H   0  0  0  0  0  0  0  0  0  0  0  0
    3.3995    3.1100    5.1911 H   0  0  0  0  0  0  0  0  0  0  0  0
   -0.0740    3.0239    6.2536 H   0  0  0  0  0  0  0  0  0  0  0  0
   -0.6865    2.5633    4.5935 H   0  0  0  0  0  0  0  0  0  0  0  0
   -0.3097   -0.0535    7.0708 H   0  0  0  0  0  0  0  0  0  0  0  0
    0.6064    1.3415    7.6210 H   0  0  0  0  0  0  0  0  0  0  0  0
    1.4456   -0.1174    7.2132 H   0  0  0  0  0  0  0  0  0  0  0  0
    0.0223   -0.6348    4.2429 H   0  0  0  0  0  0  0  0  0  0  0  0
    1.0256    0.4860    2.1219 H   0  0  0  0  0  0  0  0  0  0  0  0
    1.2747    4.0960    2.8700 H   0  0  0  0  0  0  0  0  0  0  0  0
    1.8153    3.0420    1.5527 H   0  0  0  0  0  0  0  0  0  0  0  0
    2.9522    3.5485    2.8128 H   0  0  0  0  0  0  0  0  0  0  0  0
    5.7249   -0.4210    4.4398 H   0  0  0  0  0  0  0  0  0  0  0  0
    5.1153   -1.1352    5.8687 H   0  0  0  0  0  0  0  0  0  0  0  0
    5.0490   -2.2634    3.0769 H   0  0  0  0  0  0  0  0  0  0  0  0
    5.6489   -2.9920    4.5241 H   0  0  0  0  0  0  0  0  0  0  0  0
    3.5220   -2.4031    6.5504 H   0  0  0  0  0  0  0  0  0  0  0  0
    4.0863   -4.0124    6.3021 H   0  0  0  0  0  0  0  0  0  0  0  0
    2.3753   -3.6609    6.2371 H   0  0  0  0  0  0  0  0  0  0  0  0
   -0.9340  -10.2729    3.4660 H   0  0  0  0  0  0  0  0  0  0  0  0
   -0.1874  -10.3652    1.9241 H   0  0  0  0  0  0  0  0  0  0  0  0
   -1.8847   -9.8217    2.1521 H   0  0  0  0  0  0  0  0  0  0  0  0
   -1.1572   -7.6795    4.5690 H   0  0  0  0  0  0  0  0  0  0  0  0
   -2.3382   -7.5678    3.2744 H   0  0  0  0  0  0  0  0  0  0  0  0
   -1.0845   -6.3555    3.4353 H   0  0  0  0  0  0  0  0  0  0  0  0
   -0.3080   -8.5325    0.7076 H   0  0  0  0  0  0  0  0  0  0  0  0
  1  2  1  0
  1 34  1  0
  1 35  1  0
  1 36  1  0
  2  3  1  0
  3  4  1  0
  3 30  1  0
  3 37  1  6
  4 29  1  0
  4  5  1  0
  4 38  1  6
  5  6  1  0
  5 39  1  0
  5 40  1  0
  6  7  1  0
  6  8  1  0
  6 41  1  1
  7 42  1  0
  7 43  1  0
  7 44  1  0
  8 27  1  0
  8  9  1  0
  8 45  1  1
  9 10  1  0
  9 29  1  0
  9 46  1  6
 10 11  1  0
 10 47  1  0
 10 48  1  0
 11 27  1  0
 11 12  1  6
 11 13  1  0
 12 49  1  0
 12 50  1  0
 12 51  1  0
 13 21  1  0
 13 14  1  0
 13 52  1  1
 14 15  1  0
 14 25  1  0
 14 53  1  6
 15 16  1  0
 15 54  1  0
 15 55  1  0
 17 16  1  1
 16 56  1  0
 16 57  1  0
 17 19  1  0
 17 23  1  0
 17 18  1  0
 18 19  1  0
 18 58  1  0
 18 59  1  0
 19 20  1  1
 19 21  1  0
 20 60  1  0
 20 61  1  0
 20 62  1  0
 21 22  1  0
 21 63  1  6
 22 23  2  0
 22 64  1  0
 23 24  1  0
 24 65  1  0
 24 66  1  0
 24 67  1  0
 25 26  1  0
 25 68  1  0
 25 69  1  0
 26 27  1  0
 26 70  1  0
 26 71  1  0
 27 28  1  1
 28 72  1  0
 28 73  1  0
 28 74  1  0
 30 31  1  0
 30 32  1  0
 30 33  1  0
 31 75  1  0
 31 76  1  0
 31 77  1  0
 32 78  1  0
 32 79  1  0
 32 80  1  0
 33 81  1  0
M  END
>  <i_m_ct_stereo_status>  (283) 
1

>  <s_m_source_file>  (283) 
/var/tmp/pbs.5076255.sched01/tmpk9_hntje/1089a46f3po.sdf

>  <i_m_source_file_index>  (283) 
33

>  <i_lp_mmshare_version>  (283) 
48012

>  <i_f3d_flags>  (283) 
0

>  <s_epik_input>  (283) 
W0NIM11PW0NAQEhdKEMoW0NIM10pKFtDSDNdKVtPSF0pW0NASF0oW0NIMl1bQ0BIXTFbQ0gzXSlPW0NAQEhdKFtDSDJdMilbQ0BASF0xW0NAQF0oW0NIM10pKFtDSDJdW0NIMl1bQ0BASF0zW0NIMl1bQ0gyXTQpW0NAXTIoW0NIM10pW0NAQEhdM1tDQEBIXShbQ0BAXShbQ0BdNDU2KShbQ0gyXTUpW0NIM10pW0NIXT1DNltDSDNd

>  <s_epik_cmdline>  (283) 
J2VwaWtfcHl0aG9uJywgJy1waHQnLCAnMi4wJywgJy1waCcsICc3LjAnLCAnLXRuJywgJzgnLCAnLW1hJywgJzIwMCcsICctaW1hZScsICc8aW5maWxlLm1hZT4nLCAnLW9tYWUnLCAnPG91dGZpbGUubWFlPic=

>  <r_lp_tautomer_probability>  (283) 
1

>  <r_epik_Ionization_Penalty>  (283) 
3.34152e-08

>  <r_epik_Ionization_Penalty_Charging>  (283) 
0

>  <r_epik_Ionization_Penalty_Neutral>  (283) 
3.34152e-08

>  <r_epik_State_Penalty>  (283) 
-0

>  <r_epik_Charging_Adjusted_Penalty>  (283) 
0

>  <i_epik_Tot_Q>  (283) 
0

>  <i_epik_Tot_abs_Q>  (283) 
0

>  <s_lp_Force_Field>  (283) 
OPLS3e

>  <r_lp_Energy>  (283) 
108.477

>  <b_lp_Chiralities_Consistent>  (283) 
1

>  <s_lp_Variant>  (283) 
73:0-1

>  <s_i_glide_gridfile>  (283) 
pfpi4k_grid

>  <i_i_glide_lignum>  (283) 
33

>  <i_i_glide_rotatable_bonds>  (283) 
4

>  <r_i_docking_score>  (283) 
-2.37333

>  <r_i_glide_ligand_efficiency>  (283) 
-0.0719191

>  <r_i_glide_ligand_efficiency_sa>  (283) 
-0.230683

>  <r_i_glide_ligand_efficiency_ln>  (283) 
-0.527816

>  <r_i_glide_gscore>  (283) 
-2.37333

>  <r_i_glide_lipo>  (283) 
-0.230409

>  <r_i_glide_hbond>  (283) 
0

>  <r_i_glide_metal>  (283) 
-0

>  <r_i_glide_rewards>  (283) 
-0.295225

>  <r_i_glide_evdw>  (283) 
-19.9466

>  <r_i_glide_ecoul>  (283) 
-6.95394

>  <r_i_glide_erotb>  (283) 
0.192727

>  <r_i_glide_esite>  (283) 
0

>  <r_i_glide_emodel>  (283) 
-28.9816

>  <r_i_glide_energy>  (283) 
-26.9006

>  <r_i_glide_einternal>  (283) 
1.02935

>  <r_i_glide_intrahb_reward>  (283) 
-0

>  <i_i_glide_confnum>  (283) 
1

>  <i_i_glide_posenum>  (283) 
19

>  <r_i_glide_eff_state_penalty>  (283) 
0

>  <ligand_id>  (283) 
73

>  <original_smiles>  (283) 
COC(C1CC(C)C2C(CC3(C)C4C(CCC56CC5(C)C4C=C6C)CCC23C)O1)C(C)(C)O

>  <smiles>  (283) 
[H]OC(C([H])([H])[H])(C([H])([H])[H])C([H])(OC([H])([H])[H])C1([H])OC2([H])C([H])([H])C3(C([H])([H])[H])C4([H])C5([H])C([H])=C(C([H])([H])[H])C6(C([H])([H])C([H])([H])C4([H])C([H])([H])C([H])([H])C3(C([H])([H])[H])C2([H])C([H])(C([H])([H])[H])C1([H])[H])C([H])([H])C56C([H])([H])[H]

$$$$
73:0:1
     RDKit          3D

 81 86  0  0  1  0  0  0  0  0999 V2000
    3.3319   -9.1956    1.8047 C   0  0  0  0  0  0  0  0  0  0  0  0
    2.3944   -8.4603    2.6137 O   0  0  0  0  0  0  0  0  0  0  0  0
    1.4290   -7.6570    1.9328 C   0  0  2  0  0  0  0  0  0  0  0  0
    2.0099   -6.2419    1.5586 C   0  0  2  0  0  0  0  0  0  0  0  0
    3.5938   -6.2177    1.4644 C   0  0  0  0  0  0  0  0  0  0  0  0
    4.3316   -4.8782    1.6204 C   0  0  1  0  0  0  0  0  0  0  0  0
    4.5524   -4.1912    0.2583 C   0  0  0  0  0  0  0  0  0  0  0  0
    3.5583   -4.1117    2.7055 C   0  0  2  0  0  0  0  0  0  0  0  0
    2.0994   -3.9713    2.2979 C   0  0  2  0  0  0  0  0  0  0  0  0
    1.5855   -2.8073    3.1577 C   0  0  0  0  0  0  0  0  0  0  0  0
    2.7777   -1.8242    3.1134 C   0  0  1  0  0  0  0  0  0  0  0  0
    2.8059   -1.2389    1.6584 C   0  0  0  0  0  0  0  0  0  0  0  0
    2.8094   -0.6666    4.1629 C   0  0  1  0  0  0  0  0  0  0  0  0
    4.1780    0.1530    4.0416 C   0  0  1  0  0  0  0  0  0  0  0  0
    4.4862    1.1265    5.2388 C   0  0  0  0  0  0  0  0  0  0  0  0
    3.6731    2.4378    5.4320 C   0  0  0  0  0  0  0  0  0  0  0  0
    2.2363    2.3459    4.9453 C   0  0  2  0  0  0  0  0  0  0  0  0
    0.9408    2.5018    5.6842 C   0  0  0  0  0  0  0  0  0  0  0  0
    1.5281    1.1202    5.4954 C   0  0  2  0  0  0  0  0  0  0  0  0
    1.7232    0.4328    6.8493 C   0  0  0  0  0  0  0  0  0  0  0  0
    1.5153    0.2171    4.2307 C   0  0  1  0  0  0  0  0  0  0  0  0
    1.5258    1.2159    3.0928 C   0  0  0  0  0  0  0  0  0  0  0  0
    2.0085    2.3967    3.4893 C   0  0  0  0  0  0  0  0  0  0  0  0
    2.2126    3.6765    2.7072 C   0  0  0  0  0  0  0  0  0  0  0  0
    5.4419   -0.7439    3.8026 C   0  0  0  0  0  0  0  0  0  0  0  0
    5.2698   -2.0482    2.9780 C   0  0  0  0  0  0  0  0  0  0  0  0
    3.9848   -2.7824    3.4112 C   0  0  2  0  0  0  0  0  0  0  0  0
    4.1768   -3.1899    4.9190 C   0  0  0  0  0  0  0  0  0  0  0  0
    1.4861   -5.2348    2.4611 O   0  0  0  0  0  0  0  0  0  0  0  0
    0.1082   -7.6808    2.7957 C   0  0  0  0  0  0  0  0  0  0  0  0
   -0.3909   -9.1339    3.0009 C   0  0  0  0  0  0  0  0  0  0  0  0
    0.1860   -7.0040    4.1912 C   0  0  0  0  0  0  0  0  0  0  0  0
   -0.9376   -7.0521    2.0796 O   0  0  0  0  0  0  0  0  0  0  0  0
    3.9857   -9.7508    2.4931 H   0  0  0  0  0  0  0  0  0  0  0  0
    3.9247   -8.5300    1.2196 H   0  0  0  0  0  0  0  0  0  0  0  0
    2.8251   -9.9612    1.1946 H   0  0  0  0  0  0  0  0  0  0  0  0
    1.2116   -8.1687    0.9997 H   0  0  0  0  0  0  0  0  0  0  0  0
    1.6208   -5.9619    0.5555 H   0  0  0  0  0  0  0  0  0  0  0  0
    3.9984   -6.8824    2.2265 H   0  0  0  0  0  0  0  0  0  0  0  0
    3.9012   -6.6948    0.5301 H   0  0  0  0  0  0  0  0  0  0  0  0
    5.3289   -5.0863    2.0131 H   0  0  0  0  0  0  0  0  0  0  0  0
    3.6140   -3.9790   -0.2496 H   0  0  0  0  0  0  0  0  0  0  0  0
    5.1158   -4.8601   -0.3866 H   0  0  0  0  0  0  0  0  0  0  0  0
    5.1322   -3.2748    0.3385 H   0  0  0  0  0  0  0  0  0  0  0  0
    3.5265   -4.8474    3.5036 H   0  0  0  0  0  0  0  0  0  0  0  0
    2.0161   -3.6813    1.2466 H   0  0  0  0  0  0  0  0  0  0  0  0
    0.6668   -2.3807    2.7568 H   0  0  0  0  0  0  0  0  0  0  0  0
    1.3747   -3.1399    4.1768 H   0  0  0  0  0  0  0  0  0  0  0  0
    3.4388   -0.3678    1.5421 H   0  0  0  0  0  0  0  0  0  0  0  0
    1.8118   -0.9664    1.3205 H   0  0  0  0  0  0  0  0  0  0  0  0
    3.1827   -1.9459    0.9276 H   0  0  0  0  0  0  0  0  0  0  0  0
    2.8118   -1.1703    5.1135 H   0  0  0  0  0  0  0  0  0  0  0  0
    4.1386    0.7956    3.1608 H   0  0  0  0  0  0  0  0  0  0  0  0
    4.4839    0.5484    6.1579 H   0  0  0  0  0  0  0  0  0  0  0  0
    5.5226    1.4374    5.1465 H   0  0  0  0  0  0  0  0  0  0  0  0
    3.6506    2.7085    6.4730 H   0  0  0  0  0  0  0  0  0  0  0  0
    4.1368    3.2499    4.8907 H   0  0  0  0  0  0  0  0  0  0  0  0
    0.9834    2.9904    6.6471 H   0  0  0  0  0  0  0  0  0  0  0  0
    0.0345    2.7301    5.1068 H   0  0  0  0  0  0  0  0  0  0  0  0
    0.8437   -0.1515    7.0936 H   0  0  0  0  0  0  0  0  0  0  0  0
    1.8604    1.1848    7.6240 H   0  0  0  0  0  0  0  0  0  0  0  0
    2.5995   -0.2063    6.8991 H   0  0  0  0  0  0  0  0  0  0  0  0
    0.6067   -0.3775    4.2275 H   0  0  0  0  0  0  0  0  0  0  0  0
    1.2071    0.9986    2.1092 H   0  0  0  0  0  0  0  0  0  0  0  0
    1.6125    4.4654    3.1548 H   0  0  0  0  0  0  0  0  0  0  0  0
    1.8937    3.5406    1.6841 H   0  0  0  0  0  0  0  0  0  0  0  0
    3.2576    3.9769    2.7191 H   0  0  0  0  0  0  0  0  0  0  0  0
    6.2132   -0.1503    3.3185 H   0  0  0  0  0  0  0  0  0  0  0  0
    5.8570   -0.9966    4.7808 H   0  0  0  0  0  0  0  0  0  0  0  0
    5.2750   -1.8031    1.9228 H   0  0  0  0  0  0  0  0  0  0  0  0
    6.1336   -2.7023    3.1068 H   0  0  0  0  0  0  0  0  0  0  0  0
    4.4712   -2.3815    5.5795 H   0  0  0  0  0  0  0  0  0  0  0  0
    4.9561   -3.9439    5.0222 H   0  0  0  0  0  0  0  0  0  0  0  0
    3.2680   -3.6060    5.3440 H   0  0  0  0  0  0  0  0  0  0  0  0
    0.3112   -9.7111    3.6103 H   0  0  0  0  0  0  0  0  0  0  0  0
   -0.5251   -9.6850    2.0701 H   0  0  0  0  0  0  0  0  0  0  0  0
   -1.3484   -9.1684    3.5286 H   0  0  0  0  0  0  0  0  0  0  0  0
    1.0138   -7.4380    4.7646 H   0  0  0  0  0  0  0  0  0  0  0  0
   -0.7367   -7.1827    4.7636 H   0  0  0  0  0  0  0  0  0  0  0  0
    0.3251   -5.9264    4.1531 H   0  0  0  0  0  0  0  0  0  0  0  0
   -1.1937   -7.6228    1.3910 H   0  0  0  0  0  0  0  0  0  0  0  0
  1  2  1  0
  1 34  1  0
  1 35  1  0
  1 36  1  0
  2  3  1  0
  3  4  1  0
  3 30  1  0
  3 37  1  6
  4 29  1  0
  4  5  1  0
  4 38  1  6
  5  6  1  0
  5 39  1  0
  5 40  1  0
  6  7  1  0
  6  8  1  0
  6 41  1  1
  7 42  1  0
  7 43  1  0
  7 44  1  0
  8 27  1  0
  8  9  1  0
  8 45  1  1
  9 10  1  0
  9 29  1  0
  9 46  1  6
 10 11  1  0
 10 47  1  0
 10 48  1  0
 11 27  1  0
 11 12  1  6
 11 13  1  0
 12 49  1  0
 12 50  1  0
 12 51  1  0
 13 21  1  0
 13 14  1  0
 13 52  1  1
 14 15  1  0
 14 25  1  0
 14 53  1  6
 15 16  1  0
 15 54  1  0
 15 55  1  0
 17 16  1  1
 16 56  1  0
 16 57  1  0
 17 19  1  0
 17 23  1  0
 17 18  1  0
 18 19  1  0
 18 58  1  0
 18 59  1  0
 19 20  1  1
 19 21  1  0
 20 60  1  0
 20 61  1  0
 20 62  1  0
 21 22  1  0
 21 63  1  1
 22 23  2  0
 22 64  1  0
 23 24  1  0
 24 65  1  0
 24 66  1  0
 24 67  1  0
 25 26  1  0
 25 68  1  0
 25 69  1  0
 26 27  1  0
 26 70  1  0
 26 71  1  0
 27 28  1  1
 28 72  1  0
 28 73  1  0
 28 74  1  0
 30 31  1  0
 30 32  1  0
 30 33  1  0
 31 75  1  0
 31 76  1  0
 31 77  1  0
 32 78  1  0
 32 79  1  0
 32 80  1  0
 33 81  1  0
M  END
>  <i_m_ct_stereo_status>  (284) 
1

>  <s_m_source_file>  (284) 
/var/tmp/pbs.5076255.sched01/tmpk9_hntje/1089a46f3po.sdf

>  <i_m_source_file_index>  (284) 
33

>  <i_lp_mmshare_version>  (284) 
48012

>  <i_f3d_flags>  (284) 
0

>  <s_epik_input>  (284) 
W0NIM11PW0NAQEhdKEMoW0NIM10pKFtDSDNdKVtPSF0pW0NASF0oW0NIMl1bQ0BIXTFbQ0gzXSlPW0NAQEhdKFtDSDJdMilbQ0BASF0xW0NAQF0oW0NIM10pKFtDSDJdW0NIMl1bQ0BASF0zW0NIMl1bQ0gyXTQpW0NAXTIoW0NIM10pW0NAQEhdM1tDQEBIXShbQ0BAXShbQ0BdNDU2KShbQ0gyXTUpW0NIM10pW0NIXT1DNltDSDNd

>  <s_epik_cmdline>  (284) 
J2VwaWtfcHl0aG9uJywgJy1waHQnLCAnMi4wJywgJy1waCcsICc3LjAnLCAnLXRuJywgJzgnLCAnLW1hJywgJzIwMCcsICctaW1hZScsICc8aW5maWxlLm1hZT4nLCAnLW9tYWUnLCAnPG91dGZpbGUubWFlPic=

>  <r_lp_tautomer_probability>  (284) 
1

>  <r_epik_Ionization_Penalty>  (284) 
3.34152e-08

>  <r_epik_Ionization_Penalty_Charging>  (284) 
0

>  <r_epik_Ionization_Penalty_Neutral>  (284) 
3.34152e-08

>  <r_epik_State_Penalty>  (284) 
-0

>  <r_epik_Charging_Adjusted_Penalty>  (284) 
0

>  <i_epik_Tot_Q>  (284) 
0

>  <i_epik_Tot_abs_Q>  (284) 
0

>  <s_lp_Force_Field>  (284) 
OPLS3e

>  <r_lp_Energy>  (284) 
108.477

>  <b_lp_Chiralities_Consistent>  (284) 
1

>  <s_lp_Variant>  (284) 
73:0-1

>  <s_i_glide_gridfile>  (284) 
pfpi4k_grid

>  <i_i_glide_lignum>  (284) 
33

>  <i_i_glide_rotatable_bonds>  (284) 
4

>  <r_i_docking_score>  (284) 
-2.22659

>  <r_i_glide_ligand_efficiency>  (284) 
-0.0674725

>  <r_i_glide_ligand_efficiency_sa>  (284) 
-0.21642

>  <r_i_glide_ligand_efficiency_ln>  (284) 
-0.495182

>  <r_i_glide_gscore>  (284) 
-2.22659

>  <r_i_glide_lipo>  (284) 
-0.297212

>  <r_i_glide_hbond>  (284) 
-0.0059588

>  <r_i_glide_metal>  (284) 
-0

>  <r_i_glide_rewards>  (284) 
-0.295225

>  <r_i_glide_evdw>  (284) 
-22.9847

>  <r_i_glide_ecoul>  (284) 
-4.47791

>  <r_i_glide_erotb>  (284) 
0.192727

>  <r_i_glide_esite>  (284) 
0

>  <r_i_glide_emodel>  (284) 
-26.7294

>  <r_i_glide_energy>  (284) 
-27.4626

>  <r_i_glide_einternal>  (284) 
4.50225

>  <r_i_glide_intrahb_reward>  (284) 
-0

>  <i_i_glide_confnum>  (284) 
3

>  <i_i_glide_posenum>  (284) 
30

>  <r_i_glide_eff_state_penalty>  (284) 
0

>  <ligand_id>  (284) 
73

>  <original_smiles>  (284) 
COC(C1CC(C)C2C(CC3(C)C4C(CCC56CC5(C)C4C=C6C)CCC23C)O1)C(C)(C)O

>  <smiles>  (284) 
[H]OC(C([H])([H])[H])(C([H])([H])[H])C([H])(OC([H])([H])[H])C1([H])OC2([H])C([H])([H])C3(C([H])([H])[H])C4([H])C5([H])C([H])=C(C([H])([H])[H])C6(C([H])([H])C([H])([H])C4([H])C([H])([H])C([H])([H])C3(C([H])([H])[H])C2([H])C([H])(C([H])([H])[H])C1([H])[H])C([H])([H])C56C([H])([H])[H]

$$$$
73:0:2
     RDKit          3D

 81 86  0  0  1  0  0  0  0  0999 V2000
    2.5724  -10.6090    3.8210 C   0  0  0  0  0  0  0  0  0  0  0  0
    2.5697   -9.2285    3.4960 O   0  0  0  0  0  0  0  0  0  0  0  0
    1.6055   -8.7890    2.5281 C   0  0  2  0  0  0  0  0  0  0  0  0
    2.0626   -7.3795    2.0132 C   0  0  2  0  0  0  0  0  0  0  0  0
    3.6054   -7.2801    1.7048 C   0  0  0  0  0  0  0  0  0  0  0  0
    4.2408   -5.8512    1.6761 C   0  0  1  0  0  0  0  0  0  0  0  0
    4.2298   -5.2511    0.2523 C   0  0  0  0  0  0  0  0  0  0  0  0
    3.5351   -5.0446    2.7829 C   0  0  2  0  0  0  0  0  0  0  0  0
    2.0353   -5.0496    2.5634 C   0  0  2  0  0  0  0  0  0  0  0  0
    1.5315   -3.8526    3.3880 C   0  0  0  0  0  0  0  0  0  0  0  0
    2.6127   -2.7780    3.1175 C   0  0  1  0  0  0  0  0  0  0  0  0
    2.4279   -2.3067    1.6391 C   0  0  0  0  0  0  0  0  0  0  0  0
    2.6555   -1.5346    4.0651 C   0  0  1  0  0  0  0  0  0  0  0  0
    3.9247   -0.6171    3.7320 C   0  0  1  0  0  0  0  0  0  0  0  0
    4.2740    0.4746    4.8019 C   0  0  0  0  0  0  0  0  0  0  0  0
    3.3620    1.7213    5.0048 C   0  0  0  0  0  0  0  0  0  0  0  0
    1.9024    1.4830    4.7106 C   0  0  2  0  0  0  0  0  0  0  0  0
    0.6912    1.5905    5.5867 C   0  0  0  0  0  0  0  0  0  0  0  0
    1.3820    0.2435    5.4183 C   0  0  2  0  0  0  0  0  0  0  0  0
    1.7853   -0.3134    6.7857 C   0  0  0  0  0  0  0  0  0  0  0  0
    1.3030   -0.7547    4.2350 C   0  0  1  0  0  0  0  0  0  0  0  0
    1.0931    0.1585    3.0427 C   0  0  0  0  0  0  0  0  0  0  0  0
    1.5118    1.3925    3.2925 C   0  0  0  0  0  0  0  0  0  0  0  0
    1.5035    2.6101    2.4078 C   0  0  0  0  0  0  0  0  0  0  0  0
    5.2287   -1.4288    3.4080 C   0  0  0  0  0  0  0  0  0  0  0  0
    5.0808   -2.8068    2.7023 C   0  0  0  0  0  0  0  0  0  0  0  0
    3.9274   -3.6185    3.3220 C   0  0  2  0  0  0  0  0  0  0  0  0
    4.3150   -3.8710    4.8230 C   0  0  0  0  0  0  0  0  0  0  0  0
    1.5852   -6.3525    2.9042 O   0  0  0  0  0  0  0  0  0  0  0  0
    0.1665   -8.8380    3.1568 C   0  0  0  0  0  0  0  0  0  0  0  0
    0.1168   -8.3297    4.6171 C   0  0  0  0  0  0  0  0  0  0  0  0
   -0.9207   -8.1611    2.2983 C   0  0  0  0  0  0  0  0  0  0  0  0
   -0.2237  -10.1848    3.1885 O   0  0  0  0  0  0  0  0  0  0  0  0
    3.3793  -10.8240    4.5154 H   0  0  0  0  0  0  0  0  0  0  0  0
    2.7188  -11.2508    2.9548 H   0  0  0  0  0  0  0  0  0  0  0  0
    1.6426  -10.9195    4.3089 H   0  0  0  0  0  0  0  0  0  0  0  0
    1.6523   -9.4699    1.6715 H   0  0  0  0  0  0  0  0  0  0  0  0
    1.5438   -7.1876    1.0659 H   0  0  0  0  0  0  0  0  0  0  0  0
    4.1579   -7.8304    2.4714 H   0  0  0  0  0  0  0  0  0  0  0  0
    3.8187   -7.8111    0.7842 H   0  0  0  0  0  0  0  0  0  0  0  0
    5.2846   -5.9470    1.9546 H   0  0  0  0  0  0  0  0  0  0  0  0
    3.2320   -5.1282   -0.1557 H   0  0  0  0  0  0  0  0  0  0  0  0
    4.7835   -5.8966   -0.4261 H   0  0  0  0  0  0  0  0  0  0  0  0
    4.7312   -4.2849    0.2282 H   0  0  0  0  0  0  0  0  0  0  0  0
    3.6722   -5.7115    3.6402 H   0  0  0  0  0  0  0  0  0  0  0  0
    1.7868   -4.8806    1.5178 H   0  0  0  0  0  0  0  0  0  0  0  0
    0.5412   -3.5232    3.0715 H   0  0  0  0  0  0  0  0  0  0  0  0
    1.4633   -4.0996    4.4475 H   0  0  0  0  0  0  0  0  0  0  0  0
    2.9670   -1.4004    1.3852 H   0  0  0  0  0  0  0  0  0  0  0  0
    1.3844   -2.1108    1.4094 H   0  0  0  0  0  0  0  0  0  0  0  0
    2.7648   -3.0391    0.9143 H   0  0  0  0  0  0  0  0  0  0  0  0
    2.8114   -1.9580    5.0480 H   0  0  0  0  0  0  0  0  0  0  0  0
    3.7241   -0.0578    2.8163 H   0  0  0  0  0  0  0  0  0  0  0  0
    4.4224   -0.0298    5.7569 H   0  0  0  0  0  0  0  0  0  0  0  0
    5.2566    0.8690    4.5568 H   0  0  0  0  0  0  0  0  0  0  0  0
    3.4505    2.0829    6.0260 H   0  0  0  0  0  0  0  0  0  0  0  0
    3.6950    2.5289    4.3548 H   0  0  0  0  0  0  0  0  0  0  0  0
    0.8137    2.1524    6.5096 H   0  0  0  0  0  0  0  0  0  0  0  0
   -0.2815    1.7003    5.1187 H   0  0  0  0  0  0  0  0  0  0  0  0
    0.9917   -0.9508    7.1708 H   0  0  0  0  0  0  0  0  0  0  0  0
    1.9371    0.5044    7.4893 H   0  0  0  0  0  0  0  0  0  0  0  0
    2.7150   -0.8722    6.7789 H   0  0  0  0  0  0  0  0  0  0  0  0
    0.4496   -1.4152    4.3799 H   0  0  0  0  0  0  0  0  0  0  0  0
    0.6918   -0.1682    2.1024 H   0  0  0  0  0  0  0  0  0  0  0  0
    0.8901    3.3852    2.8686 H   0  0  0  0  0  0  0  0  0  0  0  0
    1.0758    2.3628    1.4362 H   0  0  0  0  0  0  0  0  0  0  0  0
    2.5075    3.0043    2.2591 H   0  0  0  0  0  0  0  0  0  0  0  0
    5.8771   -0.8114    2.7896 H   0  0  0  0  0  0  0  0  0  0  0  0
    5.7931   -1.5632    4.3337 H   0  0  0  0  0  0  0  0  0  0  0  0
    4.9449   -2.6406    1.6374 H   0  0  0  0  0  0  0  0  0  0  0  0
    6.0092   -3.3703    2.7752 H   0  0  0  0  0  0  0  0  0  0  0  0
    4.6081   -2.9919    5.3824 H   0  0  0  0  0  0  0  0  0  0  0  0
    5.1700   -4.5515    4.8866 H   0  0  0  0  0  0  0  0  0  0  0  0
    3.5014   -4.3245    5.3862 H   0  0  0  0  0  0  0  0  0  0  0  0
    0.3072   -7.2624    4.6929 H   0  0  0  0  0  0  0  0  0  0  0  0
    0.8561   -8.8249    5.2418 H   0  0  0  0  0  0  0  0  0  0  0  0
   -0.8557   -8.5058    5.0824 H   0  0  0  0  0  0  0  0  0  0  0  0
   -0.7409   -7.1007    2.1421 H   0  0  0  0  0  0  0  0  0  0  0  0
   -1.9034   -8.2499    2.7669 H   0  0  0  0  0  0  0  0  0  0  0  0
   -1.0021   -8.6286    1.3171 H   0  0  0  0  0  0  0  0  0  0  0  0
   -0.9024  -10.3057    3.8649 H   0  0  0  0  0  0  0  0  0  0  0  0
  1  2  1  0
  1 34  1  0
  1 35  1  0
  1 36  1  0
  2  3  1  0
  3  4  1  0
  3 30  1  0
  3 37  1  6
  4 29  1  0
  4  5  1  0
  4 38  1  6
  5  6  1  0
  5 39  1  0
  5 40  1  0
  6  7  1  0
  6  8  1  0
  6 41  1  1
  7 42  1  0
  7 43  1  0
  7 44  1  0
  8 27  1  0
  8  9  1  0
  8 45  1  1
  9 10  1  0
  9 29  1  0
  9 46  1  6
 10 11  1  0
 10 47  1  0
 10 48  1  0
 11 27  1  0
 11 12  1  6
 11 13  1  0
 12 49  1  0
 12 50  1  0
 12 51  1  0
 13 21  1  0
 13 14  1  0
 13 52  1  1
 14 15  1  0
 14 25  1  0
 14 53  1  6
 15 16  1  0
 15 54  1  0
 15 55  1  0
 17 16  1  6
 16 56  1  0
 16 57  1  0
 17 19  1  0
 17 23  1  0
 17 18  1  0
 18 19  1  0
 18 58  1  0
 18 59  1  0
 19 20  1  1
 19 21  1  0
 20 60  1  0
 20 61  1  0
 20 62  1  0
 21 22  1  0
 21 63  1  1
 22 23  2  0
 22 64  1  0
 23 24  1  0
 24 65  1  0
 24 66  1  0
 24 67  1  0
 25 26  1  0
 25 68  1  0
 25 69  1  0
 26 27  1  0
 26 70  1  0
 26 71  1  0
 27 28  1  1
 28 72  1  0
 28 73  1  0
 28 74  1  0
 30 31  1  0
 30 32  1  0
 30 33  1  0
 31 75  1  0
 31 76  1  0
 31 77  1  0
 32 78  1  0
 32 79  1  0
 32 80  1  0
 33 81  1  0
M  END
>  <i_m_ct_stereo_status>  (285) 
1

>  <s_m_source_file>  (285) 
/var/tmp/pbs.5076255.sched01/tmpk9_hntje/1089a46f3po.sdf

>  <i_m_source_file_index>  (285) 
33

>  <i_lp_mmshare_version>  (285) 
48012

>  <i_f3d_flags>  (285) 
0

>  <s_epik_input>  (285) 
W0NIM11PW0NAQEhdKEMoW0NIM10pKFtDSDNdKVtPSF0pW0NASF0oW0NIMl1bQ0BIXTFbQ0gzXSlPW0NAQEhdKFtDSDJdMilbQ0BASF0xW0NAQF0oW0NIM10pKFtDSDJdW0NIMl1bQ0BASF0zW0NIMl1bQ0gyXTQpW0NAXTIoW0NIM10pW0NAQEhdM1tDQEBIXShbQ0BAXShbQ0BdNDU2KShbQ0gyXTUpW0NIM10pW0NIXT1DNltDSDNd

>  <s_epik_cmdline>  (285) 
J2VwaWtfcHl0aG9uJywgJy1waHQnLCAnMi4wJywgJy1waCcsICc3LjAnLCAnLXRuJywgJzgnLCAnLW1hJywgJzIwMCcsICctaW1hZScsICc8aW5maWxlLm1hZT4nLCAnLW9tYWUnLCAnPG91dGZpbGUubWFlPic=

>  <r_lp_tautomer_probability>  (285) 
1

>  <r_epik_Ionization_Penalty>  (285) 
3.34152e-08

>  <r_epik_Ionization_Penalty_Charging>  (285) 
0

>  <r_epik_Ionization_Penalty_Neutral>  (285) 
3.34152e-08

>  <r_epik_State_Penalty>  (285) 
-0

>  <r_epik_Charging_Adjusted_Penalty>  (285) 
0

>  <i_epik_Tot_Q>  (285) 
0

>  <i_epik_Tot_abs_Q>  (285) 
0

>  <s_lp_Force_Field>  (285) 
OPLS3e

>  <r_lp_Energy>  (285) 
108.477

>  <b_lp_Chiralities_Consistent>  (285) 
1

>  <s_lp_Variant>  (285) 
73:0-1

>  <s_i_glide_gridfile>  (285) 
pfpi4k_grid

>  <i_i_glide_lignum>  (285) 
33

>  <i_i_glide_rotatable_bonds>  (285) 
4

>  <r_i_docking_score>  (285) 
-1.92752

>  <r_i_glide_ligand_efficiency>  (285) 
-0.0584098

>  <r_i_glide_ligand_efficiency_sa>  (285) 
-0.187351

>  <r_i_glide_ligand_efficiency_ln>  (285) 
-0.428671

>  <r_i_glide_gscore>  (285) 
-1.92752

>  <r_i_glide_lipo>  (285) 
-0.27479

>  <r_i_glide_hbond>  (285) 
0

>  <r_i_glide_metal>  (285) 
-0

>  <r_i_glide_rewards>  (285) 
-0.295225

>  <r_i_glide_evdw>  (285) 
-22.723

>  <r_i_glide_ecoul>  (285) 
-2.76055

>  <r_i_glide_erotb>  (285) 
0.192727

>  <r_i_glide_esite>  (285) 
0

>  <r_i_glide_emodel>  (285) 
-25.7048

>  <r_i_glide_energy>  (285) 
-25.4836

>  <r_i_glide_einternal>  (285) 
4.15066

>  <r_i_glide_intrahb_reward>  (285) 
-0

>  <i_i_glide_confnum>  (285) 
6

>  <i_i_glide_posenum>  (285) 
32

>  <r_i_glide_eff_state_penalty>  (285) 
0

>  <ligand_id>  (285) 
73

>  <original_smiles>  (285) 
COC(C1CC(C)C2C(CC3(C)C4C(CCC56CC5(C)C4C=C6C)CCC23C)O1)C(C)(C)O

>  <smiles>  (285) 
[H]OC(C([H])([H])[H])(C([H])([H])[H])C([H])(OC([H])([H])[H])C1([H])OC2([H])C([H])([H])C3(C([H])([H])[H])C4([H])C5([H])C([H])=C(C([H])([H])[H])C6(C([H])([H])C([H])([H])C4([H])C([H])([H])C([H])([H])C3(C([H])([H])[H])C2([H])C([H])(C([H])([H])[H])C1([H])[H])C([H])([H])C56C([H])([H])[H]

$$$$
75:0:0
     RDKit          3D

 11 12  0  0  1  0  0  0  0  0999 V2000
   -0.8903   -9.3873    2.8758 C   0  0  0  0  0  0  0  0  0  0  0  0
    0.2206  -10.1551    2.9047 N   0  0  0  0  0  0  0  0  0  0  0  0
    1.3823   -9.5950    2.5023 C   0  0  0  0  0  0  0  0  0  0  0  0
    1.3686   -8.2741    2.0809 N   0  0  0  0  0  0  0  0  0  0  0  0
    2.4009   -7.5175    1.6515 N   0  0  0  0  0  0  0  0  0  0  0  0
    1.8463   -6.3728    1.3767 N   0  0  0  0  0  0  0  0  0  0  0  0
    0.4721   -6.3466    1.6314 N   0  0  0  0  0  0  0  0  0  0  0  0
    0.1712   -7.5628    2.0806 C   0  0  0  0  0  0  0  0  0  0  0  0
   -1.0120   -8.0979    2.4841 N   0  0  0  0  0  0  0  0  0  0  0  0
   -1.8054   -9.8564    3.2060 H   0  0  0  0  0  0  0  0  0  0  0  0
    2.3029  -10.1573    2.5056 H   0  0  0  0  0  0  0  0  0  0  0  0
  1  9  2  0
  1  2  1  0
  1 10  1  0
  2  3  2  0
  3  4  1  0
  3 11  1  0
  4  8  1  0
  4  5  1  0
  5  6  2  0
  6  7  1  0
  7  8  2  0
  8  9  1  0
M  END
>  <i_m_ct_stereo_status>  (286) 
1

>  <s_m_source_file>  (286) 
/var/tmp/pbs.5076255.sched01/tmpk9_hntje/1089a46f3po.sdf

>  <i_m_source_file_index>  (286) 
35

>  <i_lp_mmshare_version>  (286) 
48012

>  <i_f3d_flags>  (286) 
0

>  <s_epik_input>  (286) 
W2NIXTFuW2NIXW5jKG4xMilubm4y

>  <s_epik_cmdline>  (286) 
J2VwaWtfcHl0aG9uJywgJy1waHQnLCAnMi4wJywgJy1waCcsICc3LjAnLCAnLXRuJywgJzgnLCAnLW1hJywgJzIwMCcsICctaW1hZScsICc8aW5maWxlLm1hZT4nLCAnLW9tYWUnLCAnPG91dGZpbGUubWFlPic=

>  <r_lp_tautomer_probability>  (286) 
1

>  <r_epik_Ionization_Penalty>  (286) 
3.7745e-11

>  <r_epik_Ionization_Penalty_Charging>  (286) 
0

>  <r_epik_Ionization_Penalty_Neutral>  (286) 
3.7745e-11

>  <r_epik_State_Penalty>  (286) 
-0

>  <r_epik_Charging_Adjusted_Penalty>  (286) 
0

>  <i_epik_Tot_Q>  (286) 
0

>  <i_epik_Tot_abs_Q>  (286) 
0

>  <s_lp_Force_Field>  (286) 
OPLS3e

>  <r_lp_Energy>  (286) 
14.5077

>  <b_lp_Chiralities_Consistent>  (286) 
1

>  <s_lp_Variant>  (286) 
75:0-1

>  <s_i_glide_gridfile>  (286) 
pfpi4k_grid

>  <i_i_glide_lignum>  (286) 
35

>  <i_i_glide_rotatable_bonds>  (286) 
0

>  <r_i_docking_score>  (286) 
-3.92268

>  <r_i_glide_ligand_efficiency>  (286) 
-0.435854

>  <r_i_glide_ligand_efficiency_sa>  (286) 
-0.906612

>  <r_i_glide_ligand_efficiency_ln>  (286) 
-1.2269

>  <r_i_glide_gscore>  (286) 
-3.92268

>  <r_i_glide_lipo>  (286) 
0

>  <r_i_glide_hbond>  (286) 
0

>  <r_i_glide_metal>  (286) 
-0

>  <r_i_glide_rewards>  (286) 
-2.3759

>  <r_i_glide_evdw>  (286) 
-14.7555

>  <r_i_glide_ecoul>  (286) 
-3.74231

>  <r_i_glide_erotb>  (286) 
0

>  <r_i_glide_esite>  (286) 
-0.247664

>  <r_i_glide_emodel>  (286) 
-24.198

>  <r_i_glide_energy>  (286) 
-18.4979

>  <r_i_glide_einternal>  (286) 
0

>  <r_i_glide_intrahb_reward>  (286) 
-0

>  <i_i_glide_confnum>  (286) 
1

>  <i_i_glide_posenum>  (286) 
15

>  <r_i_glide_eff_state_penalty>  (286) 
0

>  <ligand_id>  (286) 
75

>  <original_smiles>  (286) 
c1ncn2nnnc2n1

>  <smiles>  (286) 
[H]c1nc([H])n2nnnc2n1

$$$$
75:0:1
     RDKit          3D

 11 12  0  0  1  0  0  0  0  0999 V2000
    2.3064   -9.6183    2.1270 C   0  0  0  0  0  0  0  0  0  0  0  0
    1.6602  -10.5355    2.8812 N   0  0  0  0  0  0  0  0  0  0  0  0
    0.4018  -10.2483    3.2789 C   0  0  0  0  0  0  0  0  0  0  0  0
   -0.1494   -9.0359    2.8999 N   0  0  0  0  0  0  0  0  0  0  0  0
   -1.3723   -8.5507    3.1915 N   0  0  0  0  0  0  0  0  0  0  0  0
   -1.3780   -7.3881    2.6120 N   0  0  0  0  0  0  0  0  0  0  0  0
   -0.1873   -7.0834    1.9460 N   0  0  0  0  0  0  0  0  0  0  0  0
    0.5968   -8.1438    2.1299 C   0  0  0  0  0  0  0  0  0  0  0  0
    1.8651   -8.4068    1.7132 N   0  0  0  0  0  0  0  0  0  0  0  0
    3.3044   -9.8924    1.8153 H   0  0  0  0  0  0  0  0  0  0  0  0
   -0.1699  -10.9388    3.8848 H   0  0  0  0  0  0  0  0  0  0  0  0
  1  9  2  0
  1  2  1  0
  1 10  1  0
  2  3  2  0
  3  4  1  0
  3 11  1  0
  4  8  1  0
  4  5  1  0
  5  6  2  0
  6  7  1  0
  7  8  2  0
  8  9  1  0
M  END
>  <i_m_ct_stereo_status>  (287) 
1

>  <s_m_source_file>  (287) 
/var/tmp/pbs.5076255.sched01/tmpk9_hntje/1089a46f3po.sdf

>  <i_m_source_file_index>  (287) 
35

>  <i_lp_mmshare_version>  (287) 
48012

>  <i_f3d_flags>  (287) 
0

>  <s_epik_input>  (287) 
W2NIXTFuW2NIXW5jKG4xMilubm4y

>  <s_epik_cmdline>  (287) 
J2VwaWtfcHl0aG9uJywgJy1waHQnLCAnMi4wJywgJy1waCcsICc3LjAnLCAnLXRuJywgJzgnLCAnLW1hJywgJzIwMCcsICctaW1hZScsICc8aW5maWxlLm1hZT4nLCAnLW9tYWUnLCAnPG91dGZpbGUubWFlPic=

>  <r_lp_tautomer_probability>  (287) 
1

>  <r_epik_Ionization_Penalty>  (287) 
3.7745e-11

>  <r_epik_Ionization_Penalty_Charging>  (287) 
0

>  <r_epik_Ionization_Penalty_Neutral>  (287) 
3.7745e-11

>  <r_epik_State_Penalty>  (287) 
-0

>  <r_epik_Charging_Adjusted_Penalty>  (287) 
0

>  <i_epik_Tot_Q>  (287) 
0

>  <i_epik_Tot_abs_Q>  (287) 
0

>  <s_lp_Force_Field>  (287) 
OPLS3e

>  <r_lp_Energy>  (287) 
14.5077

>  <b_lp_Chiralities_Consistent>  (287) 
1

>  <s_lp_Variant>  (287) 
75:0-1

>  <s_i_glide_gridfile>  (287) 
pfpi4k_grid

>  <i_i_glide_lignum>  (287) 
35

>  <i_i_glide_rotatable_bonds>  (287) 
0

>  <r_i_docking_score>  (287) 
-3.92022

>  <r_i_glide_ligand_efficiency>  (287) 
-0.43558

>  <r_i_glide_ligand_efficiency_sa>  (287) 
-0.906044

>  <r_i_glide_ligand_efficiency_ln>  (287) 
-1.22613

>  <r_i_glide_gscore>  (287) 
-3.92022

>  <r_i_glide_lipo>  (287) 
0

>  <r_i_glide_hbond>  (287) 
0

>  <r_i_glide_metal>  (287) 
-0

>  <r_i_glide_rewards>  (287) 
-2.29997

>  <r_i_glide_evdw>  (287) 
-16.0431

>  <r_i_glide_ecoul>  (287) 
-3.26067

>  <r_i_glide_erotb>  (287) 
0

>  <r_i_glide_esite>  (287) 
-0.329002

>  <r_i_glide_emodel>  (287) 
-25

>  <r_i_glide_energy>  (287) 
-19.3037

>  <r_i_glide_einternal>  (287) 
0

>  <r_i_glide_intrahb_reward>  (287) 
-0

>  <i_i_glide_confnum>  (287) 
1

>  <i_i_glide_posenum>  (287) 
39

>  <r_i_glide_eff_state_penalty>  (287) 
0

>  <ligand_id>  (287) 
75

>  <original_smiles>  (287) 
c1ncn2nnnc2n1

>  <smiles>  (287) 
[H]c1nc([H])n2nnnc2n1

$$$$
75:0:2
     RDKit          3D

 11 12  0  0  1  0  0  0  0  0999 V2000
    2.4971  -10.1288    2.4800 C   0  0  0  0  0  0  0  0  0  0  0  0
    1.4343  -10.6239    3.1519 N   0  0  0  0  0  0  0  0  0  0  0  0
    0.3015   -9.8855    3.1653 C   0  0  0  0  0  0  0  0  0  0  0  0
    0.2942   -8.6679    2.5015 N   0  0  0  0  0  0  0  0  0  0  0  0
   -0.7139   -7.7736    2.3942 N   0  0  0  0  0  0  0  0  0  0  0  0
   -0.1955   -6.8204    1.6754 N   0  0  0  0  0  0  0  0  0  0  0  0
    1.1278   -7.0554    1.3077 N   0  0  0  0  0  0  0  0  0  0  0  0
    1.4406   -8.2370    1.8367 C   0  0  0  0  0  0  0  0  0  0  0  0
    2.5913   -8.9619    1.8010 N   0  0  0  0  0  0  0  0  0  0  0  0
    3.3888  -10.7412    2.4707 H   0  0  0  0  0  0  0  0  0  0  0  0
   -0.5815  -10.2309    3.6814 H   0  0  0  0  0  0  0  0  0  0  0  0
  1  9  2  0
  1  2  1  0
  1 10  1  0
  2  3  2  0
  3  4  1  0
  3 11  1  0
  4  8  1  0
  4  5  1  0
  5  6  2  0
  6  7  1  0
  7  8  2  0
  8  9  1  0
M  END
>  <i_m_ct_stereo_status>  (288) 
1

>  <s_m_source_file>  (288) 
/var/tmp/pbs.5076255.sched01/tmpk9_hntje/1089a46f3po.sdf

>  <i_m_source_file_index>  (288) 
35

>  <i_lp_mmshare_version>  (288) 
48012

>  <i_f3d_flags>  (288) 
0

>  <s_epik_input>  (288) 
W2NIXTFuW2NIXW5jKG4xMilubm4y

>  <s_epik_cmdline>  (288) 
J2VwaWtfcHl0aG9uJywgJy1waHQnLCAnMi4wJywgJy1waCcsICc3LjAnLCAnLXRuJywgJzgnLCAnLW1hJywgJzIwMCcsICctaW1hZScsICc8aW5maWxlLm1hZT4nLCAnLW9tYWUnLCAnPG91dGZpbGUubWFlPic=

>  <r_lp_tautomer_probability>  (288) 
1

>  <r_epik_Ionization_Penalty>  (288) 
3.7745e-11

>  <r_epik_Ionization_Penalty_Charging>  (288) 
0

>  <r_epik_Ionization_Penalty_Neutral>  (288) 
3.7745e-11

>  <r_epik_State_Penalty>  (288) 
-0

>  <r_epik_Charging_Adjusted_Penalty>  (288) 
0

>  <i_epik_Tot_Q>  (288) 
0

>  <i_epik_Tot_abs_Q>  (288) 
0

>  <s_lp_Force_Field>  (288) 
OPLS3e

>  <r_lp_Energy>  (288) 
14.5077

>  <b_lp_Chiralities_Consistent>  (288) 
1

>  <s_lp_Variant>  (288) 
75:0-1

>  <s_i_glide_gridfile>  (288) 
pfpi4k_grid

>  <i_i_glide_lignum>  (288) 
35

>  <i_i_glide_rotatable_bonds>  (288) 
0

>  <r_i_docking_score>  (288) 
-3.87422

>  <r_i_glide_ligand_efficiency>  (288) 
-0.430469

>  <r_i_glide_ligand_efficiency_sa>  (288) 
-0.895411

>  <r_i_glide_ligand_efficiency_ln>  (288) 
-1.21174

>  <r_i_glide_gscore>  (288) 
-3.87422

>  <r_i_glide_lipo>  (288) 
0

>  <r_i_glide_hbond>  (288) 
0

>  <r_i_glide_metal>  (288) 
-0

>  <r_i_glide_rewards>  (288) 
-2.25

>  <r_i_glide_evdw>  (288) 
-15.394

>  <r_i_glide_ecoul>  (288) 
-3.53929

>  <r_i_glide_erotb>  (288) 
0

>  <r_i_glide_esite>  (288) 
-0.323627

>  <r_i_glide_emodel>  (288) 
-24.5634

>  <r_i_glide_energy>  (288) 
-18.9333

>  <r_i_glide_einternal>  (288) 
0

>  <r_i_glide_intrahb_reward>  (288) 
-0

>  <i_i_glide_confnum>  (288) 
2

>  <i_i_glide_posenum>  (288) 
18

>  <r_i_glide_eff_state_penalty>  (288) 
0

>  <ligand_id>  (288) 
75

>  <original_smiles>  (288) 
c1ncn2nnnc2n1

>  <smiles>  (288) 
[H]c1nc([H])n2nnnc2n1

$$$$
76:0:0
     RDKit          3D

 37 39  0  0  1  0  0  0  0  0999 V2000
    3.4062   -1.7869    4.8460 C   0  0  0  0  0  0  0  0  0  0  0  0
    3.3374   -2.4026    3.4636 C   0  0  0  0  0  0  0  0  0  0  0  0
    4.1275   -1.9975    2.4455 C   0  0  0  0  0  0  0  0  0  0  0  0
    4.0078   -2.6293    1.1567 C   0  0  0  0  0  0  0  0  0  0  0  0
    3.0307   -3.6551    1.0288 C   0  0  0  0  0  0  0  0  0  0  0  0
    2.2322   -4.0829    2.0574 O   0  0  0  0  0  0  0  0  0  0  0  0
    2.3271   -3.4985    3.2973 C   0  0  0  0  0  0  0  0  0  0  0  0
    1.6068   -3.8653    4.2243 O   0  0  0  0  0  0  0  0  0  0  0  0
    3.0006   -4.0981   -0.2273 C   0  0  0  0  0  0  0  0  0  0  0  0
    4.0371   -3.4005   -1.0851 C   0  0  2  0  0  0  0  0  0  0  0  0
    5.0944   -4.4069   -1.5147 C   0  0  0  0  0  0  0  0  0  0  0  0
    4.6085   -2.4484   -0.0419 C   0  0  0  0  0  0  0  0  0  0  0  0
    5.6095   -1.4125   -0.5456 C   0  0  1  0  0  0  0  0  0  0  0  0
    6.0590   -0.4122    0.5067 C   0  0  0  0  0  0  0  0  0  0  0  0
    6.8070   -2.0225   -0.9812 O   0  0  0  0  0  0  0  0  0  0  0  0
    5.0062   -0.6959   -1.7719 C   0  0  0  0  0  0  0  0  0  0  0  0
    4.4099   -1.6120   -2.8500 C   0  0  0  0  0  0  0  0  0  0  0  0
    3.4124   -2.6024   -2.2499 C   0  0  1  0  0  0  0  0  0  0  0  0
    2.9678   -3.4492   -3.2845 O   0  0  0  0  0  0  0  0  0  0  0  0
    4.1626   -1.0046    4.8967 H   0  0  0  0  0  0  0  0  0  0  0  0
    3.6558   -2.5434    5.5912 H   0  0  0  0  0  0  0  0  0  0  0  0
    2.4471   -1.3467    5.1225 H   0  0  0  0  0  0  0  0  0  0  0  0
    4.8289   -1.2018    2.6152 H   0  0  0  0  0  0  0  0  0  0  0  0
    2.3616   -4.8774   -0.6131 H   0  0  0  0  0  0  0  0  0  0  0  0
    5.5949   -4.8623   -0.6597 H   0  0  0  0  0  0  0  0  0  0  0  0
    5.8343   -4.0070   -2.2067 H   0  0  0  0  0  0  0  0  0  0  0  0
    4.6284   -5.2159   -2.0441 H   0  0  0  0  0  0  0  0  0  0  0  0
    5.2249    0.1717    0.8934 H   0  0  0  0  0  0  0  0  0  0  0  0
    6.7570    0.3024    0.0774 H   0  0  0  0  0  0  0  0  0  0  0  0
    6.5943   -0.8968    1.3226 H   0  0  0  0  0  0  0  0  0  0  0  0
    6.5808   -2.8068   -1.4603 H   0  0  0  0  0  0  0  0  0  0  0  0
    4.2195   -0.0457   -1.4113 H   0  0  0  0  0  0  0  0  0  0  0  0
    5.7262   -0.0377   -2.2444 H   0  0  0  0  0  0  0  0  0  0  0  0
    3.9115   -1.0014   -3.6019 H   0  0  0  0  0  0  0  0  0  0  0  0
    5.2092   -2.1426   -3.3670 H   0  0  0  0  0  0  0  0  0  0  0  0
    2.5683   -2.0356   -1.8609 H   0  0  0  0  0  0  0  0  0  0  0  0
    2.7869   -4.3230   -2.9307 H   0  0  0  0  0  0  0  0  0  0  0  0
  1  2  1  0
  1 20  1  0
  1 21  1  0
  1 22  1  0
  2  7  1  0
  2  3  2  0
  3  4  1  0
  3 23  1  0
  4 12  2  0
  4  5  1  0
  5  6  1  0
  5  9  2  0
  6  7  1  0
  7  8  2  0
  9 10  1  0
  9 24  1  0
 10 18  1  0
 10 11  1  6
 10 12  1  0
 11 25  1  0
 11 26  1  0
 11 27  1  0
 12 13  1  0
 13 14  1  0
 13 15  1  6
 13 16  1  0
 14 28  1  0
 14 29  1  0
 14 30  1  0
 15 31  1  0
 16 17  1  0
 16 32  1  0
 16 33  1  0
 17 18  1  0
 17 34  1  0
 17 35  1  0
 18 19  1  0
 18 36  1  1
 19 37  1  0
M  END
>  <i_m_ct_stereo_status>  (289) 
1

>  <s_m_source_file>  (289) 
/var/tmp/pbs.5076255.sched01/tmpk9_hntje/1089a46f3po.sdf

>  <i_m_source_file_index>  (289) 
36

>  <i_lp_mmshare_version>  (289) 
48012

>  <i_f3d_flags>  (289) 
0

>  <s_epik_input>  (289) 
W0NIM11jKFtjSF0xKWMoPU8pb2MoPVtDSF0yKWMxPUMoW0NAQF0yM1tDSDNdKVtDQEBdKFtDSDNdKShbT0hdKVtDSDJdW0NIMl1bQ0BIXTNbT0hd

>  <s_epik_cmdline>  (289) 
J2VwaWtfcHl0aG9uJywgJy1waHQnLCAnMi4wJywgJy1waCcsICc3LjAnLCAnLXRuJywgJzgnLCAnLW1hJywgJzIwMCcsICctaW1hZScsICc8aW5maWxlLm1hZT4nLCAnLW9tYWUnLCAnPG91dGZpbGUubWFlPic=

>  <r_lp_tautomer_probability>  (289) 
1

>  <r_epik_Ionization_Penalty>  (289) 
5.82103e-05

>  <r_epik_Ionization_Penalty_Charging>  (289) 
0

>  <r_epik_Ionization_Penalty_Neutral>  (289) 
5.82103e-05

>  <r_epik_State_Penalty>  (289) 
-0

>  <r_epik_Charging_Adjusted_Penalty>  (289) 
0

>  <i_epik_Tot_Q>  (289) 
0

>  <i_epik_Tot_abs_Q>  (289) 
0

>  <s_lp_Force_Field>  (289) 
OPLS3e

>  <r_lp_Energy>  (289) 
14.037

>  <b_lp_Chiralities_Consistent>  (289) 
1

>  <s_lp_Variant>  (289) 
76:0-1

>  <s_i_glide_gridfile>  (289) 
pfpi4k_grid

>  <i_i_glide_lignum>  (289) 
36

>  <i_i_glide_rotatable_bonds>  (289) 
2

>  <r_i_docking_score>  (289) 
-4.03487

>  <r_i_glide_ligand_efficiency>  (289) 
-0.212362

>  <r_i_glide_ligand_efficiency_sa>  (289) 
-0.566666

>  <r_i_glide_ligand_efficiency_ln>  (289) 
-1.02293

>  <r_i_glide_gscore>  (289) 
-4.03487

>  <r_i_glide_lipo>  (289) 
-0.126429

>  <r_i_glide_hbond>  (289) 
-0.48

>  <r_i_glide_metal>  (289) 
-0

>  <r_i_glide_rewards>  (289) 
-1.62067

>  <r_i_glide_evdw>  (289) 
-12.6787

>  <r_i_glide_ecoul>  (289) 
-7.82556

>  <r_i_glide_erotb>  (289) 
0

>  <r_i_glide_esite>  (289) 
0

>  <r_i_glide_emodel>  (289) 
-26.0506

>  <r_i_glide_energy>  (289) 
-20.5043

>  <r_i_glide_einternal>  (289) 
1.47012

>  <r_i_glide_intrahb_reward>  (289) 
-0

>  <i_i_glide_confnum>  (289) 
1

>  <i_i_glide_posenum>  (289) 
12

>  <r_i_glide_eff_state_penalty>  (289) 
0

>  <ligand_id>  (289) 
76

>  <original_smiles>  (289) 
Cc1cc2c(oc1=O)=CC1(C)C=2C(C)(O)CCC1O

>  <smiles>  (289) 
[H]OC1([H])C([H])([H])C([H])([H])C(O[H])(C([H])([H])[H])C2=c3c([H])c(C([H])([H])[H])c(=O)oc3=C([H])C21C([H])([H])[H]

$$$$
76:0:1
     RDKit          3D

 37 39  0  0  1  0  0  0  0  0999 V2000
    3.4627   -0.8933   -3.5610 C   0  0  0  0  0  0  0  0  0  0  0  0
    3.7549   -1.9348   -2.4949 C   0  0  0  0  0  0  0  0  0  0  0  0
    3.4873   -1.7388   -1.1841 C   0  0  0  0  0  0  0  0  0  0  0  0
    3.7675   -2.7772   -0.2211 C   0  0  0  0  0  0  0  0  0  0  0  0
    4.3760   -3.9604   -0.7185 C   0  0  0  0  0  0  0  0  0  0  0  0
    4.6803   -4.1570   -2.0392 O   0  0  0  0  0  0  0  0  0  0  0  0
    4.3584   -3.2142   -2.9867 C   0  0  0  0  0  0  0  0  0  0  0  0
    4.5692   -3.4409   -4.1777 O   0  0  0  0  0  0  0  0  0  0  0  0
    4.6193   -4.8113    0.2761 C   0  0  0  0  0  0  0  0  0  0  0  0
    4.1494   -4.2463    1.6043 C   0  0  2  0  0  0  0  0  0  0  0  0
    3.0301   -5.1512    2.1670 C   0  0  0  0  0  0  0  0  0  0  0  0
    3.6288   -2.8826    1.1215 C   0  0  0  0  0  0  0  0  0  0  0  0
    3.2137   -1.8689    2.1997 C   0  0  1  0  0  0  0  0  0  0  0  0
    2.8078   -0.4803    1.6861 C   0  0  0  0  0  0  0  0  0  0  0  0
    2.0852   -2.3429    2.9037 O   0  0  0  0  0  0  0  0  0  0  0  0
    4.3686   -1.7366    3.2246 C   0  0  0  0  0  0  0  0  0  0  0  0
    4.9240   -3.0798    3.7431 C   0  0  0  0  0  0  0  0  0  0  0  0
    5.3213   -4.0154    2.5887 C   0  0  1  0  0  0  0  0  0  0  0  0
    5.8031   -5.2414    3.0997 O   0  0  0  0  0  0  0  0  0  0  0  0
    3.0142    0.0019   -3.1305 H   0  0  0  0  0  0  0  0  0  0  0  0
    2.7681   -1.2834   -4.3073 H   0  0  0  0  0  0  0  0  0  0  0  0
    4.3776   -0.5952   -4.0746 H   0  0  0  0  0  0  0  0  0  0  0  0
    3.0377   -0.8108   -0.8831 H   0  0  0  0  0  0  0  0  0  0  0  0
    5.0702   -5.7847    0.1806 H   0  0  0  0  0  0  0  0  0  0  0  0
    2.1761   -5.1643    1.4919 H   0  0  0  0  0  0  0  0  0  0  0  0
    2.6765   -4.8240    3.1440 H   0  0  0  0  0  0  0  0  0  0  0  0
    3.3727   -6.1804    2.2777 H   0  0  0  0  0  0  0  0  0  0  0  0
    3.6209    0.0052    1.1445 H   0  0  0  0  0  0  0  0  0  0  0  0
    2.5341    0.1753    2.5145 H   0  0  0  0  0  0  0  0  0  0  0  0
    1.9358   -0.5335    1.0352 H   0  0  0  0  0  0  0  0  0  0  0  0
    1.3337   -2.2672    2.3349 H   0  0  0  0  0  0  0  0  0  0  0  0
    5.1883   -1.1883    2.7580 H   0  0  0  0  0  0  0  0  0  0  0  0
    4.0520   -1.1282    4.0725 H   0  0  0  0  0  0  0  0  0  0  0  0
    5.7935   -2.8870    4.3708 H   0  0  0  0  0  0  0  0  0  0  0  0
    4.1916   -3.5643    4.3879 H   0  0  0  0  0  0  0  0  0  0  0  0
    6.1449   -3.5490    2.0453 H   0  0  0  0  0  0  0  0  0  0  0  0
    6.5541   -5.0745    3.6505 H   0  0  0  0  0  0  0  0  0  0  0  0
  1  2  1  0
  1 20  1  0
  1 21  1  0
  1 22  1  0
  2  7  1  0
  2  3  2  0
  3  4  1  0
  3 23  1  0
  4 12  2  0
  4  5  1  0
  5  6  1  0
  5  9  2  0
  6  7  1  0
  7  8  2  0
  9 10  1  0
  9 24  1  0
 10 18  1  0
 10 11  1  1
 10 12  1  0
 11 25  1  0
 11 26  1  0
 11 27  1  0
 12 13  1  0
 13 14  1  0
 13 15  1  1
 13 16  1  0
 14 28  1  0
 14 29  1  0
 14 30  1  0
 15 31  1  0
 16 17  1  0
 16 32  1  0
 16 33  1  0
 17 18  1  0
 17 34  1  0
 17 35  1  0
 18 19  1  0
 18 36  1  6
 19 37  1  0
M  END
>  <i_m_ct_stereo_status>  (290) 
1

>  <s_m_source_file>  (290) 
/var/tmp/pbs.5076255.sched01/tmpk9_hntje/1089a46f3po.sdf

>  <i_m_source_file_index>  (290) 
36

>  <i_lp_mmshare_version>  (290) 
48012

>  <i_f3d_flags>  (290) 
0

>  <s_epik_input>  (290) 
W0NIM11jKFtjSF0xKWMoPU8pb2MoPVtDSF0yKWMxPUMoW0NAQF0yM1tDSDNdKVtDQEBdKFtDSDNdKShbT0hdKVtDSDJdW0NIMl1bQ0BIXTNbT0hd

>  <s_epik_cmdline>  (290) 
J2VwaWtfcHl0aG9uJywgJy1waHQnLCAnMi4wJywgJy1waCcsICc3LjAnLCAnLXRuJywgJzgnLCAnLW1hJywgJzIwMCcsICctaW1hZScsICc8aW5maWxlLm1hZT4nLCAnLW9tYWUnLCAnPG91dGZpbGUubWFlPic=

>  <r_lp_tautomer_probability>  (290) 
1

>  <r_epik_Ionization_Penalty>  (290) 
5.82103e-05

>  <r_epik_Ionization_Penalty_Charging>  (290) 
0

>  <r_epik_Ionization_Penalty_Neutral>  (290) 
5.82103e-05

>  <r_epik_State_Penalty>  (290) 
-0

>  <r_epik_Charging_Adjusted_Penalty>  (290) 
0

>  <i_epik_Tot_Q>  (290) 
0

>  <i_epik_Tot_abs_Q>  (290) 
0

>  <s_lp_Force_Field>  (290) 
OPLS3e

>  <r_lp_Energy>  (290) 
14.037

>  <b_lp_Chiralities_Consistent>  (290) 
1

>  <s_lp_Variant>  (290) 
76:0-1

>  <s_i_glide_gridfile>  (290) 
pfpi4k_grid

>  <i_i_glide_lignum>  (290) 
36

>  <i_i_glide_rotatable_bonds>  (290) 
2

>  <r_i_docking_score>  (290) 
-3.77321

>  <r_i_glide_ligand_efficiency>  (290) 
-0.19859

>  <r_i_glide_ligand_efficiency_sa>  (290) 
-0.529918

>  <r_i_glide_ligand_efficiency_ln>  (290) 
-0.95659

>  <r_i_glide_gscore>  (290) 
-3.77321

>  <r_i_glide_lipo>  (290) 
-0.434713

>  <r_i_glide_hbond>  (290) 
-0.0808054

>  <r_i_glide_metal>  (290) 
-0

>  <r_i_glide_rewards>  (290) 
-1.62067

>  <r_i_glide_evdw>  (290) 
-22.028

>  <r_i_glide_ecoul>  (290) 
-3.57078

>  <r_i_glide_erotb>  (290) 
0

>  <r_i_glide_esite>  (290) 
0

>  <r_i_glide_emodel>  (290) 
-31.5637

>  <r_i_glide_energy>  (290) 
-25.5988

>  <r_i_glide_einternal>  (290) 
0.345853

>  <r_i_glide_intrahb_reward>  (290) 
-0

>  <i_i_glide_confnum>  (290) 
1

>  <i_i_glide_posenum>  (290) 
26

>  <r_i_glide_eff_state_penalty>  (290) 
0

>  <ligand_id>  (290) 
76

>  <original_smiles>  (290) 
Cc1cc2c(oc1=O)=CC1(C)C=2C(C)(O)CCC1O

>  <smiles>  (290) 
[H]OC1([H])C([H])([H])C([H])([H])C(O[H])(C([H])([H])[H])C2=c3c([H])c(C([H])([H])[H])c(=O)oc3=C([H])C21C([H])([H])[H]

$$$$
76:0:2
     RDKit          3D

 37 39  0  0  1  0  0  0  0  0999 V2000
    3.8099   -1.0797   -3.8849 C   0  0  0  0  0  0  0  0  0  0  0  0
    3.9852   -2.0144   -2.6992 C   0  0  0  0  0  0  0  0  0  0  0  0
    3.7134   -1.6479   -1.4293 C   0  0  0  0  0  0  0  0  0  0  0  0
    3.8704   -2.5983   -0.3512 C   0  0  0  0  0  0  0  0  0  0  0  0
    4.3808   -3.8796   -0.7004 C   0  0  0  0  0  0  0  0  0  0  0  0
    4.7106   -4.2470   -1.9769 O   0  0  0  0  0  0  0  0  0  0  0  0
    4.4752   -3.3958   -3.0341 C   0  0  0  0  0  0  0  0  0  0  0  0
    4.6465   -3.7653   -4.1943 O   0  0  0  0  0  0  0  0  0  0  0  0
    4.5094   -4.6346    0.3861 C   0  0  0  0  0  0  0  0  0  0  0  0
    4.0721   -3.8926    1.6336 C   0  0  2  0  0  0  0  0  0  0  0  0
    2.8637   -4.6215    2.2602 C   0  0  0  0  0  0  0  0  0  0  0  0
    3.6943   -2.5466    0.9888 C   0  0  0  0  0  0  0  0  0  0  0  0
    3.3654   -1.3862    1.9426 C   0  0  1  0  0  0  0  0  0  0  0  0
    3.1055   -0.0315    1.2769 C   0  0  0  0  0  0  0  0  0  0  0  0
    2.1820   -1.6692    2.6568 O   0  0  0  0  0  0  0  0  0  0  0  0
    4.5085   -1.2529    2.9787 C   0  0  0  0  0  0  0  0  0  0  0  0
    4.9188   -2.5796    3.6529 C   0  0  0  0  0  0  0  0  0  0  0  0
    5.2440   -3.6686    2.6148 C   0  0  1  0  0  0  0  0  0  0  0  0
    5.6004   -4.8720    3.2642 O   0  0  0  0  0  0  0  0  0  0  0  0
    3.4461   -0.1044   -3.5645 H   0  0  0  0  0  0  0  0  0  0  0  0
    3.0943   -1.4866   -4.6028 H   0  0  0  0  0  0  0  0  0  0  0  0
    4.7563   -0.9355   -4.4056 H   0  0  0  0  0  0  0  0  0  0  0  0
    3.3464   -0.6567   -1.2427 H   0  0  0  0  0  0  0  0  0  0  0  0
    4.8651   -5.6500    0.3976 H   0  0  0  0  0  0  0  0  0  0  0  0
    2.0262   -4.6255    1.5661 H   0  0  0  0  0  0  0  0  0  0  0  0
    2.5264   -4.1533    3.1841 H   0  0  0  0  0  0  0  0  0  0  0  0
    3.1012   -5.6602    2.4923 H   0  0  0  0  0  0  0  0  0  0  0  0
    3.9710    0.3101    0.7072 H   0  0  0  0  0  0  0  0  0  0  0  0
    2.8814    0.7383    2.0181 H   0  0  0  0  0  0  0  0  0  0  0  0
    2.2459   -0.0770    0.6072 H   0  0  0  0  0  0  0  0  0  0  0  0
    1.4502   -1.4838    2.0881 H   0  0  0  0  0  0  0  0  0  0  0  0
    5.3863   -0.8394    2.4791 H   0  0  0  0  0  0  0  0  0  0  0  0
    4.2372   -0.5263    3.7452 H   0  0  0  0  0  0  0  0  0  0  0  0
    5.7924   -2.4071    4.2803 H   0  0  0  0  0  0  0  0  0  0  0  0
    4.1321   -2.9172    4.3261 H   0  0  0  0  0  0  0  0  0  0  0  0
    6.1196   -3.3397    2.0529 H   0  0  0  0  0  0  0  0  0  0  0  0
    5.8683   -5.5027    2.6130 H   0  0  0  0  0  0  0  0  0  0  0  0
  1  2  1  0
  1 20  1  0
  1 21  1  0
  1 22  1  0
  2  7  1  0
  2  3  2  0
  3  4  1  0
  3 23  1  0
  4 12  2  0
  4  5  1  0
  5  6  1  0
  5  9  2  0
  6  7  1  0
  7  8  2  0
  9 10  1  0
  9 24  1  0
 10 18  1  0
 10 11  1  1
 10 12  1  0
 11 25  1  0
 11 26  1  0
 11 27  1  0
 12 13  1  0
 13 14  1  0
 13 15  1  1
 13 16  1  0
 14 28  1  0
 14 29  1  0
 14 30  1  0
 15 31  1  0
 16 17  1  0
 16 32  1  0
 16 33  1  0
 17 18  1  0
 17 34  1  0
 17 35  1  0
 18 19  1  0
 18 36  1  6
 19 37  1  0
M  END
>  <i_m_ct_stereo_status>  (291) 
1

>  <s_m_source_file>  (291) 
/var/tmp/pbs.5076255.sched01/tmpk9_hntje/1089a46f3po.sdf

>  <i_m_source_file_index>  (291) 
36

>  <i_lp_mmshare_version>  (291) 
48012

>  <i_f3d_flags>  (291) 
0

>  <s_epik_input>  (291) 
W0NIM11jKFtjSF0xKWMoPU8pb2MoPVtDSF0yKWMxPUMoW0NAQF0yM1tDSDNdKVtDQEBdKFtDSDNdKShbT0hdKVtDSDJdW0NIMl1bQ0BIXTNbT0hd

>  <s_epik_cmdline>  (291) 
J2VwaWtfcHl0aG9uJywgJy1waHQnLCAnMi4wJywgJy1waCcsICc3LjAnLCAnLXRuJywgJzgnLCAnLW1hJywgJzIwMCcsICctaW1hZScsICc8aW5maWxlLm1hZT4nLCAnLW9tYWUnLCAnPG91dGZpbGUubWFlPic=

>  <r_lp_tautomer_probability>  (291) 
1

>  <r_epik_Ionization_Penalty>  (291) 
5.82103e-05

>  <r_epik_Ionization_Penalty_Charging>  (291) 
0

>  <r_epik_Ionization_Penalty_Neutral>  (291) 
5.82103e-05

>  <r_epik_State_Penalty>  (291) 
-0

>  <r_epik_Charging_Adjusted_Penalty>  (291) 
0

>  <i_epik_Tot_Q>  (291) 
0

>  <i_epik_Tot_abs_Q>  (291) 
0

>  <s_lp_Force_Field>  (291) 
OPLS3e

>  <r_lp_Energy>  (291) 
14.037

>  <b_lp_Chiralities_Consistent>  (291) 
1

>  <s_lp_Variant>  (291) 
76:0-1

>  <s_i_glide_gridfile>  (291) 
pfpi4k_grid

>  <i_i_glide_lignum>  (291) 
36

>  <i_i_glide_rotatable_bonds>  (291) 
2

>  <r_i_docking_score>  (291) 
-3.6734

>  <r_i_glide_ligand_efficiency>  (291) 
-0.193337

>  <r_i_glide_ligand_efficiency_sa>  (291) 
-0.5159

>  <r_i_glide_ligand_efficiency_ln>  (291) 
-0.931285

>  <r_i_glide_gscore>  (291) 
-3.6734

>  <r_i_glide_lipo>  (291) 
-0.443707

>  <r_i_glide_hbond>  (291) 
-0.0143528

>  <r_i_glide_metal>  (291) 
-0

>  <r_i_glide_rewards>  (291) 
-1.62067

>  <r_i_glide_evdw>  (291) 
-23.8549

>  <r_i_glide_ecoul>  (291) 
-2.67942

>  <r_i_glide_erotb>  (291) 
0

>  <r_i_glide_esite>  (291) 
0

>  <r_i_glide_emodel>  (291) 
-32.2911

>  <r_i_glide_energy>  (291) 
-26.5344

>  <r_i_glide_einternal>  (291) 
0.410969

>  <r_i_glide_intrahb_reward>  (291) 
-0

>  <i_i_glide_confnum>  (291) 
1

>  <i_i_glide_posenum>  (291) 
24

>  <r_i_glide_eff_state_penalty>  (291) 
0

>  <ligand_id>  (291) 
76

>  <original_smiles>  (291) 
Cc1cc2c(oc1=O)=CC1(C)C=2C(C)(O)CCC1O

>  <smiles>  (291) 
[H]OC1([H])C([H])([H])C([H])([H])C(O[H])(C([H])([H])[H])C2=c3c([H])c(C([H])([H])[H])c(=O)oc3=C([H])C21C([H])([H])[H]

$$$$
78:0:0
     RDKit          3D

 52 56  0  0  1  0  0  0  0  0999 V2000
    4.1708   -1.8164   -3.4551 C   0  0  0  0  0  0  0  0  0  0  0  0
    4.5652   -2.1784   -2.0109 C   0  0  2  0  0  0  0  0  0  0  0  0
    4.2170   -1.0176   -1.0638 C   0  0  0  0  0  0  0  0  0  0  0  0
    4.6325   -1.3548    0.3773 C   0  0  2  0  0  0  0  0  0  0  0  0
    6.1479   -1.6333    0.4520 C   0  0  0  0  0  0  0  0  0  0  0  0
    6.5081   -2.8141   -0.4823 C   0  0  2  0  0  0  0  0  0  0  0  0
    8.0175   -3.1063   -0.4194 C   0  0  0  0  0  0  0  0  0  0  0  0
    6.0812   -2.4631   -1.9199 C   0  0  0  0  0  0  0  0  0  0  0  0
    5.7185   -4.0601   -0.0352 C   0  0  0  0  0  0  0  0  0  0  0  0
    4.1920   -3.8024   -0.0724 C   0  0  1  0  0  0  0  0  0  0  0  0
    3.4300   -5.0163    0.3324 N   0  0  0  0  0  0  0  0  0  0  0  0
    3.8217   -5.6460    1.6210 C   0  0  0  0  0  0  0  0  0  0  0  0
    2.8260   -6.6890    2.0952 C   0  0  0  0  0  0  0  0  0  0  0  0
    1.5352   -6.3200    2.5226 C   0  0  0  0  0  0  0  0  0  0  0  0
    0.6661   -7.2307    3.0038 N   0  0  0  0  0  0  0  0  0  0  0  0
    1.0871   -8.5180    3.0912 C   0  0  0  0  0  0  0  0  0  0  0  0
    0.2161   -9.5086    3.5968 C   0  0  0  0  0  0  0  0  0  0  0  0
    0.6236  -10.8471    3.7021 C   0  0  0  0  0  0  0  0  0  0  0  0
    1.9194  -11.2139    3.3062 C   0  0  0  0  0  0  0  0  0  0  0  0
    2.8017  -10.2412    2.8004 C   0  0  0  0  0  0  0  0  0  0  0  0
    2.4023   -8.8946    2.6758 C   0  0  0  0  0  0  0  0  0  0  0  0
    3.2578   -7.9663    2.1683 N   0  0  0  0  0  0  0  0  0  0  0  0
    3.8516   -2.5946    0.8423 C   0  0  0  0  0  0  0  0  0  0  0  0
    3.8034   -3.4320   -1.5308 C   0  0  0  0  0  0  0  0  0  0  0  0
    3.1055   -1.6082   -3.5368 H   0  0  0  0  0  0  0  0  0  0  0  0
    4.4049   -2.6251   -4.1442 H   0  0  0  0  0  0  0  0  0  0  0  0
    4.6905   -0.9267   -3.8024 H   0  0  0  0  0  0  0  0  0  0  0  0
    4.7065   -0.1066   -1.3917 H   0  0  0  0  0  0  0  0  0  0  0  0
    3.1453   -0.8176   -1.0959 H   0  0  0  0  0  0  0  0  0  0  0  0
    4.3917   -0.5095    1.0238 H   0  0  0  0  0  0  0  0  0  0  0  0
    6.7067   -0.7383    0.1838 H   0  0  0  0  0  0  0  0  0  0  0  0
    6.4259   -1.8679    1.4806 H   0  0  0  0  0  0  0  0  0  0  0  0
    8.2863   -3.9217   -1.0887 H   0  0  0  0  0  0  0  0  0  0  0  0
    8.3186   -3.3985    0.5868 H   0  0  0  0  0  0  0  0  0  0  0  0
    8.6206   -2.2471   -0.7076 H   0  0  0  0  0  0  0  0  0  0  0  0
    6.3559   -3.2698   -2.6067 H   0  0  0  0  0  0  0  0  0  0  0  0
    6.6209   -1.5854   -2.2516 H   0  0  0  0  0  0  0  0  0  0  0  0
    5.9572   -4.9063   -0.6820 H   0  0  0  0  0  0  0  0  0  0  0  0
    6.0570   -4.3207    0.9696 H   0  0  0  0  0  0  0  0  0  0  0  0
    2.4595   -4.7507    0.3833 H   0  0  0  0  0  0  0  0  0  0  0  0
    4.8018   -6.1112    1.5291 H   0  0  0  0  0  0  0  0  0  0  0  0
    3.9052   -4.9094    2.4178 H   0  0  0  0  0  0  0  0  0  0  0  0
    1.2044   -5.2888    2.5036 H   0  0  0  0  0  0  0  0  0  0  0  0
   -0.7798   -9.2554    3.9135 H   0  0  0  0  0  0  0  0  0  0  0  0
   -0.0559  -11.5907    4.0960 H   0  0  0  0  0  0  0  0  0  0  0  0
    2.2330  -12.2461    3.3776 H   0  0  0  0  0  0  0  0  0  0  0  0
    3.7877  -10.5507    2.4873 H   0  0  0  0  0  0  0  0  0  0  0  0
    4.1137   -2.7795    1.8846 H   0  0  0  0  0  0  0  0  0  0  0  0
    2.7808   -2.3808    0.8185 H   0  0  0  0  0  0  0  0  0  0  0  0
    2.7271   -3.2552   -1.6089 H   0  0  0  0  0  0  0  0  0  0  0  0
    4.0409   -4.2595   -2.2024 H   0  0  0  0  0  0  0  0  0  0  0  0
    3.5064   -5.7058   -0.4077 H   0  0  0  0  0  0  0  0  0  0  0  0
  2  1  1  6
  1 25  1  0
  1 26  1  0
  1 27  1  0
  2  8  1  0
  2 24  1  0
  2  3  1  0
  3  4  1  0
  3 28  1  0
  3 29  1  0
  4 23  1  0
  4  5  1  0
  4 30  1  1
  5  6  1  0
  5 31  1  0
  5 32  1  0
  6  7  1  6
  6  8  1  0
  6  9  1  0
  7 33  1  0
  7 34  1  0
  7 35  1  0
  8 36  1  0
  8 37  1  0
  9 10  1  0
  9 38  1  0
  9 39  1  0
 10 11  1  1
 10 23  1  0
 10 24  1  0
 11 12  1  0
 11 40  1  0
 11 52  1  0
 12 13  1  0
 12 41  1  0
 12 42  1  0
 13 22  1  0
 13 14  2  0
 14 15  1  0
 14 43  1  0
 15 16  2  0
 16 21  1  0
 16 17  1  0
 17 18  2  0
 17 44  1  0
 18 19  1  0
 18 45  1  0
 19 20  2  0
 19 46  1  0
 20 21  1  0
 20 47  1  0
 21 22  2  0
 23 48  1  0
 23 49  1  0
 24 50  1  0
 24 51  1  0
M  CHG  1  11   1
M  END
>  <i_m_ct_stereo_status>  (292) 
1

>  <s_m_source_file>  (292) 
/var/tmp/pbs.5076255.sched01/tmpk9_hntje/1089a46f3po.sdf

>  <i_m_source_file_index>  (292) 
38

>  <i_lp_mmshare_version>  (292) 
48012

>  <i_f3d_flags>  (292) 
0

>  <s_epik_input>  (292) 
W0NIM11bQ0BdMTJbQ0gyXVtDQEBIXTNbQ0gyXVtDQF0oW0NIM10pKFtDSDJdMSlbQ0gyXVtDQEBdKFtDSDJdMykoW0NIMl0yKVtOSF1bQ0gyXWMoW2NIXW40KW5jKGM0NSlbY0hdW2NIXVtjSF1bY0hdNQ==

>  <s_epik_cmdline>  (292) 
J2VwaWtfcHl0aG9uJywgJy1waHQnLCAnMi4wJywgJy1waCcsICc3LjAnLCAnLXRuJywgJzgnLCAnLW1hJywgJzIwMCcsICctaW1hZScsICc8aW5maWxlLm1hZT4nLCAnLW9tYWUnLCAnPG91dGZpbGUubWFlPic=

>  <r_lp_tautomer_probability>  (292) 
1

>  <r_epik_Ionization_Penalty>  (292) 
0.0223116

>  <r_epik_Ionization_Penalty_Charging>  (292) 
0.0223111

>  <r_epik_Ionization_Penalty_Neutral>  (292) 
5.25357e-07

>  <r_epik_State_Penalty>  (292) 
0.0179941

>  <r_epik_Charging_Adjusted_Penalty>  (292) 
0.0403052

>  <i_epik_Tot_Q>  (292) 
1

>  <i_epik_Tot_abs_Q>  (292) 
1

>  <s_lp_Force_Field>  (292) 
OPLS3e

>  <r_lp_Energy>  (292) 
36.0574

>  <b_lp_Chiralities_Consistent>  (292) 
1

>  <s_lp_Variant>  (292) 
78:0-1

>  <s_i_glide_gridfile>  (292) 
pfpi4k_grid

>  <i_i_glide_lignum>  (292) 
38

>  <i_i_glide_rotatable_bonds>  (292) 
3

>  <r_i_docking_score>  (292) 
-3.57137

>  <r_i_glide_ligand_efficiency>  (292) 
-0.148807

>  <r_i_glide_ligand_efficiency_sa>  (292) 
-0.429234

>  <r_i_glide_ligand_efficiency_ln>  (292) 
-0.854793

>  <r_i_glide_gscore>  (292) 
-3.57137

>  <r_i_glide_lipo>  (292) 
-0.639992

>  <r_i_glide_hbond>  (292) 
0

>  <r_i_glide_metal>  (292) 
-0

>  <r_i_glide_rewards>  (292) 
-1.21045

>  <r_i_glide_evdw>  (292) 
-31.3751

>  <r_i_glide_ecoul>  (292) 
-4.51693

>  <r_i_glide_erotb>  (292) 
0.539522

>  <r_i_glide_esite>  (292) 
-0.0141552

>  <r_i_glide_emodel>  (292) 
-43.95

>  <r_i_glide_energy>  (292) 
-35.892

>  <r_i_glide_einternal>  (292) 
0.453356

>  <r_i_glide_intrahb_reward>  (292) 
-0

>  <i_i_glide_confnum>  (292) 
2

>  <i_i_glide_posenum>  (292) 
13

>  <r_i_glide_eff_state_penalty>  (292) 
0

>  <ligand_id>  (292) 
78

>  <original_smiles>  (292) 
CC12CC3CC(C)(C1)CC(NCc1cnc4ccccc4n1)(C3)C2

>  <smiles>  (292) 
[H]c1nc2c([H])c([H])c([H])c([H])c2nc1C([H])([H])[N+]([H])([H])C12C([H])([H])C3([H])C([H])([H])C(C([H])([H])[H])(C([H])([H])C(C([H])([H])[H])(C3([H])[H])C1([H])[H])C2([H])[H]

$$$$
78:0:1
     RDKit          3D

 52 56  0  0  1  0  0  0  0  0999 V2000
    8.5793   -3.0399   -0.1708 C   0  0  0  0  0  0  0  0  0  0  0  0
    7.0442   -2.9574   -0.1649 C   0  0  2  0  0  0  0  0  0  0  0  0
    6.4985   -2.9340   -1.6138 C   0  0  0  0  0  0  0  0  0  0  0  0
    4.9619   -2.8342   -1.5987 C   0  0  2  0  0  0  0  0  0  0  0  0
    4.5119   -1.5598   -0.8661 C   0  0  0  0  0  0  0  0  0  0  0  0
    5.0292   -1.5866    0.5918 C   0  0  2  0  0  0  0  0  0  0  0  0
    4.5807   -0.3247    1.3407 C   0  0  0  0  0  0  0  0  0  0  0  0
    6.5749   -1.6748    0.5619 C   0  0  0  0  0  0  0  0  0  0  0  0
    4.4721   -2.8469    1.3007 C   0  0  0  0  0  0  0  0  0  0  0  0
    4.9021   -4.1486    0.5684 C   0  0  1  0  0  0  0  0  0  0  0  0
    4.3368   -5.3393    1.3018 N   0  0  0  0  0  0  0  0  0  0  0  0
    4.4660   -6.6199    0.6239 C   0  0  0  0  0  0  0  0  0  0  0  0
    4.0452   -7.8021    1.5018 C   0  0  0  0  0  0  0  0  0  0  0  0
    5.0237   -8.6813    2.0471 C   0  0  0  0  0  0  0  0  0  0  0  0
    4.6685   -9.7396    2.7917 N   0  0  0  0  0  0  0  0  0  0  0  0
    3.3552   -9.9678    2.9979 C   0  0  0  0  0  0  0  0  0  0  0  0
    2.9419  -11.0614    3.7804 C   0  0  0  0  0  0  0  0  0  0  0  0
    1.5761  -11.3187    4.0318 C   0  0  0  0  0  0  0  0  0  0  0  0
    0.6038  -10.4603    3.4802 C   0  0  0  0  0  0  0  0  0  0  0  0
    1.0082   -9.3569    2.6901 C   0  0  0  0  0  0  0  0  0  0  0  0
    2.3647   -9.0897    2.4422 C   0  0  0  0  0  0  0  0  0  0  0  0
    2.7326   -8.0075    1.7033 N   0  0  0  0  0  0  0  0  0  0  0  0
    4.3844   -4.0628   -0.8879 C   0  0  0  0  0  0  0  0  0  0  0  0
    6.4525   -4.1857    0.5668 C   0  0  0  0  0  0  0  0  0  0  0  0
    8.9236   -3.9347   -0.6859 H   0  0  0  0  0  0  0  0  0  0  0  0
    8.9785   -3.0624    0.8420 H   0  0  0  0  0  0  0  0  0  0  0  0
    9.0194   -2.1848   -0.6797 H   0  0  0  0  0  0  0  0  0  0  0  0
    6.9270   -2.1104   -2.1779 H   0  0  0  0  0  0  0  0  0  0  0  0
    6.7966   -3.8401   -2.1435 H   0  0  0  0  0  0  0  0  0  0  0  0
    4.5953   -2.8086   -2.6271 H   0  0  0  0  0  0  0  0  0  0  0  0
    4.8690   -0.6721   -1.3885 H   0  0  0  0  0  0  0  0  0  0  0  0
    3.4193   -1.4981   -0.8740 H   0  0  0  0  0  0  0  0  0  0  0  0
    4.9567   -0.3141    2.3625 H   0  0  0  0  0  0  0  0  0  0  0  0
    3.4948   -0.2541    1.3850 H   0  0  0  0  0  0  0  0  0  0  0  0
    4.9467    0.5653    0.8443 H   0  0  0  0  0  0  0  0  0  0  0  0
    6.9643   -1.6606    1.5829 H   0  0  0  0  0  0  0  0  0  0  0  0
    6.9894   -0.7899    0.0798 H   0  0  0  0  0  0  0  0  0  0  0  0
    4.8211   -2.8622    2.3372 H   0  0  0  0  0  0  0  0  0  0  0  0
    3.3809   -2.7814    1.3462 H   0  0  0  0  0  0  0  0  0  0  0  0
    4.7968   -5.3851    2.1978 H   0  0  0  0  0  0  0  0  0  0  0  0
    3.8447   -6.6649   -0.2725 H   0  0  0  0  0  0  0  0  0  0  0  0
    5.4849   -6.8081    0.3058 H   0  0  0  0  0  0  0  0  0  0  0  0
    6.0787   -8.5354    1.8657 H   0  0  0  0  0  0  0  0  0  0  0  0
    3.6713  -11.7276    4.2098 H   0  0  0  0  0  0  0  0  0  0  0  0
    1.2784  -12.1593    4.6365 H   0  0  0  0  0  0  0  0  0  0  0  0
   -0.4382  -10.6507    3.6698 H   0  0  0  0  0  0  0  0  0  0  0  0
    0.2488   -8.7185    2.2697 H   0  0  0  0  0  0  0  0  0  0  0  0
    3.2919   -4.0295   -0.9115 H   0  0  0  0  0  0  0  0  0  0  0  0
    4.6799   -4.9392   -1.4698 H   0  0  0  0  0  0  0  0  0  0  0  0
    6.8247   -5.0877    0.0801 H   0  0  0  0  0  0  0  0  0  0  0  0
    6.8310   -4.2251    1.5919 H   0  0  0  0  0  0  0  0  0  0  0  0
    3.3583   -5.1626    1.4685 H   0  0  0  0  0  0  0  0  0  0  0  0
  2  1  1  6
  1 25  1  0
  1 26  1  0
  1 27  1  0
  2  8  1  0
  2 24  1  0
  2  3  1  0
  3  4  1  0
  3 28  1  0
  3 29  1  0
  4 23  1  0
  4  5  1  0
  4 30  1  6
  5  6  1  0
  5 31  1  0
  5 32  1  0
  6  7  1  1
  6  8  1  0
  6  9  1  0
  7 33  1  0
  7 34  1  0
  7 35  1  0
  8 36  1  0
  8 37  1  0
  9 10  1  0
  9 38  1  0
  9 39  1  0
 10 11  1  1
 10 23  1  0
 10 24  1  0
 11 12  1  0
 11 40  1  0
 11 52  1  0
 12 13  1  0
 12 41  1  0
 12 42  1  0
 13 22  1  0
 13 14  2  0
 14 15  1  0
 14 43  1  0
 15 16  2  0
 16 21  1  0
 16 17  1  0
 17 18  2  0
 17 44  1  0
 18 19  1  0
 18 45  1  0
 19 20  2  0
 19 46  1  0
 20 21  1  0
 20 47  1  0
 21 22  2  0
 23 48  1  0
 23 49  1  0
 24 50  1  0
 24 51  1  0
M  CHG  1  11   1
M  END
>  <i_m_ct_stereo_status>  (293) 
1

>  <s_m_source_file>  (293) 
/var/tmp/pbs.5076255.sched01/tmpk9_hntje/1089a46f3po.sdf

>  <i_m_source_file_index>  (293) 
38

>  <i_lp_mmshare_version>  (293) 
48012

>  <i_f3d_flags>  (293) 
0

>  <s_epik_input>  (293) 
W0NIM11bQ0BdMTJbQ0gyXVtDQEBIXTNbQ0gyXVtDQF0oW0NIM10pKFtDSDJdMSlbQ0gyXVtDQEBdKFtDSDJdMykoW0NIMl0yKVtOSF1bQ0gyXWMoW2NIXW40KW5jKGM0NSlbY0hdW2NIXVtjSF1bY0hdNQ==

>  <s_epik_cmdline>  (293) 
J2VwaWtfcHl0aG9uJywgJy1waHQnLCAnMi4wJywgJy1waCcsICc3LjAnLCAnLXRuJywgJzgnLCAnLW1hJywgJzIwMCcsICctaW1hZScsICc8aW5maWxlLm1hZT4nLCAnLW9tYWUnLCAnPG91dGZpbGUubWFlPic=

>  <r_lp_tautomer_probability>  (293) 
1

>  <r_epik_Ionization_Penalty>  (293) 
0.0223116

>  <r_epik_Ionization_Penalty_Charging>  (293) 
0.0223111

>  <r_epik_Ionization_Penalty_Neutral>  (293) 
5.25357e-07

>  <r_epik_State_Penalty>  (293) 
0.0179941

>  <r_epik_Charging_Adjusted_Penalty>  (293) 
0.0403052

>  <i_epik_Tot_Q>  (293) 
1

>  <i_epik_Tot_abs_Q>  (293) 
1

>  <s_lp_Force_Field>  (293) 
OPLS3e

>  <r_lp_Energy>  (293) 
36.0574

>  <b_lp_Chiralities_Consistent>  (293) 
1

>  <s_lp_Variant>  (293) 
78:0-1

>  <s_i_glide_gridfile>  (293) 
pfpi4k_grid

>  <i_i_glide_lignum>  (293) 
38

>  <i_i_glide_rotatable_bonds>  (293) 
3

>  <r_i_docking_score>  (293) 
-3.40354

>  <r_i_glide_ligand_efficiency>  (293) 
-0.141814

>  <r_i_glide_ligand_efficiency_sa>  (293) 
-0.409063

>  <r_i_glide_ligand_efficiency_ln>  (293) 
-0.814624

>  <r_i_glide_gscore>  (293) 
-3.40354

>  <r_i_glide_lipo>  (293) 
-0.761103

>  <r_i_glide_hbond>  (293) 
0

>  <r_i_glide_metal>  (293) 
-0

>  <r_i_glide_rewards>  (293) 
-1.21045

>  <r_i_glide_evdw>  (293) 
-32.8265

>  <r_i_glide_ecoul>  (293) 
-2.20123

>  <r_i_glide_erotb>  (293) 
0.539522

>  <r_i_glide_esite>  (293) 
0

>  <r_i_glide_emodel>  (293) 
-42.7197

>  <r_i_glide_energy>  (293) 
-35.0277

>  <r_i_glide_einternal>  (293) 
0.251295

>  <r_i_glide_intrahb_reward>  (293) 
-0

>  <i_i_glide_confnum>  (293) 
1

>  <i_i_glide_posenum>  (293) 
11

>  <r_i_glide_eff_state_penalty>  (293) 
0

>  <ligand_id>  (293) 
78

>  <original_smiles>  (293) 
CC12CC3CC(C)(C1)CC(NCc1cnc4ccccc4n1)(C3)C2

>  <smiles>  (293) 
[H]c1nc2c([H])c([H])c([H])c([H])c2nc1C([H])([H])[N+]([H])([H])C12C([H])([H])C3([H])C([H])([H])C(C([H])([H])[H])(C([H])([H])C(C([H])([H])[H])(C3([H])[H])C1([H])[H])C2([H])[H]

$$$$
78:0:2
     RDKit          3D

 52 56  0  0  1  0  0  0  0  0999 V2000
    3.8841   -0.0514    1.0487 C   0  0  0  0  0  0  0  0  0  0  0  0
    4.4469   -1.2440    0.2595 C   0  0  2  0  0  0  0  0  0  0  0  0
    5.9839   -1.3156    0.4138 C   0  0  0  0  0  0  0  0  0  0  0  0
    6.5367   -2.5079   -0.3975 C   0  0  2  0  0  0  0  0  0  0  0  0
    6.1724   -2.3749   -1.8868 C   0  0  0  0  0  0  0  0  0  0  0  0
    4.6418   -2.3015   -2.0510 C   0  0  2  0  0  0  0  0  0  0  0  0
    4.2656   -2.1541   -3.5359 C   0  0  0  0  0  0  0  0  0  0  0  0
    4.1085   -1.0979   -1.2450 C   0  0  0  0  0  0  0  0  0  0  0  0
    4.0300   -3.5927   -1.4726 C   0  0  0  0  0  0  0  0  0  0  0  0
    4.3926   -3.7785    0.0251 C   0  0  1  0  0  0  0  0  0  0  0  0
    3.7817   -5.0475    0.5074 N   0  0  0  0  0  0  0  0  0  0  0  0
    4.1044   -5.4770    1.9012 C   0  0  0  0  0  0  0  0  0  0  0  0
    3.7804   -6.9407    2.1317 C   0  0  0  0  0  0  0  0  0  0  0  0
    4.7130   -7.9517    1.8237 C   0  0  0  0  0  0  0  0  0  0  0  0
    4.4470   -9.2489    2.0786 N   0  0  0  0  0  0  0  0  0  0  0  0
    3.2511   -9.5504    2.6385 C   0  0  0  0  0  0  0  0  0  0  0  0
    2.9030  -10.8929    2.8939 C   0  0  0  0  0  0  0  0  0  0  0  0
    1.6657  -11.2221    3.4775 C   0  0  0  0  0  0  0  0  0  0  0  0
    0.7619  -10.2071    3.8260 C   0  0  0  0  0  0  0  0  0  0  0  0
    1.0889   -8.8640    3.5713 C   0  0  0  0  0  0  0  0  0  0  0  0
    2.3137   -8.5214    2.9663 C   0  0  0  0  0  0  0  0  0  0  0  0
    2.5878   -7.2156    2.6954 N   0  0  0  0  0  0  0  0  0  0  0  0
    5.9395   -3.8073    0.1544 C   0  0  0  0  0  0  0  0  0  0  0  0
    3.8283   -2.5594    0.7924 C   0  0  0  0  0  0  0  0  0  0  0  0
    4.1146   -0.1267    2.1105 H   0  0  0  0  0  0  0  0  0  0  0  0
    2.8005    0.0177    0.9480 H   0  0  0  0  0  0  0  0  0  0  0  0
    4.2960    0.8914    0.6928 H   0  0  0  0  0  0  0  0  0  0  0  0
    6.4455   -0.3851    0.0886 H   0  0  0  0  0  0  0  0  0  0  0  0
    6.2453   -1.4341    1.4653 H   0  0  0  0  0  0  0  0  0  0  0  0
    7.6225   -2.5398   -0.2930 H   0  0  0  0  0  0  0  0  0  0  0  0
    6.6096   -1.4720   -2.2887 H   0  0  0  0  0  0  0  0  0  0  0  0
    6.5869   -3.2147   -2.4496 H   0  0  0  0  0  0  0  0  0  0  0  0
    3.1871   -2.0910   -3.6736 H   0  0  0  0  0  0  0  0  0  0  0  0
    4.6190   -3.0041   -4.1176 H   0  0  0  0  0  0  0  0  0  0  0  0
    4.6974   -1.2550   -3.9730 H   0  0  0  0  0  0  0  0  0  0  0  0
    3.0267   -1.0287   -1.3768 H   0  0  0  0  0  0  0  0  0  0  0  0
    4.5327   -0.1770   -1.6423 H   0  0  0  0  0  0  0  0  0  0  0  0
    2.9442   -3.5743   -1.6104 H   0  0  0  0  0  0  0  0  0  0  0  0
    4.4096   -4.4370   -2.0497 H   0  0  0  0  0  0  0  0  0  0  0  0
    2.7774   -4.9665    0.4385 H   0  0  0  0  0  0  0  0  0  0  0  0
    5.1578   -5.3586    2.1373 H   0  0  0  0  0  0  0  0  0  0  0  0
    3.5521   -4.8527    2.6059 H   0  0  0  0  0  0  0  0  0  0  0  0
    5.6842   -7.7398    1.3997 H   0  0  0  0  0  0  0  0  0  0  0  0
    3.5800  -11.6840    2.6175 H   0  0  0  0  0  0  0  0  0  0  0  0
    1.4058  -12.2537    3.6631 H   0  0  0  0  0  0  0  0  0  0  0  0
   -0.1847  -10.4631    4.2812 H   0  0  0  0  0  0  0  0  0  0  0  0
    0.3893   -8.0882    3.8402 H   0  0  0  0  0  0  0  0  0  0  0  0
    6.3519   -4.6607   -0.3857 H   0  0  0  0  0  0  0  0  0  0  0  0
    6.2759   -3.8920    1.1896 H   0  0  0  0  0  0  0  0  0  0  0  0
    4.0349   -2.6447    1.8617 H   0  0  0  0  0  0  0  0  0  0  0  0
    2.7407   -2.5156    0.6902 H   0  0  0  0  0  0  0  0  0  0  0  0
    4.0410   -5.7885   -0.1302 H   0  0  0  0  0  0  0  0  0  0  0  0
  2  1  1  1
  1 25  1  0
  1 26  1  0
  1 27  1  0
  2  8  1  0
  2 24  1  0
  2  3  1  0
  3  4  1  0
  3 28  1  0
  3 29  1  0
  4 23  1  0
  4  5  1  0
  4 30  1  6
  5  6  1  0
  5 31  1  0
  5 32  1  0
  6  7  1  6
  6  8  1  0
  6  9  1  0
  7 33  1  0
  7 34  1  0
  7 35  1  0
  8 36  1  0
  8 37  1  0
  9 10  1  0
  9 38  1  0
  9 39  1  0
 10 11  1  1
 10 23  1  0
 10 24  1  0
 11 12  1  0
 11 40  1  0
 11 52  1  0
 12 13  1  0
 12 41  1  0
 12 42  1  0
 13 22  1  0
 13 14  2  0
 14 15  1  0
 14 43  1  0
 15 16  2  0
 16 21  1  0
 16 17  1  0
 17 18  2  0
 17 44  1  0
 18 19  1  0
 18 45  1  0
 19 20  2  0
 19 46  1  0
 20 21  1  0
 20 47  1  0
 21 22  2  0
 23 48  1  0
 23 49  1  0
 24 50  1  0
 24 51  1  0
M  CHG  1  11   1
M  END
>  <i_m_ct_stereo_status>  (294) 
1

>  <s_m_source_file>  (294) 
/var/tmp/pbs.5076255.sched01/tmpk9_hntje/1089a46f3po.sdf

>  <i_m_source_file_index>  (294) 
38

>  <i_lp_mmshare_version>  (294) 
48012

>  <i_f3d_flags>  (294) 
0

>  <s_epik_input>  (294) 
W0NIM11bQ0BdMTJbQ0gyXVtDQEBIXTNbQ0gyXVtDQF0oW0NIM10pKFtDSDJdMSlbQ0gyXVtDQEBdKFtDSDJdMykoW0NIMl0yKVtOSF1bQ0gyXWMoW2NIXW40KW5jKGM0NSlbY0hdW2NIXVtjSF1bY0hdNQ==

>  <s_epik_cmdline>  (294) 
J2VwaWtfcHl0aG9uJywgJy1waHQnLCAnMi4wJywgJy1waCcsICc3LjAnLCAnLXRuJywgJzgnLCAnLW1hJywgJzIwMCcsICctaW1hZScsICc8aW5maWxlLm1hZT4nLCAnLW9tYWUnLCAnPG91dGZpbGUubWFlPic=

>  <r_lp_tautomer_probability>  (294) 
1

>  <r_epik_Ionization_Penalty>  (294) 
0.0223116

>  <r_epik_Ionization_Penalty_Charging>  (294) 
0.0223111

>  <r_epik_Ionization_Penalty_Neutral>  (294) 
5.25357e-07

>  <r_epik_State_Penalty>  (294) 
0.0179941

>  <r_epik_Charging_Adjusted_Penalty>  (294) 
0.0403052

>  <i_epik_Tot_Q>  (294) 
1

>  <i_epik_Tot_abs_Q>  (294) 
1

>  <s_lp_Force_Field>  (294) 
OPLS3e

>  <r_lp_Energy>  (294) 
36.0574

>  <b_lp_Chiralities_Consistent>  (294) 
1

>  <s_lp_Variant>  (294) 
78:0-1

>  <s_i_glide_gridfile>  (294) 
pfpi4k_grid

>  <i_i_glide_lignum>  (294) 
38

>  <i_i_glide_rotatable_bonds>  (294) 
3

>  <r_i_docking_score>  (294) 
-3.32264

>  <r_i_glide_ligand_efficiency>  (294) 
-0.138443

>  <r_i_glide_ligand_efficiency_sa>  (294) 
-0.39934

>  <r_i_glide_ligand_efficiency_ln>  (294) 
-0.795261

>  <r_i_glide_gscore>  (294) 
-3.32264

>  <r_i_glide_lipo>  (294) 
-0.630382

>  <r_i_glide_hbond>  (294) 
0

>  <r_i_glide_metal>  (294) 
-0

>  <r_i_glide_rewards>  (294) 
-1.21045

>  <r_i_glide_evdw>  (294) 
-29.4914

>  <r_i_glide_ecoul>  (294) 
-3.64509

>  <r_i_glide_erotb>  (294) 
0.539522

>  <r_i_glide_esite>  (294) 
0

>  <r_i_glide_emodel>  (294) 
-40.2899

>  <r_i_glide_energy>  (294) 
-33.1365

>  <r_i_glide_einternal>  (294) 
0.696414

>  <r_i_glide_intrahb_reward>  (294) 
-0

>  <i_i_glide_confnum>  (294) 
5

>  <i_i_glide_posenum>  (294) 
2

>  <r_i_glide_eff_state_penalty>  (294) 
0

>  <ligand_id>  (294) 
78

>  <original_smiles>  (294) 
CC12CC3CC(C)(C1)CC(NCc1cnc4ccccc4n1)(C3)C2

>  <smiles>  (294) 
[H]c1nc2c([H])c([H])c([H])c([H])c2nc1C([H])([H])[N+]([H])([H])C12C([H])([H])C3([H])C([H])([H])C(C([H])([H])[H])(C([H])([H])C(C([H])([H])[H])(C3([H])[H])C1([H])[H])C2([H])[H]

$$$$
78:1:0
     RDKit          3D

 51 55  0  0  1  0  0  0  0  0999 V2000
    2.7004  -10.5399    3.3615 C   0  0  0  0  0  0  0  0  0  0  0  0
    1.7385   -9.3413    3.3955 C   0  0  2  0  0  0  0  0  0  0  0  0
    1.6683   -8.7407    4.8218 C   0  0  0  0  0  0  0  0  0  0  0  0
    0.7115   -7.5299    4.8459 C   0  0  2  0  0  0  0  0  0  0  0  0
   -0.6996   -7.9737    4.4300 C   0  0  0  0  0  0  0  0  0  0  0  0
   -0.6538   -8.5754    3.0066 C   0  0  2  0  0  0  0  0  0  0  0  0
   -2.0512   -9.0295    2.5967 C   0  0  0  0  0  0  0  0  0  0  0  0
    0.3163   -9.7808    2.9879 C   0  0  0  0  0  0  0  0  0  0  0  0
   -0.1375   -7.4883    2.0302 C   0  0  0  0  0  0  0  0  0  0  0  0
    1.2815   -7.0253    2.4448 C   0  0  1  0  0  0  0  0  0  0  0  0
    1.7024   -6.0169    1.4690 N   0  0  0  0  0  0  0  0  0  0  0  0
    2.9187   -5.2776    1.8048 C   0  0  0  0  0  0  0  0  0  0  0  0
    3.5074   -4.5168    0.6323 C   0  0  0  0  0  0  0  0  0  0  0  0
    4.8924   -4.2717    0.5442 C   0  0  0  0  0  0  0  0  0  0  0  0
    5.4249   -3.6238   -0.5110 N   0  0  0  0  0  0  0  0  0  0  0  0
    4.5784   -3.2174   -1.4882 C   0  0  0  0  0  0  0  0  0  0  0  0
    5.0783   -2.5518   -2.6230 C   0  0  0  0  0  0  0  0  0  0  0  0
    4.2151   -2.0997   -3.6414 C   0  0  0  0  0  0  0  0  0  0  0  0
    2.8361   -2.3497   -3.5445 C   0  0  0  0  0  0  0  0  0  0  0  0
    2.3291   -3.0319   -2.4284 C   0  0  0  0  0  0  0  0  0  0  0  0
    3.1755   -3.4525   -1.3885 C   0  0  0  0  0  0  0  0  0  0  0  0
    2.6492   -4.0879   -0.3168 N   0  0  0  0  0  0  0  0  0  0  0  0
    1.2160   -6.4454    3.8796 C   0  0  0  0  0  0  0  0  0  0  0  0
    2.2274   -8.2523    2.4107 C   0  0  0  0  0  0  0  0  0  0  0  0
    3.7089  -10.2428    3.6442 H   0  0  0  0  0  0  0  0  0  0  0  0
    2.7636  -10.9749    2.3639 H   0  0  0  0  0  0  0  0  0  0  0  0
    2.3893  -11.3316    4.0427 H   0  0  0  0  0  0  0  0  0  0  0  0
    1.3297   -9.4968    5.5338 H   0  0  0  0  0  0  0  0  0  0  0  0
    2.6616   -8.4344    5.1494 H   0  0  0  0  0  0  0  0  0  0  0  0
    0.6779   -7.1214    5.8552 H   0  0  0  0  0  0  0  0  0  0  0  0
   -1.0898   -8.7043    5.1408 H   0  0  0  0  0  0  0  0  0  0  0  0
   -1.3763   -7.1183    4.4584 H   0  0  0  0  0  0  0  0  0  0  0  0
   -2.0599   -9.4492    1.5956 H   0  0  0  0  0  0  0  0  0  0  0  0
   -2.7415   -8.1916    2.6221 H   0  0  0  0  0  0  0  0  0  0  0  0
   -2.4297   -9.7945    3.2731 H   0  0  0  0  0  0  0  0  0  0  0  0
    0.3414  -10.2237    1.9922 H   0  0  0  0  0  0  0  0  0  0  0  0
   -0.0444  -10.5666    3.6563 H   0  0  0  0  0  0  0  0  0  0  0  0
   -0.1201   -7.8686    1.0084 H   0  0  0  0  0  0  0  0  0  0  0  0
   -0.8307   -6.6490    2.0166 H   0  0  0  0  0  0  0  0  0  0  0  0
    1.8304   -6.4204    0.5514 H   0  0  0  0  0  0  0  0  0  0  0  0
    2.7057   -4.5612    2.5959 H   0  0  0  0  0  0  0  0  0  0  0  0
    3.6904   -5.9498    2.1774 H   0  0  0  0  0  0  0  0  0  0  0  0
    5.5799   -4.6059    1.3128 H   0  0  0  0  0  0  0  0  0  0  0  0
    6.1407   -2.3842   -2.7063 H   0  0  0  0  0  0  0  0  0  0  0  0
    4.6075   -1.5609   -4.4874 H   0  0  0  0  0  0  0  0  0  0  0  0
    2.1589   -2.0077   -4.3164 H   0  0  0  0  0  0  0  0  0  0  0  0
    1.2703   -3.2112   -2.3483 H   0  0  0  0  0  0  0  0  0  0  0  0
    0.5632   -5.5729    3.9130 H   0  0  0  0  0  0  0  0  0  0  0  0
    2.1959   -6.1234    4.2300 H   0  0  0  0  0  0  0  0  0  0  0  0
    3.2451   -7.9787    2.6870 H   0  0  0  0  0  0  0  0  0  0  0  0
    2.2826   -8.6625    1.4001 H   0  0  0  0  0  0  0  0  0  0  0  0
  2  1  1  1
  1 25  1  0
  1 26  1  0
  1 27  1  0
  2  8  1  0
  2 24  1  0
  2  3  1  0
  3  4  1  0
  3 28  1  0
  3 29  1  0
  4 23  1  0
  4  5  1  0
  4 30  1  1
  5  6  1  0
  5 31  1  0
  5 32  1  0
  6  7  1  6
  6  8  1  0
  6  9  1  0
  7 33  1  0
  7 34  1  0
  7 35  1  0
  8 36  1  0
  8 37  1  0
  9 10  1  0
  9 38  1  0
  9 39  1  0
 10 11  1  6
 10 23  1  0
 10 24  1  0
 11 12  1  0
 11 40  1  0
 12 13  1  0
 12 41  1  0
 12 42  1  0
 13 22  1  0
 13 14  2  0
 14 15  1  0
 14 43  1  0
 15 16  2  0
 16 21  1  0
 16 17  1  0
 17 18  2  0
 17 44  1  0
 18 19  1  0
 18 45  1  0
 19 20  2  0
 19 46  1  0
 20 21  1  0
 20 47  1  0
 21 22  2  0
 23 48  1  0
 23 49  1  0
 24 50  1  0
 24 51  1  0
M  END
>  <i_m_ct_stereo_status>  (295) 
1

>  <s_m_source_file>  (295) 
/var/tmp/pbs.5076255.sched01/tmpk9_hntje/1089a46f3po.sdf

>  <i_m_source_file_index>  (295) 
39

>  <i_lp_mmshare_version>  (295) 
48012

>  <i_f3d_flags>  (295) 
0

>  <s_epik_input>  (295) 
W0NIM11bQ0BdMTJbQ0gyXVtDQEBIXTNbQ0gyXVtDQF0oW0NIM10pKFtDSDJdMSlbQ0gyXVtDQEBdKFtDSDJdMykoW0NIMl0yKVtOSF1bQ0gyXWMoW2NIXW40KW5jKGM0NSlbY0hdW2NIXVtjSF1bY0hdNQ==

>  <s_epik_cmdline>  (295) 
J2VwaWtfcHl0aG9uJywgJy1waHQnLCAnMi4wJywgJy1waCcsICc3LjAnLCAnLXRuJywgJzgnLCAnLW1hJywgJzIwMCcsICctaW1hZScsICc8aW5maWxlLm1hZT4nLCAnLW9tYWUnLCAnPG91dGZpbGUubWFlPic=

>  <r_lp_tautomer_probability>  (295) 
1

>  <r_epik_Ionization_Penalty>  (295) 
1.95404

>  <r_epik_Ionization_Penalty_Charging>  (295) 
0

>  <r_epik_Ionization_Penalty_Neutral>  (295) 
1.95404

>  <r_epik_State_Penalty>  (295) 
2.07929

>  <r_epik_Charging_Adjusted_Penalty>  (295) 
2.07929

>  <i_epik_Tot_Q>  (295) 
0

>  <i_epik_Tot_abs_Q>  (295) 
0

>  <s_lp_Force_Field>  (295) 
OPLS3e

>  <r_lp_Energy>  (295) 
36.9442

>  <b_lp_Chiralities_Consistent>  (295) 
1

>  <s_lp_Variant>  (295) 
78:0-2

>  <s_i_glide_gridfile>  (295) 
pfpi4k_grid

>  <i_i_glide_lignum>  (295) 
39

>  <i_i_glide_rotatable_bonds>  (295) 
3

>  <r_i_docking_score>  (295) 
-3.40347

>  <r_i_glide_ligand_efficiency>  (295) 
-0.141811

>  <r_i_glide_ligand_efficiency_sa>  (295) 
-0.409054

>  <r_i_glide_ligand_efficiency_ln>  (295) 
-0.814605

>  <r_i_glide_gscore>  (295) 
-3.40347

>  <r_i_glide_lipo>  (295) 
-0.929829

>  <r_i_glide_hbond>  (295) 
-0.0246157

>  <r_i_glide_metal>  (295) 
-0

>  <r_i_glide_rewards>  (295) 
-1.21732

>  <r_i_glide_evdw>  (295) 
-33.93

>  <r_i_glide_ecoul>  (295) 
-0.518032

>  <r_i_glide_erotb>  (295) 
0.542508

>  <r_i_glide_esite>  (295) 
0

>  <r_i_glide_emodel>  (295) 
-40.8355

>  <r_i_glide_energy>  (295) 
-34.448

>  <r_i_glide_einternal>  (295) 
2.20237

>  <r_i_glide_intrahb_reward>  (295) 
-0

>  <i_i_glide_confnum>  (295) 
4

>  <i_i_glide_posenum>  (295) 
1

>  <r_i_glide_eff_state_penalty>  (295) 
0

>  <ligand_id>  (295) 
78

>  <original_smiles>  (295) 
CC12CC3CC(C)(C1)CC(NCc1cnc4ccccc4n1)(C3)C2

>  <smiles>  (295) 
[H]c1nc2c([H])c([H])c([H])c([H])c2nc1C([H])([H])N([H])C12C([H])([H])C3([H])C([H])([H])C(C([H])([H])[H])(C1([H])[H])C([H])([H])C(C([H])([H])[H])(C3([H])[H])C2([H])[H]

$$$$
78:1:1
     RDKit          3D

 51 55  0  0  1  0  0  0  0  0999 V2000
   -1.8978   -9.0540    2.5511 C   0  0  0  0  0  0  0  0  0  0  0  0
   -0.5811   -8.4846    3.0774 C   0  0  2  0  0  0  0  0  0  0  0  0
    0.4140   -9.6316    3.3699 C   0  0  0  0  0  0  0  0  0  0  0  0
    1.7452   -9.0421    3.8716 C   0  0  2  0  0  0  0  0  0  0  0  0
    1.5033   -8.2467    5.1696 C   0  0  0  0  0  0  0  0  0  0  0  0
    0.4969   -7.0969    4.9142 C   0  0  2  0  0  0  0  0  0  0  0  0
    0.2458   -6.3076    6.2085 C   0  0  0  0  0  0  0  0  0  0  0  0
   -0.8302   -7.6877    4.3806 C   0  0  0  0  0  0  0  0  0  0  0  0
    1.0913   -6.1609    3.8426 C   0  0  0  0  0  0  0  0  0  0  0  0
    1.3689   -6.9417    2.5352 C   0  0  1  0  0  0  0  0  0  0  0  0
    1.8705   -6.0566    1.4840 N   0  0  0  0  0  0  0  0  0  0  0  0
    3.0596   -5.2705    1.8186 C   0  0  0  0  0  0  0  0  0  0  0  0
    3.6192   -4.5002    0.6398 C   0  0  0  0  0  0  0  0  0  0  0  0
    4.9969   -4.2063    0.5501 C   0  0  0  0  0  0  0  0  0  0  0  0
    5.5025   -3.5398   -0.5098 N   0  0  0  0  0  0  0  0  0  0  0  0
    4.6376   -3.1723   -1.4844 C   0  0  0  0  0  0  0  0  0  0  0  0
    5.1122   -2.4859   -2.6210 C   0  0  0  0  0  0  0  0  0  0  0  0
    4.2305   -2.0696   -3.6376 C   0  0  0  0  0  0  0  0  0  0  0  0
    2.8607   -2.3650   -3.5403 C   0  0  0  0  0  0  0  0  0  0  0  0
    2.3789   -3.0517   -2.4171 C   0  0  0  0  0  0  0  0  0  0  0  0
    3.2429   -3.4502   -1.3788 C   0  0  0  0  0  0  0  0  0  0  0  0
    2.7460   -4.1011   -0.3066 N   0  0  0  0  0  0  0  0  0  0  0  0
    2.3455   -8.1151    2.7987 C   0  0  0  0  0  0  0  0  0  0  0  0
    0.0311   -7.5300    2.0260 C   0  0  0  0  0  0  0  0  0  0  0  0
   -1.7437   -9.6329    1.6429 H   0  0  0  0  0  0  0  0  0  0  0  0
   -2.5924   -8.2529    2.3218 H   0  0  0  0  0  0  0  0  0  0  0  0
   -2.3664   -9.7133    3.2776 H   0  0  0  0  0  0  0  0  0  0  0  0
   -0.0017  -10.3096    4.1179 H   0  0  0  0  0  0  0  0  0  0  0  0
    0.5804  -10.2301    2.4726 H   0  0  0  0  0  0  0  0  0  0  0  0
    2.4366   -9.8601    4.0738 H   0  0  0  0  0  0  0  0  0  0  0  0
    1.1391   -8.9116    5.9548 H   0  0  0  0  0  0  0  0  0  0  0  0
    2.4516   -7.8415    5.5237 H   0  0  0  0  0  0  0  0  0  0  0  0
   -0.4410   -5.4794    6.0413 H   0  0  0  0  0  0  0  0  0  0  0  0
    1.1731   -5.8910    6.6005 H   0  0  0  0  0  0  0  0  0  0  0  0
   -0.1797   -6.9416    6.9848 H   0  0  0  0  0  0  0  0  0  0  0  0
   -1.5394   -6.8805    4.1916 H   0  0  0  0  0  0  0  0  0  0  0  0
   -1.2845   -8.3404    5.1273 H   0  0  0  0  0  0  0  0  0  0  0  0
    0.4103   -5.3325    3.6449 H   0  0  0  0  0  0  0  0  0  0  0  0
    2.0070   -5.7309    4.2488 H   0  0  0  0  0  0  0  0  0  0  0  0
    2.0672   -6.5728    0.6379 H   0  0  0  0  0  0  0  0  0  0  0  0
    2.8275   -4.5438    2.5935 H   0  0  0  0  0  0  0  0  0  0  0  0
    3.8498   -5.9179    2.1984 H   0  0  0  0  0  0  0  0  0  0  0  0
    5.6943   -4.5134    1.3171 H   0  0  0  0  0  0  0  0  0  0  0  0
    6.1654   -2.2826   -2.7071 H   0  0  0  0  0  0  0  0  0  0  0  0
    4.6097   -1.5211   -4.4895 H   0  0  0  0  0  0  0  0  0  0  0  0
    2.1773   -2.0530   -4.3172 H   0  0  0  0  0  0  0  0  0  0  0  0
    1.3280   -3.2724   -2.3334 H   0  0  0  0  0  0  0  0  0  0  0  0
    3.3125   -7.7687    3.1558 H   0  0  0  0  0  0  0  0  0  0  0  0
    2.5345   -8.6788    1.8851 H   0  0  0  0  0  0  0  0  0  0  0  0
    0.1981   -8.0749    1.0984 H   0  0  0  0  0  0  0  0  0  0  0  0
   -0.6777   -6.7336    1.7855 H   0  0  0  0  0  0  0  0  0  0  0  0
  2  1  1  6
  1 25  1  0
  1 26  1  0
  1 27  1  0
  2  8  1  0
  2 24  1  0
  2  3  1  0
  3  4  1  0
  3 28  1  0
  3 29  1  0
  4 23  1  0
  4  5  1  0
  4 30  1  1
  5  6  1  0
  5 31  1  0
  5 32  1  0
  6  7  1  1
  6  8  1  0
  6  9  1  0
  7 33  1  0
  7 34  1  0
  7 35  1  0
  8 36  1  0
  8 37  1  0
  9 10  1  0
  9 38  1  0
  9 39  1  0
 10 11  1  6
 10 23  1  0
 10 24  1  0
 11 12  1  0
 11 40  1  0
 12 13  1  0
 12 41  1  0
 12 42  1  0
 13 22  1  0
 13 14  2  0
 14 15  1  0
 14 43  1  0
 15 16  2  0
 16 21  1  0
 16 17  1  0
 17 18  2  0
 17 44  1  0
 18 19  1  0
 18 45  1  0
 19 20  2  0
 19 46  1  0
 20 21  1  0
 20 47  1  0
 21 22  2  0
 23 48  1  0
 23 49  1  0
 24 50  1  0
 24 51  1  0
M  END
>  <i_m_ct_stereo_status>  (296) 
1

>  <s_m_source_file>  (296) 
/var/tmp/pbs.5076255.sched01/tmpk9_hntje/1089a46f3po.sdf

>  <i_m_source_file_index>  (296) 
39

>  <i_lp_mmshare_version>  (296) 
48012

>  <i_f3d_flags>  (296) 
0

>  <s_epik_input>  (296) 
W0NIM11bQ0BdMTJbQ0gyXVtDQEBIXTNbQ0gyXVtDQF0oW0NIM10pKFtDSDJdMSlbQ0gyXVtDQEBdKFtDSDJdMykoW0NIMl0yKVtOSF1bQ0gyXWMoW2NIXW40KW5jKGM0NSlbY0hdW2NIXVtjSF1bY0hdNQ==

>  <s_epik_cmdline>  (296) 
J2VwaWtfcHl0aG9uJywgJy1waHQnLCAnMi4wJywgJy1waCcsICc3LjAnLCAnLXRuJywgJzgnLCAnLW1hJywgJzIwMCcsICctaW1hZScsICc8aW5maWxlLm1hZT4nLCAnLW9tYWUnLCAnPG91dGZpbGUubWFlPic=

>  <r_lp_tautomer_probability>  (296) 
1

>  <r_epik_Ionization_Penalty>  (296) 
1.95404

>  <r_epik_Ionization_Penalty_Charging>  (296) 
0

>  <r_epik_Ionization_Penalty_Neutral>  (296) 
1.95404

>  <r_epik_State_Penalty>  (296) 
2.07929

>  <r_epik_Charging_Adjusted_Penalty>  (296) 
2.07929

>  <i_epik_Tot_Q>  (296) 
0

>  <i_epik_Tot_abs_Q>  (296) 
0

>  <s_lp_Force_Field>  (296) 
OPLS3e

>  <r_lp_Energy>  (296) 
36.9442

>  <b_lp_Chiralities_Consistent>  (296) 
1

>  <s_lp_Variant>  (296) 
78:0-2

>  <s_i_glide_gridfile>  (296) 
pfpi4k_grid

>  <i_i_glide_lignum>  (296) 
39

>  <i_i_glide_rotatable_bonds>  (296) 
3

>  <r_i_docking_score>  (296) 
-3.37644

>  <r_i_glide_ligand_efficiency>  (296) 
-0.140685

>  <r_i_glide_ligand_efficiency_sa>  (296) 
-0.405805

>  <r_i_glide_ligand_efficiency_ln>  (296) 
-0.808136

>  <r_i_glide_gscore>  (296) 
-3.37644

>  <r_i_glide_lipo>  (296) 
-0.97995

>  <r_i_glide_hbond>  (296) 
0

>  <r_i_glide_metal>  (296) 
-0

>  <r_i_glide_rewards>  (296) 
-1.21732

>  <r_i_glide_evdw>  (296) 
-33.5438

>  <r_i_glide_ecoul>  (296) 
-0.296537

>  <r_i_glide_erotb>  (296) 
0.542508

>  <r_i_glide_esite>  (296) 
0

>  <r_i_glide_emodel>  (296) 
-40.2674

>  <r_i_glide_energy>  (296) 
-33.8403

>  <r_i_glide_einternal>  (296) 
1.93259

>  <r_i_glide_intrahb_reward>  (296) 
-0

>  <i_i_glide_confnum>  (296) 
1

>  <i_i_glide_posenum>  (296) 
29

>  <r_i_glide_eff_state_penalty>  (296) 
0

>  <ligand_id>  (296) 
78

>  <original_smiles>  (296) 
CC12CC3CC(C)(C1)CC(NCc1cnc4ccccc4n1)(C3)C2

>  <smiles>  (296) 
[H]c1nc2c([H])c([H])c([H])c([H])c2nc1C([H])([H])N([H])C12C([H])([H])C3([H])C([H])([H])C(C([H])([H])[H])(C1([H])[H])C([H])([H])C(C([H])([H])[H])(C3([H])[H])C2([H])[H]

$$$$
78:1:2
     RDKit          3D

 51 55  0  0  1  0  0  0  0  0999 V2000
    4.4514   -2.2211   -3.4711 C   0  0  0  0  0  0  0  0  0  0  0  0
    4.8105   -2.3861   -1.9842 C   0  0  2  0  0  0  0  0  0  0  0  0
    4.4754   -1.0976   -1.2052 C   0  0  0  0  0  0  0  0  0  0  0  0
    4.8121   -1.2874    0.2865 C   0  0  2  0  0  0  0  0  0  0  0  0
    6.3151   -1.5853    0.4514 C   0  0  0  0  0  0  0  0  0  0  0  0
    6.6931   -2.8664   -0.3325 C   0  0  2  0  0  0  0  0  0  0  0  0
    8.1980   -3.1541   -0.1896 C   0  0  0  0  0  0  0  0  0  0  0  0
    6.3208   -2.6899   -1.8236 C   0  0  0  0  0  0  0  0  0  0  0  0
    5.8753   -4.0430    0.2418 C   0  0  0  0  0  0  0  0  0  0  0  0
    4.3566   -3.7548    0.1244 C   0  0  1  0  0  0  0  0  0  0  0  0
    3.5654   -4.8900    0.6130 N   0  0  0  0  0  0  0  0  0  0  0  0
    3.8076   -5.2992    1.9956 C   0  0  0  0  0  0  0  0  0  0  0  0
    2.8372   -6.3558    2.4755 C   0  0  0  0  0  0  0  0  0  0  0  0
    1.5670   -6.0043    2.9698 C   0  0  0  0  0  0  0  0  0  0  0  0
    0.6946   -6.9390    3.3963 N   0  0  0  0  0  0  0  0  0  0  0  0
    1.0937   -8.2361    3.3531 C   0  0  0  0  0  0  0  0  0  0  0  0
    0.2278   -9.2545    3.7980 C   0  0  0  0  0  0  0  0  0  0  0  0
    0.6185  -10.6053    3.7643 C   0  0  0  0  0  0  0  0  0  0  0  0
    1.8912  -10.9568    3.2863 C   0  0  0  0  0  0  0  0  0  0  0  0
    2.7689   -9.9526    2.8421 C   0  0  0  0  0  0  0  0  0  0  0  0
    2.3907   -8.5910    2.8649 C   0  0  0  0  0  0  0  0  0  0  0  0
    3.2499   -7.6402    2.4261 N   0  0  0  0  0  0  0  0  0  0  0  0
    3.9900   -2.4510    0.8724 C   0  0  0  0  0  0  0  0  0  0  0  0
    4.0086   -3.5554   -1.3723 C   0  0  0  0  0  0  0  0  0  0  0  0
    3.3902   -2.0112   -3.6050 H   0  0  0  0  0  0  0  0  0  0  0  0
    4.6786   -3.1237   -4.0370 H   0  0  0  0  0  0  0  0  0  0  0  0
    5.0024   -1.4008   -3.9252 H   0  0  0  0  0  0  0  0  0  0  0  0
    5.0348   -0.2553   -1.6133 H   0  0  0  0  0  0  0  0  0  0  0  0
    3.4169   -0.8584   -1.3160 H   0  0  0  0  0  0  0  0  0  0  0  0
    4.5640   -0.3728    0.8243 H   0  0  0  0  0  0  0  0  0  0  0  0
    6.9020   -0.7317    0.1122 H   0  0  0  0  0  0  0  0  0  0  0  0
    6.5463   -1.7111    1.5101 H   0  0  0  0  0  0  0  0  0  0  0  0
    8.4777   -4.0664   -0.7147 H   0  0  0  0  0  0  0  0  0  0  0  0
    8.4762   -3.2809    0.8569 H   0  0  0  0  0  0  0  0  0  0  0  0
    8.8070   -2.3445   -0.5937 H   0  0  0  0  0  0  0  0  0  0  0  0
    6.5749   -3.5951   -2.3769 H   0  0  0  0  0  0  0  0  0  0  0  0
    6.9118   -1.8919   -2.2655 H   0  0  0  0  0  0  0  0  0  0  0  0
    6.1174   -4.9671   -0.2874 H   0  0  0  0  0  0  0  0  0  0  0  0
    6.1739   -4.1859    1.2804 H   0  0  0  0  0  0  0  0  0  0  0  0
    2.5837   -4.7360    0.4430 H   0  0  0  0  0  0  0  0  0  0  0  0
    4.8190   -5.6882    2.1075 H   0  0  0  0  0  0  0  0  0  0  0  0
    3.7133   -4.4521    2.6748 H   0  0  0  0  0  0  0  0  0  0  0  0
    1.2554   -4.9690    3.0204 H   0  0  0  0  0  0  0  0  0  0  0  0
   -0.7531   -9.0112    4.1731 H   0  0  0  0  0  0  0  0  0  0  0  0
   -0.0652  -11.3687    4.1138 H   0  0  0  0  0  0  0  0  0  0  0  0
    2.1905  -11.9972    3.2521 H   0  0  0  0  0  0  0  0  0  0  0  0
    3.7417  -10.2300    2.4653 H   0  0  0  0  0  0  0  0  0  0  0  0
    4.2083   -2.5131    1.9369 H   0  0  0  0  0  0  0  0  0  0  0  0
    2.9240   -2.2410    0.7766 H   0  0  0  0  0  0  0  0  0  0  0  0
    2.9376   -3.3768   -1.5013 H   0  0  0  0  0  0  0  0  0  0  0  0
    4.2428   -4.4657   -1.9256 H   0  0  0  0  0  0  0  0  0  0  0  0
  2  1  1  6
  1 25  1  0
  1 26  1  0
  1 27  1  0
  2  8  1  0
  2 24  1  0
  2  3  1  0
  3  4  1  0
  3 28  1  0
  3 29  1  0
  4 23  1  0
  4  5  1  0
  4 30  1  1
  5  6  1  0
  5 31  1  0
  5 32  1  0
  6  7  1  6
  6  8  1  0
  6  9  1  0
  7 33  1  0
  7 34  1  0
  7 35  1  0
  8 36  1  0
  8 37  1  0
  9 10  1  0
  9 38  1  0
  9 39  1  0
 10 11  1  1
 10 23  1  0
 10 24  1  0
 11 12  1  0
 11 40  1  0
 12 13  1  0
 12 41  1  0
 12 42  1  0
 13 22  1  0
 13 14  2  0
 14 15  1  0
 14 43  1  0
 15 16  2  0
 16 21  1  0
 16 17  1  0
 17 18  2  0
 17 44  1  0
 18 19  1  0
 18 45  1  0
 19 20  2  0
 19 46  1  0
 20 21  1  0
 20 47  1  0
 21 22  2  0
 23 48  1  0
 23 49  1  0
 24 50  1  0
 24 51  1  0
M  END
>  <i_m_ct_stereo_status>  (297) 
1

>  <s_m_source_file>  (297) 
/var/tmp/pbs.5076255.sched01/tmpk9_hntje/1089a46f3po.sdf

>  <i_m_source_file_index>  (297) 
39

>  <i_lp_mmshare_version>  (297) 
48012

>  <i_f3d_flags>  (297) 
0

>  <s_epik_input>  (297) 
W0NIM11bQ0BdMTJbQ0gyXVtDQEBIXTNbQ0gyXVtDQF0oW0NIM10pKFtDSDJdMSlbQ0gyXVtDQEBdKFtDSDJdMykoW0NIMl0yKVtOSF1bQ0gyXWMoW2NIXW40KW5jKGM0NSlbY0hdW2NIXVtjSF1bY0hdNQ==

>  <s_epik_cmdline>  (297) 
J2VwaWtfcHl0aG9uJywgJy1waHQnLCAnMi4wJywgJy1waCcsICc3LjAnLCAnLXRuJywgJzgnLCAnLW1hJywgJzIwMCcsICctaW1hZScsICc8aW5maWxlLm1hZT4nLCAnLW9tYWUnLCAnPG91dGZpbGUubWFlPic=

>  <r_lp_tautomer_probability>  (297) 
1

>  <r_epik_Ionization_Penalty>  (297) 
1.95404

>  <r_epik_Ionization_Penalty_Charging>  (297) 
0

>  <r_epik_Ionization_Penalty_Neutral>  (297) 
1.95404

>  <r_epik_State_Penalty>  (297) 
2.07929

>  <r_epik_Charging_Adjusted_Penalty>  (297) 
2.07929

>  <i_epik_Tot_Q>  (297) 
0

>  <i_epik_Tot_abs_Q>  (297) 
0

>  <s_lp_Force_Field>  (297) 
OPLS3e

>  <r_lp_Energy>  (297) 
36.9442

>  <b_lp_Chiralities_Consistent>  (297) 
1

>  <s_lp_Variant>  (297) 
78:0-2

>  <s_i_glide_gridfile>  (297) 
pfpi4k_grid

>  <i_i_glide_lignum>  (297) 
39

>  <i_i_glide_rotatable_bonds>  (297) 
3

>  <r_i_docking_score>  (297) 
-3.11987

>  <r_i_glide_ligand_efficiency>  (297) 
-0.129995

>  <r_i_glide_ligand_efficiency_sa>  (297) 
-0.37497

>  <r_i_glide_ligand_efficiency_ln>  (297) 
-0.746729

>  <r_i_glide_gscore>  (297) 
-3.11987

>  <r_i_glide_lipo>  (297) 
-0.619518

>  <r_i_glide_hbond>  (297) 
0

>  <r_i_glide_metal>  (297) 
-0

>  <r_i_glide_rewards>  (297) 
-1.21732

>  <r_i_glide_evdw>  (297) 
-32.474

>  <r_i_glide_ecoul>  (297) 
-1.34559

>  <r_i_glide_erotb>  (297) 
0.542508

>  <r_i_glide_esite>  (297) 
0

>  <r_i_glide_emodel>  (297) 
-40.3693

>  <r_i_glide_energy>  (297) 
-33.8196

>  <r_i_glide_einternal>  (297) 
0.678161

>  <r_i_glide_intrahb_reward>  (297) 
-0

>  <i_i_glide_confnum>  (297) 
1

>  <i_i_glide_posenum>  (297) 
13

>  <r_i_glide_eff_state_penalty>  (297) 
0

>  <ligand_id>  (297) 
78

>  <original_smiles>  (297) 
CC12CC3CC(C)(C1)CC(NCc1cnc4ccccc4n1)(C3)C2

>  <smiles>  (297) 
[H]c1nc2c([H])c([H])c([H])c([H])c2nc1C([H])([H])N([H])C12C([H])([H])C3([H])C([H])([H])C(C([H])([H])[H])(C1([H])[H])C([H])([H])C(C([H])([H])[H])(C3([H])[H])C2([H])[H]

$$$$
79:0:0
     RDKit          3D

 12 13  0  0  1  0  0  0  0  0999 V2000
    3.0743   -7.2250    1.5243 C   0  0  0  0  0  0  0  0  0  0  0  0
    2.1648   -6.2008    1.1777 C   0  0  0  0  0  0  0  0  0  0  0  0
    0.8187   -6.2745    1.3301 N   0  0  0  0  0  0  0  0  0  0  0  0
    0.3390   -7.4078    1.8638 C   0  0  0  0  0  0  0  0  0  0  0  0
   -1.0177   -7.6250    2.1098 N   0  0  0  0  0  0  0  0  0  0  0  0
   -1.2850   -8.7965    2.6219 N   0  0  0  0  0  0  0  0  0  0  0  0
    0.1058   -9.7156    2.8814 S   0  0  0  0  0  0  0  0  0  0  0  0
    1.1718   -8.4864    2.2482 C   0  0  0  0  0  0  0  0  0  0  0  0
    2.5610   -8.4124    2.0729 C   0  0  0  0  0  0  0  0  0  0  0  0
    4.1359   -7.1006    1.3609 H   0  0  0  0  0  0  0  0  0  0  0  0
    2.5320   -5.2795    0.7508 H   0  0  0  0  0  0  0  0  0  0  0  0
    3.2049   -9.2358    2.3485 H   0  0  0  0  0  0  0  0  0  0  0  0
  1  9  2  0
  1  2  1  0
  1 10  1  0
  2  3  2  0
  2 11  1  0
  3  4  1  0
  4  8  2  0
  4  5  1  0
  5  6  2  0
  6  7  1  0
  7  8  1  0
  8  9  1  0
  9 12  1  0
M  END
>  <i_m_ct_stereo_status>  (298) 
1

>  <s_m_source_file>  (298) 
/var/tmp/pbs.5076255.sched01/tmpk9_hntje/1089a46f3po.sdf

>  <i_m_source_file_index>  (298) 
40

>  <i_lp_mmshare_version>  (298) 
48012

>  <i_f3d_flags>  (298) 
0

>  <s_epik_input>  (298) 
bjFbY0hdW2NIXVtjSF1jKGMxMilzbm4y

>  <s_epik_cmdline>  (298) 
J2VwaWtfcHl0aG9uJywgJy1waHQnLCAnMi4wJywgJy1waCcsICc3LjAnLCAnLXRuJywgJzgnLCAnLW1hJywgJzIwMCcsICctaW1hZScsICc8aW5maWxlLm1hZT4nLCAnLW9tYWUnLCAnPG91dGZpbGUubWFlPic=

>  <r_lp_tautomer_probability>  (298) 
1

>  <r_epik_Ionization_Penalty>  (298) 
3.26908e-09

>  <r_epik_Ionization_Penalty_Charging>  (298) 
0

>  <r_epik_Ionization_Penalty_Neutral>  (298) 
3.26908e-09

>  <r_epik_State_Penalty>  (298) 
-0

>  <r_epik_Charging_Adjusted_Penalty>  (298) 
0

>  <i_epik_Tot_Q>  (298) 
0

>  <i_epik_Tot_abs_Q>  (298) 
0

>  <s_lp_Force_Field>  (298) 
OPLS3e

>  <r_lp_Energy>  (298) 
11.6204

>  <b_lp_Chiralities_Consistent>  (298) 
1

>  <s_lp_Variant>  (298) 
79:0-1

>  <s_i_glide_gridfile>  (298) 
pfpi4k_grid

>  <i_i_glide_lignum>  (298) 
40

>  <i_i_glide_rotatable_bonds>  (298) 
0

>  <r_i_docking_score>  (298) 
-3.97611

>  <r_i_glide_ligand_efficiency>  (298) 
-0.44179

>  <r_i_glide_ligand_efficiency_sa>  (298) 
-0.91896

>  <r_i_glide_ligand_efficiency_ln>  (298) 
-1.24361

>  <r_i_glide_gscore>  (298) 
-3.97611

>  <r_i_glide_lipo>  (298) 
-0.0557672

>  <r_i_glide_hbond>  (298) 
-0.16

>  <r_i_glide_metal>  (298) 
-0

>  <r_i_glide_rewards>  (298) 
-2.25

>  <r_i_glide_evdw>  (298) 
-15.359

>  <r_i_glide_ecoul>  (298) 
-3.96078

>  <r_i_glide_erotb>  (298) 
0

>  <r_i_glide_esite>  (298) 
-0.148271

>  <r_i_glide_emodel>  (298) 
-25.0383

>  <r_i_glide_energy>  (298) 
-19.3198

>  <r_i_glide_einternal>  (298) 
0

>  <r_i_glide_intrahb_reward>  (298) 
-0

>  <i_i_glide_confnum>  (298) 
1

>  <i_i_glide_posenum>  (298) 
25

>  <r_i_glide_eff_state_penalty>  (298) 
0

>  <ligand_id>  (298) 
79

>  <original_smiles>  (298) 
c1cnc2nnsc2c1

>  <smiles>  (298) 
[H]c1nc2nnsc2c([H])c1[H]

$$$$
79:0:1
     RDKit          3D

 12 13  0  0  1  0  0  0  0  0999 V2000
    2.1551  -10.6589    2.8885 C   0  0  0  0  0  0  0  0  0  0  0  0
    2.7998   -9.6756    2.1096 C   0  0  0  0  0  0  0  0  0  0  0  0
    2.2349   -8.5011    1.7299 N   0  0  0  0  0  0  0  0  0  0  0  0
    0.9717   -8.2839    2.1195 C   0  0  0  0  0  0  0  0  0  0  0  0
    0.2454   -7.1225    1.8099 N   0  0  0  0  0  0  0  0  0  0  0  0
   -0.9655   -7.1145    2.3026 N   0  0  0  0  0  0  0  0  0  0  0  0
   -1.3284   -8.5204    3.1565 S   0  0  0  0  0  0  0  0  0  0  0  0
    0.2431   -9.2207    2.8984 C   0  0  0  0  0  0  0  0  0  0  0  0
    0.8302  -10.4298    3.2956 C   0  0  0  0  0  0  0  0  0  0  0  0
    2.6601  -11.5768    3.1538 H   0  0  0  0  0  0  0  0  0  0  0  0
    3.8171   -9.8392    1.7857 H   0  0  0  0  0  0  0  0  0  0  0  0
    0.2834  -11.1492    3.8883 H   0  0  0  0  0  0  0  0  0  0  0  0
  1  9  2  0
  1  2  1  0
  1 10  1  0
  2  3  2  0
  2 11  1  0
  3  4  1  0
  4  8  2  0
  4  5  1  0
  5  6  2  0
  6  7  1  0
  7  8  1  0
  8  9  1  0
  9 12  1  0
M  END
>  <i_m_ct_stereo_status>  (299) 
1

>  <s_m_source_file>  (299) 
/var/tmp/pbs.5076255.sched01/tmpk9_hntje/1089a46f3po.sdf

>  <i_m_source_file_index>  (299) 
40

>  <i_lp_mmshare_version>  (299) 
48012

>  <i_f3d_flags>  (299) 
0

>  <s_epik_input>  (299) 
bjFbY0hdW2NIXVtjSF1jKGMxMilzbm4y

>  <s_epik_cmdline>  (299) 
J2VwaWtfcHl0aG9uJywgJy1waHQnLCAnMi4wJywgJy1waCcsICc3LjAnLCAnLXRuJywgJzgnLCAnLW1hJywgJzIwMCcsICctaW1hZScsICc8aW5maWxlLm1hZT4nLCAnLW9tYWUnLCAnPG91dGZpbGUubWFlPic=

>  <r_lp_tautomer_probability>  (299) 
1

>  <r_epik_Ionization_Penalty>  (299) 
3.26908e-09

>  <r_epik_Ionization_Penalty_Charging>  (299) 
0

>  <r_epik_Ionization_Penalty_Neutral>  (299) 
3.26908e-09

>  <r_epik_State_Penalty>  (299) 
-0

>  <r_epik_Charging_Adjusted_Penalty>  (299) 
0

>  <i_epik_Tot_Q>  (299) 
0

>  <i_epik_Tot_abs_Q>  (299) 
0

>  <s_lp_Force_Field>  (299) 
OPLS3e

>  <r_lp_Energy>  (299) 
11.6204

>  <b_lp_Chiralities_Consistent>  (299) 
1

>  <s_lp_Variant>  (299) 
79:0-1

>  <s_i_glide_gridfile>  (299) 
pfpi4k_grid

>  <i_i_glide_lignum>  (299) 
40

>  <i_i_glide_rotatable_bonds>  (299) 
0

>  <r_i_docking_score>  (299) 
-3.89517

>  <r_i_glide_ligand_efficiency>  (299) 
-0.432797

>  <r_i_glide_ligand_efficiency_sa>  (299) 
-0.900254

>  <r_i_glide_ligand_efficiency_ln>  (299) 
-1.2183

>  <r_i_glide_gscore>  (299) 
-3.89517

>  <r_i_glide_lipo>  (299) 
-0.137407

>  <r_i_glide_hbond>  (299) 
0

>  <r_i_glide_metal>  (299) 
-0

>  <r_i_glide_rewards>  (299) 
-2.25

>  <r_i_glide_evdw>  (299) 
-16.7215

>  <r_i_glide_ecoul>  (299) 
-2.97443

>  <r_i_glide_erotb>  (299) 
0

>  <r_i_glide_esite>  (299) 
-0.225528

>  <r_i_glide_emodel>  (299) 
-25.2984

>  <r_i_glide_energy>  (299) 
-19.6959

>  <r_i_glide_einternal>  (299) 
0

>  <r_i_glide_intrahb_reward>  (299) 
-0

>  <i_i_glide_confnum>  (299) 
1

>  <i_i_glide_posenum>  (299) 
12

>  <r_i_glide_eff_state_penalty>  (299) 
0

>  <ligand_id>  (299) 
79

>  <original_smiles>  (299) 
c1cnc2nnsc2c1

>  <smiles>  (299) 
[H]c1nc2nnsc2c([H])c1[H]

$$$$
79:0:2
     RDKit          3D

 12 13  0  0  1  0  0  0  0  0999 V2000
    1.4962  -10.7743    4.6788 C   0  0  0  0  0  0  0  0  0  0  0  0
    1.5005   -9.7841    5.6835 C   0  0  0  0  0  0  0  0  0  0  0  0
    0.7291   -8.6655    5.6684 N   0  0  0  0  0  0  0  0  0  0  0  0
   -0.1034   -8.5178    4.6292 C   0  0  0  0  0  0  0  0  0  0  0  0
   -0.9644   -7.4202    4.4659 N   0  0  0  0  0  0  0  0  0  0  0  0
   -1.6876   -7.4750    3.3797 N   0  0  0  0  0  0  0  0  0  0  0  0
   -1.3873   -8.8668    2.4801 S   0  0  0  0  0  0  0  0  0  0  0  0
   -0.1759   -9.4634    3.5748 C   0  0  0  0  0  0  0  0  0  0  0  0
    0.6265  -10.6143    3.5887 C   0  0  0  0  0  0  0  0  0  0  0  0
    2.1328  -11.6449    4.7569 H   0  0  0  0  0  0  0  0  0  0  0  0
    2.1653   -9.8882    6.5290 H   0  0  0  0  0  0  0  0  0  0  0  0
    0.5679  -11.3486    2.7979 H   0  0  0  0  0  0  0  0  0  0  0  0
  1  9  2  0
  1  2  1  0
  1 10  1  0
  2  3  2  0
  2 11  1  0
  3  4  1  0
  4  8  2  0
  4  5  1  0
  5  6  2  0
  6  7  1  0
  7  8  1  0
  8  9  1  0
  9 12  1  0
M  END
>  <i_m_ct_stereo_status>  (300) 
1

>  <s_m_source_file>  (300) 
/var/tmp/pbs.5076255.sched01/tmpk9_hntje/1089a46f3po.sdf

>  <i_m_source_file_index>  (300) 
40

>  <i_lp_mmshare_version>  (300) 
48012

>  <i_f3d_flags>  (300) 
0

>  <s_epik_input>  (300) 
bjFbY0hdW2NIXVtjSF1jKGMxMilzbm4y

>  <s_epik_cmdline>  (300) 
J2VwaWtfcHl0aG9uJywgJy1waHQnLCAnMi4wJywgJy1waCcsICc3LjAnLCAnLXRuJywgJzgnLCAnLW1hJywgJzIwMCcsICctaW1hZScsICc8aW5maWxlLm1hZT4nLCAnLW9tYWUnLCAnPG91dGZpbGUubWFlPic=

>  <r_lp_tautomer_probability>  (300) 
1

>  <r_epik_Ionization_Penalty>  (300) 
3.26908e-09

>  <r_epik_Ionization_Penalty_Charging>  (300) 
0

>  <r_epik_Ionization_Penalty_Neutral>  (300) 
3.26908e-09

>  <r_epik_State_Penalty>  (300) 
-0

>  <r_epik_Charging_Adjusted_Penalty>  (300) 
0

>  <i_epik_Tot_Q>  (300) 
0

>  <i_epik_Tot_abs_Q>  (300) 
0

>  <s_lp_Force_Field>  (300) 
OPLS3e

>  <r_lp_Energy>  (300) 
11.6204

>  <b_lp_Chiralities_Consistent>  (300) 
1

>  <s_lp_Variant>  (300) 
79:0-1

>  <s_i_glide_gridfile>  (300) 
pfpi4k_grid

>  <i_i_glide_lignum>  (300) 
40

>  <i_i_glide_rotatable_bonds>  (300) 
0

>  <r_i_docking_score>  (300) 
-3.7417

>  <r_i_glide_ligand_efficiency>  (300) 
-0.415744

>  <r_i_glide_ligand_efficiency_sa>  (300) 
-0.864783

>  <r_i_glide_ligand_efficiency_ln>  (300) 
-1.1703

>  <r_i_glide_gscore>  (300) 
-3.7417

>  <r_i_glide_lipo>  (300) 
-0.129629

>  <r_i_glide_hbond>  (300) 
0

>  <r_i_glide_metal>  (300) 
-0

>  <r_i_glide_rewards>  (300) 
-2.25

>  <r_i_glide_evdw>  (300) 
-17.1039

>  <r_i_glide_ecoul>  (300) 
-2.19109

>  <r_i_glide_erotb>  (300) 
0

>  <r_i_glide_esite>  (300) 
-0.178208

>  <r_i_glide_emodel>  (300) 
-24.6757

>  <r_i_glide_energy>  (300) 
-19.295

>  <r_i_glide_einternal>  (300) 
0

>  <r_i_glide_intrahb_reward>  (300) 
-0

>  <i_i_glide_confnum>  (300) 
1

>  <i_i_glide_posenum>  (300) 
13

>  <r_i_glide_eff_state_penalty>  (300) 
0

>  <ligand_id>  (300) 
79

>  <original_smiles>  (300) 
c1cnc2nnsc2c1

>  <smiles>  (300) 
[H]c1nc2nnsc2c([H])c1[H]

$$$$
80:0:0
     RDKit          3D

 86 92  0  0  1  0  0  0  0  0999 V2000
    4.2279   -0.8308   -2.4829 C   0  0  0  0  0  0  0  0  0  0  0  0
    4.4158   -2.1523   -2.3180 C   0  0  0  0  0  0  0  0  0  0  0  0
    3.8642   -3.1235   -3.3456 C   0  0  0  0  0  0  0  0  0  0  0  0
    5.2061   -2.7572   -1.1445 C   0  0  2  0  0  0  0  0  0  0  0  0
    4.8892   -4.2252   -0.7969 C   0  0  0  0  0  0  0  0  0  0  0  0
    5.4203   -4.4355    0.6244 C   0  0  1  0  0  0  0  0  0  0  0  0
    6.8014   -4.7392    0.5411 O   0  0  0  0  0  0  0  0  0  0  0  0
    5.2445   -3.0744    1.3349 C   0  0  1  0  0  0  0  0  0  0  0  0
    5.2009   -1.9979    0.2169 C   0  0  2  0  0  0  0  0  0  0  0  0
    4.0037   -1.0732    0.5823 C   0  0  0  0  0  0  0  0  0  0  0  0
    3.7903   -1.2720    2.0897 C   0  0  1  0  0  0  0  0  0  0  0  0
    4.9591   -0.4939    2.7908 C   0  0  0  0  0  0  0  0  0  0  0  0
    2.3799   -0.8184    2.6359 C   0  0  2  0  0  0  0  0  0  0  0  0
    2.2267    0.7433    2.7910 C   0  0  1  0  0  0  0  0  0  0  0  0
    1.5123    1.3263    1.7194 O   0  0  0  0  0  0  0  0  0  0  0  0
    1.4968    0.9142    4.1146 C   0  0  1  0  0  0  0  0  0  0  0  0
    2.0894   -0.2208    4.9463 C   0  0  2  0  0  0  0  0  0  0  0  0
    1.9500   -1.4726    4.0306 C   0  0  1  0  0  0  0  0  0  0  0  0
    0.4631   -1.9462    4.0180 C   0  0  0  0  0  0  0  0  0  0  0  0
    2.7742   -2.7556    4.4622 C   0  0  0  0  0  0  0  0  0  0  0  0
    4.0600   -3.1424    3.6848 C   0  0  0  0  0  0  0  0  0  0  0  0
    3.9553   -2.8157    2.1857 C   0  0  2  0  0  0  0  0  0  0  0  0
    2.7557   -3.6133    1.5823 C   0  0  0  0  0  0  0  0  0  0  0  0
    1.6073   -0.0435    6.4169 C   0  0  1  0  0  0  0  0  0  0  0  0
    1.7337   -1.2222    7.1732 O   0  0  0  0  0  0  0  0  0  0  0  0
    2.4360    1.0046    6.9104 O   0  0  0  0  0  0  0  0  0  0  0  0
    2.5781    2.1301    5.8739 O   0  0  0  0  0  0  0  0  0  0  0  0
    1.4393    2.1906    5.0057 C   0  0  1  0  0  0  0  0  0  0  0  0
    1.5001    3.6167    4.3734 C   0  0  1  0  0  0  0  0  0  0  0  0
    2.4504    3.7437    3.3380 O   0  0  0  0  0  0  0  0  0  0  0  0
    0.1651    4.1540    3.8445 C   0  0  0  0  0  0  0  0  0  0  0  0
   -0.9427    4.0413    4.9010 C   0  0  0  0  0  0  0  0  0  0  0  0
   -1.1790    2.5858    5.3758 C   0  0  0  0  0  0  0  0  0  0  0  0
   -2.2432    2.6442    6.4984 C   0  0  0  0  0  0  0  0  0  0  0  0
   -1.7881    1.8028    4.1811 C   0  0  0  0  0  0  0  0  0  0  0  0
    0.1901    2.0367    5.9497 C   0  0  1  0  0  0  0  0  0  0  0  0
    0.2185    0.6253    6.6403 C   0  0  1  0  0  0  0  0  0  0  0  0
   -0.8388   -0.2487    6.2957 O   0  0  0  0  0  0  0  0  0  0  0  0
    3.6520   -0.4464   -3.3131 H   0  0  0  0  0  0  0  0  0  0  0  0
    4.6430   -0.1097   -1.7993 H   0  0  0  0  0  0  0  0  0  0  0  0
    3.1556   -3.8176   -2.8939 H   0  0  0  0  0  0  0  0  0  0  0  0
    4.6752   -3.6987   -3.7936 H   0  0  0  0  0  0  0  0  0  0  0  0
    3.3347   -2.6029   -4.1439 H   0  0  0  0  0  0  0  0  0  0  0  0
    6.2414   -2.7715   -1.4884 H   0  0  0  0  0  0  0  0  0  0  0  0
    3.8180   -4.4137   -0.8203 H   0  0  0  0  0  0  0  0  0  0  0  0
    5.3304   -4.9281   -1.5036 H   0  0  0  0  0  0  0  0  0  0  0  0
    4.9381   -5.2645    1.1403 H   0  0  0  0  0  0  0  0  0  0  0  0
    7.1226   -4.9123    1.4126 H   0  0  0  0  0  0  0  0  0  0  0  0
    6.1127   -2.9194    1.9775 H   0  0  0  0  0  0  0  0  0  0  0  0
    6.1151   -1.4062    0.2751 H   0  0  0  0  0  0  0  0  0  0  0  0
    4.2060   -0.0288    0.3519 H   0  0  0  0  0  0  0  0  0  0  0  0
    3.1034   -1.3409    0.0310 H   0  0  0  0  0  0  0  0  0  0  0  0
    4.8587   -0.4336    3.8688 H   0  0  0  0  0  0  0  0  0  0  0  0
    5.0407    0.5218    2.4163 H   0  0  0  0  0  0  0  0  0  0  0  0
    5.9445   -0.9106    2.6117 H   0  0  0  0  0  0  0  0  0  0  0  0
    1.6352   -1.1429    1.9053 H   0  0  0  0  0  0  0  0  0  0  0  0
    3.1680    1.2685    2.8832 H   0  0  0  0  0  0  0  0  0  0  0  0
    0.8156    0.7454    1.4498 H   0  0  0  0  0  0  0  0  0  0  0  0
    0.4743    0.6750    3.8889 H   0  0  0  0  0  0  0  0  0  0  0  0
    3.1641   -0.0744    5.0263 H   0  0  0  0  0  0  0  0  0  0  0  0
    0.1429   -2.2611    5.0120 H   0  0  0  0  0  0  0  0  0  0  0  0
    0.3010   -2.8100    3.3778 H   0  0  0  0  0  0  0  0  0  0  0  0
   -0.2496   -1.2105    3.6537 H   0  0  0  0  0  0  0  0  0  0  0  0
    3.0067   -2.7327    5.5254 H   0  0  0  0  0  0  0  0  0  0  0  0
    2.1307   -3.6311    4.3669 H   0  0  0  0  0  0  0  0  0  0  0  0
    4.9179   -2.6504    4.1412 H   0  0  0  0  0  0  0  0  0  0  0  0
    4.2631   -4.2065    3.8159 H   0  0  0  0  0  0  0  0  0  0  0  0
    1.8172   -3.4250    2.0825 H   0  0  0  0  0  0  0  0  0  0  0  0
    2.9048   -4.6894    1.6536 H   0  0  0  0  0  0  0  0  0  0  0  0
    2.5624   -3.3712    0.5418 H   0  0  0  0  0  0  0  0  0  0  0  0
    2.6387   -1.5010    7.1122 H   0  0  0  0  0  0  0  0  0  0  0  0
    1.8100    4.2972    5.1653 H   0  0  0  0  0  0  0  0  0  0  0  0
    2.0653    3.4217    2.5323 H   0  0  0  0  0  0  0  0  0  0  0  0
    0.2802    5.2023    3.5712 H   0  0  0  0  0  0  0  0  0  0  0  0
   -0.1174    3.6475    2.9232 H   0  0  0  0  0  0  0  0  0  0  0  0
   -0.6776    4.6623    5.7585 H   0  0  0  0  0  0  0  0  0  0  0  0
   -1.8712    4.4573    4.5030 H   0  0  0  0  0  0  0  0  0  0  0  0
   -2.5236    1.6506    6.8536 H   0  0  0  0  0  0  0  0  0  0  0  0
   -3.1605    3.1230    6.1473 H   0  0  0  0  0  0  0  0  0  0  0  0
   -1.8871    3.2146    7.3576 H   0  0  0  0  0  0  0  0  0  0  0  0
   -2.0085    0.7587    4.4030 H   0  0  0  0  0  0  0  0  0  0  0  0
   -1.1724    1.8214    3.2837 H   0  0  0  0  0  0  0  0  0  0  0  0
   -2.7432    2.2423    3.8801 H   0  0  0  0  0  0  0  0  0  0  0  0
    0.4119    2.7263    6.7682 H   0  0  0  0  0  0  0  0  0  0  0  0
    0.1051    0.7901    7.7126 H   0  0  0  0  0  0  0  0  0  0  0  0
   -0.7580   -0.4356    5.3722 H   0  0  0  0  0  0  0  0  0  0  0  0
  1  2  2  0
  1 39  1  0
  1 40  1  0
  2  3  1  0
  2  4  1  0
  3 41  1  0
  3 42  1  0
  3 43  1  0
  4  9  1  0
  4  5  1  0
  4 44  1  6
  5  6  1  0
  5 45  1  0
  5 46  1  0
  6  7  1  0
  6  8  1  0
  6 47  1  1
  7 48  1  0
  8 22  1  0
  8  9  1  0
  8 49  1  1
  9 10  1  0
  9 50  1  6
 10 11  1  0
 10 51  1  0
 10 52  1  0
 11 22  1  0
 11 12  1  1
 11 13  1  0
 12 53  1  0
 12 54  1  0
 12 55  1  0
 13 18  1  0
 13 14  1  0
 13 56  1  6
 14 15  1  0
 14 16  1  0
 14 57  1  1
 15 58  1  0
 16 28  1  0
 16 17  1  0
 16 59  1  6
 17 18  1  0
 17 24  1  0
 17 60  1  1
 18 19  1  6
 18 20  1  0
 19 61  1  0
 19 62  1  0
 19 63  1  0
 20 21  1  0
 20 64  1  0
 20 65  1  0
 21 22  1  0
 21 66  1  0
 21 67  1  0
 22 23  1  6
 23 68  1  0
 23 69  1  0
 23 70  1  0
 24 37  1  0
 24 25  1  1
 24 26  1  0
 25 71  1  0
 26 27  1  0
 28 27  1  1
 28 36  1  0
 28 29  1  0
 29 30  1  0
 29 31  1  0
 29 72  1  1
 30 73  1  0
 31 32  1  0
 31 74  1  0
 31 75  1  0
 32 33  1  0
 32 76  1  0
 32 77  1  0
 33 34  1  0
 33 35  1  0
 33 36  1  0
 34 78  1  0
 34 79  1  0
 34 80  1  0
 35 81  1  0
 35 82  1  0
 35 83  1  0
 36 37  1  0
 36 84  1  1
 37 38  1  0
 37 85  1  1
 38 86  1  0
M  END
>  <i_m_ct_stereo_status>  (301) 
1

>  <s_m_source_file>  (301) 
/var/tmp/pbs.5076255.sched01/tmpk9_hntje/1089a46f3po.sdf

>  <i_m_source_file_index>  (301) 
41

>  <i_lp_mmshare_version>  (301) 
48012

>  <i_f3d_flags>  (301) 
0

>  <s_epik_input>  (301) 
W09IXVtDQEBIXTFbQ0gyXVtDQEBIXShDKD1bQ0gyXSlbQ0gzXSlbQ0BASF0oW0NIMl0yKVtDQEhdMVtDQEBdKFtDSDNdKShbQ0gyXVtDSDJdMylbQ0BdMihbQ0gzXSlbQ0BIXShbQ0BIXTRbT0hdKVtDQF0zKFtDSDNdKVtDQEBIXShbQ0BIXTRbQ0BAXTU2NylbQ0BAXShbT0hdKShPTzUpW0NASF0oW09IXSlbQ0BASF03QyhbQ0gzXSkoW0NIM10pW0NIMl1bQ0gyXVtDQEBIXTZbT0hd

>  <s_epik_cmdline>  (301) 
J2VwaWtfcHl0aG9uJywgJy1waHQnLCAnMi4wJywgJy1waCcsICc3LjAnLCAnLXRuJywgJzgnLCAnLW1hJywgJzIwMCcsICctaW1hZScsICc8aW5maWxlLm1hZT4nLCAnLW9tYWUnLCAnPG91dGZpbGUubWFlPic=

>  <r_lp_tautomer_probability>  (301) 
1

>  <r_epik_Ionization_Penalty>  (301) 
8.34769e-06

>  <r_epik_Ionization_Penalty_Charging>  (301) 
0

>  <r_epik_Ionization_Penalty_Neutral>  (301) 
8.34769e-06

>  <r_epik_State_Penalty>  (301) 
-0

>  <r_epik_Charging_Adjusted_Penalty>  (301) 
0

>  <i_epik_Tot_Q>  (301) 
0

>  <i_epik_Tot_abs_Q>  (301) 
0

>  <s_lp_Force_Field>  (301) 
OPLS3e

>  <r_lp_Energy>  (301) 
117.133

>  <b_lp_Chiralities_Consistent>  (301) 
1

>  <s_lp_Variant>  (301) 
80:0-1

>  <s_i_glide_gridfile>  (301) 
pfpi4k_grid

>  <i_i_glide_lignum>  (301) 
41

>  <i_i_glide_rotatable_bonds>  (301) 
6

>  <r_i_docking_score>  (301) 
-3.21514

>  <r_i_glide_ligand_efficiency>  (301) 
-0.0846089

>  <r_i_glide_ligand_efficiency_sa>  (301) 
-0.284453

>  <r_i_glide_ligand_efficiency_ln>  (301) 
-0.693278

>  <r_i_glide_gscore>  (301) 
-3.21514

>  <r_i_glide_lipo>  (301) 
-0.580318

>  <r_i_glide_hbond>  (301) 
0

>  <r_i_glide_metal>  (301) 
-0

>  <r_i_glide_rewards>  (301) 
0

>  <r_i_glide_evdw>  (301) 
-38.4256

>  <r_i_glide_ecoul>  (301) 
-5.24119

>  <r_i_glide_erotb>  (301) 
0.0726897

>  <r_i_glide_esite>  (301) 
-4.85107e-05

>  <r_i_glide_emodel>  (301) 
-49.9663

>  <r_i_glide_energy>  (301) 
-43.6668

>  <r_i_glide_einternal>  (301) 
4.08674

>  <r_i_glide_intrahb_reward>  (301) 
-0

>  <i_i_glide_confnum>  (301) 
2

>  <i_i_glide_posenum>  (301) 
1

>  <r_i_glide_eff_state_penalty>  (301) 
0

>  <ligand_id>  (301) 
80

>  <original_smiles>  (301) 
C=C(C)C1CC(O)C2C1CC1(C)C3C(O)C4C(C3(C)CCC21C)C1(O)OOC42C(O)CCC(C)(C)C2C1O

>  <smiles>  (301) 
[H]OC1([H])C2(O[H])OOC3(C([H])(O[H])C([H])([H])C([H])([H])C(C([H])([H])[H])(C([H])([H])[H])C13[H])C1([H])C([H])(O[H])C3([H])C(C([H])([H])[H])(C([H])([H])C([H])([H])C4(C([H])([H])[H])C5([H])C([H])(O[H])C([H])([H])C([H])(C(=C([H])[H])C([H])([H])[H])C5([H])C([H])([H])C34C([H])([H])[H])C21[H]

$$$$
80:0:1
     RDKit          3D

 86 92  0  0  1  0  0  0  0  0999 V2000
    4.3125   -0.7857   -2.4693 C   0  0  0  0  0  0  0  0  0  0  0  0
    4.5157   -2.1072   -2.3194 C   0  0  0  0  0  0  0  0  0  0  0  0
    4.0050   -3.0706   -3.3767 C   0  0  0  0  0  0  0  0  0  0  0  0
    5.2808   -2.7246   -1.1356 C   0  0  2  0  0  0  0  0  0  0  0  0
    4.9498   -4.1941   -0.8070 C   0  0  0  0  0  0  0  0  0  0  0  0
    5.4562   -4.4226    0.6230 C   0  0  1  0  0  0  0  0  0  0  0  0
    6.8361   -4.7311    0.5599 O   0  0  0  0  0  0  0  0  0  0  0  0
    5.2744   -3.0664    1.3409 C   0  0  1  0  0  0  0  0  0  0  0  0
    5.2596   -1.9784    0.2332 C   0  0  2  0  0  0  0  0  0  0  0  0
    4.0626   -1.0507    0.5891 C   0  0  0  0  0  0  0  0  0  0  0  0
    3.8215   -1.2633    2.0893 C   0  0  1  0  0  0  0  0  0  0  0  0
    4.9825   -0.4992    2.8191 C   0  0  0  0  0  0  0  0  0  0  0  0
    2.4038   -0.8069    2.6152 C   0  0  2  0  0  0  0  0  0  0  0  0
    2.2594    0.7509    2.7824 C   0  0  1  0  0  0  0  0  0  0  0  0
    1.5651    1.3409    1.6998 O   0  0  0  0  0  0  0  0  0  0  0  0
    1.5053    0.9163    4.0926 C   0  0  1  0  0  0  0  0  0  0  0  0
    2.0760   -0.2295    4.9245 C   0  0  2  0  0  0  0  0  0  0  0  0
    1.9480   -1.4716    3.9955 C   0  0  1  0  0  0  0  0  0  0  0  0
    0.4594   -1.9354    3.9512 C   0  0  0  0  0  0  0  0  0  0  0  0
    2.7559   -2.7636    4.4304 C   0  0  0  0  0  0  0  0  0  0  0  0
    4.0521   -3.1508    3.6702 C   0  0  0  0  0  0  0  0  0  0  0  0
    3.9727   -2.8078    2.1730 C   0  0  2  0  0  0  0  0  0  0  0  0
    2.7801   -3.5926    1.5403 C   0  0  0  0  0  0  0  0  0  0  0  0
    1.5685   -0.0625    6.3878 C   0  0  1  0  0  0  0  0  0  0  0  0
    1.6777   -1.2489    7.1360 O   0  0  0  0  0  0  0  0  0  0  0  0
    2.3955    0.9767    6.9061 O   0  0  0  0  0  0  0  0  0  0  0  0
    2.5622    2.1096    5.8824 O   0  0  0  0  0  0  0  0  0  0  0  0
    1.4371    2.1867    4.9955 C   0  0  1  0  0  0  0  0  0  0  0  0
    1.5186    3.6166    4.3759 C   0  0  1  0  0  0  0  0  0  0  0  0
    2.4869    3.7442    3.3584 O   0  0  0  0  0  0  0  0  0  0  0  0
    0.1970    4.1670    3.8311 C   0  0  0  0  0  0  0  0  0  0  0  0
   -0.9307    4.0492    4.8668 C   0  0  0  0  0  0  0  0  0  0  0  0
   -1.1868    2.5918    5.3224 C   0  0  0  0  0  0  0  0  0  0  0  0
   -2.2679    2.6462    6.4275 C   0  0  0  0  0  0  0  0  0  0  0  0
   -1.7875    1.8263    4.1084 C   0  0  0  0  0  0  0  0  0  0  0  0
    0.1703    2.0300    5.9149 C   0  0  1  0  0  0  0  0  0  0  0  0
    0.1802    0.6117    6.5919 C   0  0  1  0  0  0  0  0  0  0  0  0
   -0.8746   -0.2541    6.2191 O   0  0  0  0  0  0  0  0  0  0  0  0
    3.7545   -0.3969   -3.3110 H   0  0  0  0  0  0  0  0  0  0  0  0
    4.6998   -0.0696   -1.7641 H   0  0  0  0  0  0  0  0  0  0  0  0
    3.2903   -3.7774   -2.9572 H   0  0  0  0  0  0  0  0  0  0  0  0
    4.8336   -3.6296   -3.8099 H   0  0  0  0  0  0  0  0  0  0  0  0
    3.4948   -2.5404   -4.1817 H   0  0  0  0  0  0  0  0  0  0  0  0
    6.3202   -2.7413   -1.4666 H   0  0  0  0  0  0  0  0  0  0  0  0
    3.8762   -4.3756   -0.8540 H   0  0  0  0  0  0  0  0  0  0  0  0
    5.3958   -4.8948   -1.5130 H   0  0  0  0  0  0  0  0  0  0  0  0
    4.9616   -5.2537    1.1249 H   0  0  0  0  0  0  0  0  0  0  0  0
    7.2819   -4.0226    0.1220 H   0  0  0  0  0  0  0  0  0  0  0  0
    6.1313   -2.9269    2.0028 H   0  0  0  0  0  0  0  0  0  0  0  0
    6.1756   -1.3924    0.3131 H   0  0  0  0  0  0  0  0  0  0  0  0
    4.2742   -0.0042    0.3760 H   0  0  0  0  0  0  0  0  0  0  0  0
    3.1684   -1.3057    0.0216 H   0  0  0  0  0  0  0  0  0  0  0  0
    4.8647   -0.4480    3.8964 H   0  0  0  0  0  0  0  0  0  0  0  0
    5.0767    0.5197    2.4572 H   0  0  0  0  0  0  0  0  0  0  0  0
    5.9673   -0.9200    2.6526 H   0  0  0  0  0  0  0  0  0  0  0  0
    1.6705   -1.1203    1.8683 H   0  0  0  0  0  0  0  0  0  0  0  0
    3.1990    1.2715    2.8942 H   0  0  0  0  0  0  0  0  0  0  0  0
    0.8485    0.7831    1.4369 H   0  0  0  0  0  0  0  0  0  0  0  0
    0.4834    0.6865    3.8479 H   0  0  0  0  0  0  0  0  0  0  0  0
    3.1505   -0.0903    5.0249 H   0  0  0  0  0  0  0  0  0  0  0  0
    0.1176   -2.2591    4.9355 H   0  0  0  0  0  0  0  0  0  0  0  0
    0.3025   -2.7921    3.2987 H   0  0  0  0  0  0  0  0  0  0  0  0
   -0.2404   -1.1911    3.5797 H   0  0  0  0  0  0  0  0  0  0  0  0
    2.9682   -2.7532    5.4972 H   0  0  0  0  0  0  0  0  0  0  0  0
    2.1067   -3.6352    4.3129 H   0  0  0  0  0  0  0  0  0  0  0  0
    4.9041   -2.6688    4.1461 H   0  0  0  0  0  0  0  0  0  0  0  0
    4.2473   -4.2173    3.7937 H   0  0  0  0  0  0  0  0  0  0  0  0
    1.8336   -3.4048    2.0269 H   0  0  0  0  0  0  0  0  0  0  0  0
    2.9234   -4.6709    1.6049 H   0  0  0  0  0  0  0  0  0  0  0  0
    2.6072   -3.3399    0.4999 H   0  0  0  0  0  0  0  0  0  0  0  0
    2.5811   -1.5322    7.0881 H   0  0  0  0  0  0  0  0  0  0  0  0
    1.8194    4.2870    5.1799 H   0  0  0  0  0  0  0  0  0  0  0  0
    2.1318    3.3796    2.5564 H   0  0  0  0  0  0  0  0  0  0  0  0
    0.3227    5.2184    3.5701 H   0  0  0  0  0  0  0  0  0  0  0  0
   -0.0733    3.6730    2.9003 H   0  0  0  0  0  0  0  0  0  0  0  0
   -0.6768    4.6619    5.7343 H   0  0  0  0  0  0  0  0  0  0  0  0
   -1.8490    4.4772    4.4568 H   0  0  0  0  0  0  0  0  0  0  0  0
   -2.5593    1.6509    6.7656 H   0  0  0  0  0  0  0  0  0  0  0  0
   -3.1758    3.1330    6.0646 H   0  0  0  0  0  0  0  0  0  0  0  0
   -1.9235    3.2058    7.2977 H   0  0  0  0  0  0  0  0  0  0  0  0
   -2.0105    0.7799    4.3160 H   0  0  0  0  0  0  0  0  0  0  0  0
   -1.1485    1.8482    3.2254 H   0  0  0  0  0  0  0  0  0  0  0  0
   -2.7314    2.2763    3.7916 H   0  0  0  0  0  0  0  0  0  0  0  0
    0.3835    2.7099    6.7433 H   0  0  0  0  0  0  0  0  0  0  0  0
    0.0470    0.7666    7.6637 H   0  0  0  0  0  0  0  0  0  0  0  0
   -0.7798   -0.4283    5.2950 H   0  0  0  0  0  0  0  0  0  0  0  0
  1  2  2  0
  1 39  1  0
  1 40  1  0
  2  3  1  0
  2  4  1  0
  3 41  1  0
  3 42  1  0
  3 43  1  0
  4  9  1  0
  4  5  1  0
  4 44  1  6
  5  6  1  0
  5 45  1  0
  5 46  1  0
  6  7  1  0
  6  8  1  0
  6 47  1  1
  7 48  1  0
  8 22  1  0
  8  9  1  0
  8 49  1  1
  9 10  1  0
  9 50  1  1
 10 11  1  0
 10 51  1  0
 10 52  1  0
 11 22  1  0
 11 12  1  1
 11 13  1  0
 12 53  1  0
 12 54  1  0
 12 55  1  0
 13 18  1  0
 13 14  1  0
 13 56  1  6
 14 15  1  0
 14 16  1  0
 14 57  1  1
 15 58  1  0
 16 28  1  0
 16 17  1  0
 16 59  1  6
 17 18  1  0
 17 24  1  0
 17 60  1  1
 18 19  1  6
 18 20  1  0
 19 61  1  0
 19 62  1  0
 19 63  1  0
 20 21  1  0
 20 64  1  0
 20 65  1  0
 21 22  1  0
 21 66  1  0
 21 67  1  0
 22 23  1  6
 23 68  1  0
 23 69  1  0
 23 70  1  0
 24 37  1  0
 24 25  1  1
 24 26  1  0
 25 71  1  0
 26 27  1  0
 28 27  1  1
 28 36  1  0
 28 29  1  0
 29 30  1  0
 29 31  1  0
 29 72  1  1
 30 73  1  0
 31 32  1  0
 31 74  1  0
 31 75  1  0
 32 33  1  0
 32 76  1  0
 32 77  1  0
 33 34  1  0
 33 35  1  0
 33 36  1  0
 34 78  1  0
 34 79  1  0
 34 80  1  0
 35 81  1  0
 35 82  1  0
 35 83  1  0
 36 37  1  0
 36 84  1  1
 37 38  1  0
 37 85  1  1
 38 86  1  0
M  END
>  <i_m_ct_stereo_status>  (302) 
1

>  <s_m_source_file>  (302) 
/var/tmp/pbs.5076255.sched01/tmpk9_hntje/1089a46f3po.sdf

>  <i_m_source_file_index>  (302) 
41

>  <i_lp_mmshare_version>  (302) 
48012

>  <i_f3d_flags>  (302) 
0

>  <s_epik_input>  (302) 
W09IXVtDQEBIXTFbQ0gyXVtDQEBIXShDKD1bQ0gyXSlbQ0gzXSlbQ0BASF0oW0NIMl0yKVtDQEhdMVtDQEBdKFtDSDNdKShbQ0gyXVtDSDJdMylbQ0BdMihbQ0gzXSlbQ0BIXShbQ0BIXTRbT0hdKVtDQF0zKFtDSDNdKVtDQEBIXShbQ0BIXTRbQ0BAXTU2NylbQ0BAXShbT0hdKShPTzUpW0NASF0oW09IXSlbQ0BASF03QyhbQ0gzXSkoW0NIM10pW0NIMl1bQ0gyXVtDQEBIXTZbT0hd

>  <s_epik_cmdline>  (302) 
J2VwaWtfcHl0aG9uJywgJy1waHQnLCAnMi4wJywgJy1waCcsICc3LjAnLCAnLXRuJywgJzgnLCAnLW1hJywgJzIwMCcsICctaW1hZScsICc8aW5maWxlLm1hZT4nLCAnLW9tYWUnLCAnPG91dGZpbGUubWFlPic=

>  <r_lp_tautomer_probability>  (302) 
1

>  <r_epik_Ionization_Penalty>  (302) 
8.34769e-06

>  <r_epik_Ionization_Penalty_Charging>  (302) 
0

>  <r_epik_Ionization_Penalty_Neutral>  (302) 
8.34769e-06

>  <r_epik_State_Penalty>  (302) 
-0

>  <r_epik_Charging_Adjusted_Penalty>  (302) 
0

>  <i_epik_Tot_Q>  (302) 
0

>  <i_epik_Tot_abs_Q>  (302) 
0

>  <s_lp_Force_Field>  (302) 
OPLS3e

>  <r_lp_Energy>  (302) 
117.133

>  <b_lp_Chiralities_Consistent>  (302) 
1

>  <s_lp_Variant>  (302) 
80:0-1

>  <s_i_glide_gridfile>  (302) 
pfpi4k_grid

>  <i_i_glide_lignum>  (302) 
41

>  <i_i_glide_rotatable_bonds>  (302) 
6

>  <r_i_docking_score>  (302) 
-3.18164

>  <r_i_glide_ligand_efficiency>  (302) 
-0.0837273

>  <r_i_glide_ligand_efficiency_sa>  (302) 
-0.281489

>  <r_i_glide_ligand_efficiency_ln>  (302) 
-0.686055

>  <r_i_glide_gscore>  (302) 
-3.18164

>  <r_i_glide_lipo>  (302) 
-0.599009

>  <r_i_glide_hbond>  (302) 
0

>  <r_i_glide_metal>  (302) 
-0

>  <r_i_glide_rewards>  (302) 
0

>  <r_i_glide_evdw>  (302) 
-38.4928

>  <r_i_glide_ecoul>  (302) 
-4.87112

>  <r_i_glide_erotb>  (302) 
0.0726897

>  <r_i_glide_esite>  (302) 
-1.17307e-05

>  <r_i_glide_emodel>  (302) 
-49.8965

>  <r_i_glide_energy>  (302) 
-43.3639

>  <r_i_glide_einternal>  (302) 
3.59215

>  <r_i_glide_intrahb_reward>  (302) 
-0

>  <i_i_glide_confnum>  (302) 
3

>  <i_i_glide_posenum>  (302) 
20

>  <r_i_glide_eff_state_penalty>  (302) 
0

>  <ligand_id>  (302) 
80

>  <original_smiles>  (302) 
C=C(C)C1CC(O)C2C1CC1(C)C3C(O)C4C(C3(C)CCC21C)C1(O)OOC42C(O)CCC(C)(C)C2C1O

>  <smiles>  (302) 
[H]OC1([H])C2(O[H])OOC3(C([H])(O[H])C([H])([H])C([H])([H])C(C([H])([H])[H])(C([H])([H])[H])C13[H])C1([H])C([H])(O[H])C3([H])C(C([H])([H])[H])(C([H])([H])C([H])([H])C4(C([H])([H])[H])C5([H])C([H])(O[H])C([H])([H])C([H])(C(=C([H])[H])C([H])([H])[H])C5([H])C([H])([H])C34C([H])([H])[H])C21[H]

$$$$
80:0:2
     RDKit          3D

 86 92  0  0  1  0  0  0  0  0999 V2000
    4.2835   -0.8192   -2.4560 C   0  0  0  0  0  0  0  0  0  0  0  0
    4.4958   -2.1385   -2.3012 C   0  0  0  0  0  0  0  0  0  0  0  0
    3.9910   -3.1074   -3.3550 C   0  0  0  0  0  0  0  0  0  0  0  0
    5.2685   -2.7459   -1.1173 C   0  0  2  0  0  0  0  0  0  0  0  0
    4.9475   -4.2157   -0.7794 C   0  0  0  0  0  0  0  0  0  0  0  0
    5.4575   -4.4305    0.6506 C   0  0  1  0  0  0  0  0  0  0  0  0
    6.8392   -4.7341    0.5887 O   0  0  0  0  0  0  0  0  0  0  0  0
    5.2724   -3.0722    1.3615 C   0  0  1  0  0  0  0  0  0  0  0  0
    5.2448   -1.9913    0.2475 C   0  0  2  0  0  0  0  0  0  0  0  0
    4.0435   -1.0679    0.6020 C   0  0  0  0  0  0  0  0  0  0  0  0
    3.8104   -1.2717    2.1050 C   0  0  1  0  0  0  0  0  0  0  0  0
    4.9698   -0.4962    2.8240 C   0  0  0  0  0  0  0  0  0  0  0  0
    2.3927   -0.8187    2.6320 C   0  0  2  0  0  0  0  0  0  0  0  0
    2.2369    0.7423    2.7889 C   0  0  1  0  0  0  0  0  0  0  0  0
    1.5363    1.3291    1.7098 O   0  0  0  0  0  0  0  0  0  0  0  0
    1.4911    0.9098    4.1030 C   0  0  1  0  0  0  0  0  0  0  0  0
    2.0713   -0.2283    4.9399 C   0  0  2  0  0  0  0  0  0  0  0  0
    1.9448   -1.4772    4.0189 C   0  0  1  0  0  0  0  0  0  0  0  0
    0.4588   -1.9500    3.9843 C   0  0  0  0  0  0  0  0  0  0  0  0
    2.7624   -2.7617    4.4583 C   0  0  0  0  0  0  0  0  0  0  0  0
    4.0578   -3.1476    3.6964 C   0  0  0  0  0  0  0  0  0  0  0  0
    3.9727   -2.8159    2.1974 C   0  0  2  0  0  0  0  0  0  0  0  0
    2.7811   -3.6113    1.5744 C   0  0  0  0  0  0  0  0  0  0  0  0
    1.5685   -0.0542    6.4044 C   0  0  1  0  0  0  0  0  0  0  0  0
    1.6854   -1.2337    7.1613 O   0  0  0  0  0  0  0  0  0  0  0  0
    2.3909    0.9926    6.9120 O   0  0  0  0  0  0  0  0  0  0  0  0
    2.5484    2.1197    5.8807 O   0  0  0  0  0  0  0  0  0  0  0  0
    1.4211    2.1840    4.9969 C   0  0  1  0  0  0  0  0  0  0  0  0
    1.4899    3.6119    4.3696 C   0  0  1  0  0  0  0  0  0  0  0  0
    2.4535    3.7419    3.3472 O   0  0  0  0  0  0  0  0  0  0  0  0
    0.1620    4.1508    3.8241 C   0  0  0  0  0  0  0  0  0  0  0  0
   -0.9594    4.0350    4.8656 C   0  0  0  0  0  0  0  0  0  0  0  0
   -1.2012    2.5779    5.3330 C   0  0  0  0  0  0  0  0  0  0  0  0
   -2.2813    2.6329    6.4412 C   0  0  0  0  0  0  0  0  0  0  0  0
   -1.7908    1.7985    4.1263 C   0  0  0  0  0  0  0  0  0  0  0  0
    0.1594    2.0289    5.9247 C   0  0  1  0  0  0  0  0  0  0  0  0
    0.1783    0.6152    6.6108 C   0  0  1  0  0  0  0  0  0  0  0  0
   -0.8755   -0.2554    6.2491 O   0  0  0  0  0  0  0  0  0  0  0  0
    3.7197   -0.4378   -3.2965 H   0  0  0  0  0  0  0  0  0  0  0  0
    4.6669   -0.0969   -1.7551 H   0  0  0  0  0  0  0  0  0  0  0  0
    3.2873   -3.8241   -2.9324 H   0  0  0  0  0  0  0  0  0  0  0  0
    4.8257   -3.6565   -3.7924 H   0  0  0  0  0  0  0  0  0  0  0  0
    3.4708   -2.5850   -4.1586 H   0  0  0  0  0  0  0  0  0  0  0  0
    6.3087   -2.7588   -1.4458 H   0  0  0  0  0  0  0  0  0  0  0  0
    3.8764   -4.4021   -0.8214 H   0  0  0  0  0  0  0  0  0  0  0  0
    5.3942   -4.9139   -1.4868 H   0  0  0  0  0  0  0  0  0  0  0  0
    4.9684   -5.2602    1.1592 H   0  0  0  0  0  0  0  0  0  0  0  0
    6.9362   -5.5885    0.1983 H   0  0  0  0  0  0  0  0  0  0  0  0
    6.1336   -2.9239    2.0149 H   0  0  0  0  0  0  0  0  0  0  0  0
    6.1587   -1.4016    0.3210 H   0  0  0  0  0  0  0  0  0  0  0  0
    4.2482   -0.0218    0.3820 H   0  0  0  0  0  0  0  0  0  0  0  0
    3.1498   -1.3322    0.0394 H   0  0  0  0  0  0  0  0  0  0  0  0
    4.8555   -0.4386    3.9008 H   0  0  0  0  0  0  0  0  0  0  0  0
    5.0567    0.5205    2.4541 H   0  0  0  0  0  0  0  0  0  0  0  0
    5.9569   -0.9138    2.6559 H   0  0  0  0  0  0  0  0  0  0  0  0
    1.6581   -1.1412    1.8907 H   0  0  0  0  0  0  0  0  0  0  0  0
    3.1772    1.2667    2.8948 H   0  0  0  0  0  0  0  0  0  0  0  0
    0.8184    0.7680    1.4563 H   0  0  0  0  0  0  0  0  0  0  0  0
    0.4716    0.6706    3.8638 H   0  0  0  0  0  0  0  0  0  0  0  0
    3.1450   -0.0815    5.0345 H   0  0  0  0  0  0  0  0  0  0  0  0
    0.1240   -2.2676    4.9727 H   0  0  0  0  0  0  0  0  0  0  0  0
    0.3050   -2.8115    3.3390 H   0  0  0  0  0  0  0  0  0  0  0  0
   -0.2471   -1.2124    3.6114 H   0  0  0  0  0  0  0  0  0  0  0  0
    2.9803   -2.7414    5.5244 H   0  0  0  0  0  0  0  0  0  0  0  0
    2.1200   -3.6367    4.3507 H   0  0  0  0  0  0  0  0  0  0  0  0
    4.9098   -2.6567    4.1648 H   0  0  0  0  0  0  0  0  0  0  0  0
    4.2601   -4.2120    3.8270 H   0  0  0  0  0  0  0  0  0  0  0  0
    1.8359   -3.4239    2.0620 H   0  0  0  0  0  0  0  0  0  0  0  0
    2.9289   -4.6876    1.6451 H   0  0  0  0  0  0  0  0  0  0  0  0
    2.6038   -3.3665    0.5316 H   0  0  0  0  0  0  0  0  0  0  0  0
    2.5937   -1.5066    7.1206 H   0  0  0  0  0  0  0  0  0  0  0  0
    1.7883    4.2895    5.1679 H   0  0  0  0  0  0  0  0  0  0  0  0
    2.0761    3.4289    2.5348 H   0  0  0  0  0  0  0  0  0  0  0  0
    0.2804    5.1998    3.5554 H   0  0  0  0  0  0  0  0  0  0  0  0
   -0.1082    3.6471    2.8978 H   0  0  0  0  0  0  0  0  0  0  0  0
   -0.7076    4.6546    5.7284 H   0  0  0  0  0  0  0  0  0  0  0  0
   -1.8830    4.4502    4.4552 H   0  0  0  0  0  0  0  0  0  0  0  0
   -2.5669    1.6382    6.7888 H   0  0  0  0  0  0  0  0  0  0  0  0
   -3.1931    3.1121    6.0779 H   0  0  0  0  0  0  0  0  0  0  0  0
   -1.9381    3.2008    7.3075 H   0  0  0  0  0  0  0  0  0  0  0  0
   -2.0115    0.7530    4.3419 H   0  0  0  0  0  0  0  0  0  0  0  0
   -1.1620    1.8197    3.2386 H   0  0  0  0  0  0  0  0  0  0  0  0
   -2.7421    2.2388    3.8127 H   0  0  0  0  0  0  0  0  0  0  0  0
    0.3707    2.7159    6.7485 H   0  0  0  0  0  0  0  0  0  0  0  0
    0.0493    0.7762    7.6812 H   0  0  0  0  0  0  0  0  0  0  0  0
   -0.7741   -0.4528    5.3297 H   0  0  0  0  0  0  0  0  0  0  0  0
  1  2  2  0
  1 39  1  0
  1 40  1  0
  2  3  1  0
  2  4  1  0
  3 41  1  0
  3 42  1  0
  3 43  1  0
  4  9  1  0
  4  5  1  0
  4 44  1  6
  5  6  1  0
  5 45  1  0
  5 46  1  0
  6  7  1  0
  6  8  1  0
  6 47  1  1
  7 48  1  0
  8 22  1  0
  8  9  1  0
  8 49  1  1
  9 10  1  0
  9 50  1  1
 10 11  1  0
 10 51  1  0
 10 52  1  0
 11 22  1  0
 11 12  1  1
 11 13  1  0
 12 53  1  0
 12 54  1  0
 12 55  1  0
 13 18  1  0
 13 14  1  0
 13 56  1  6
 14 15  1  0
 14 16  1  0
 14 57  1  1
 15 58  1  0
 16 28  1  0
 16 17  1  0
 16 59  1  6
 17 18  1  0
 17 24  1  0
 17 60  1  1
 18 19  1  6
 18 20  1  0
 19 61  1  0
 19 62  1  0
 19 63  1  0
 20 21  1  0
 20 64  1  0
 20 65  1  0
 21 22  1  0
 21 66  1  0
 21 67  1  0
 22 23  1  6
 23 68  1  0
 23 69  1  0
 23 70  1  0
 24 37  1  0
 24 25  1  1
 24 26  1  0
 25 71  1  0
 26 27  1  0
 28 27  1  1
 28 36  1  0
 28 29  1  0
 29 30  1  0
 29 31  1  0
 29 72  1  1
 30 73  1  0
 31 32  1  0
 31 74  1  0
 31 75  1  0
 32 33  1  0
 32 76  1  0
 32 77  1  0
 33 34  1  0
 33 35  1  0
 33 36  1  0
 34 78  1  0
 34 79  1  0
 34 80  1  0
 35 81  1  0
 35 82  1  0
 35 83  1  0
 36 37  1  0
 36 84  1  1
 37 38  1  0
 37 85  1  1
 38 86  1  0
M  END
>  <i_m_ct_stereo_status>  (303) 
1

>  <s_m_source_file>  (303) 
/var/tmp/pbs.5076255.sched01/tmpk9_hntje/1089a46f3po.sdf

>  <i_m_source_file_index>  (303) 
41

>  <i_lp_mmshare_version>  (303) 
48012

>  <i_f3d_flags>  (303) 
0

>  <s_epik_input>  (303) 
W09IXVtDQEBIXTFbQ0gyXVtDQEBIXShDKD1bQ0gyXSlbQ0gzXSlbQ0BASF0oW0NIMl0yKVtDQEhdMVtDQEBdKFtDSDNdKShbQ0gyXVtDSDJdMylbQ0BdMihbQ0gzXSlbQ0BIXShbQ0BIXTRbT0hdKVtDQF0zKFtDSDNdKVtDQEBIXShbQ0BIXTRbQ0BAXTU2NylbQ0BAXShbT0hdKShPTzUpW0NASF0oW09IXSlbQ0BASF03QyhbQ0gzXSkoW0NIM10pW0NIMl1bQ0gyXVtDQEBIXTZbT0hd

>  <s_epik_cmdline>  (303) 
J2VwaWtfcHl0aG9uJywgJy1waHQnLCAnMi4wJywgJy1waCcsICc3LjAnLCAnLXRuJywgJzgnLCAnLW1hJywgJzIwMCcsICctaW1hZScsICc8aW5maWxlLm1hZT4nLCAnLW9tYWUnLCAnPG91dGZpbGUubWFlPic=

>  <r_lp_tautomer_probability>  (303) 
1

>  <r_epik_Ionization_Penalty>  (303) 
8.34769e-06

>  <r_epik_Ionization_Penalty_Charging>  (303) 
0

>  <r_epik_Ionization_Penalty_Neutral>  (303) 
8.34769e-06

>  <r_epik_State_Penalty>  (303) 
-0

>  <r_epik_Charging_Adjusted_Penalty>  (303) 
0

>  <i_epik_Tot_Q>  (303) 
0

>  <i_epik_Tot_abs_Q>  (303) 
0

>  <s_lp_Force_Field>  (303) 
OPLS3e

>  <r_lp_Energy>  (303) 
117.133

>  <b_lp_Chiralities_Consistent>  (303) 
1

>  <s_lp_Variant>  (303) 
80:0-1

>  <s_i_glide_gridfile>  (303) 
pfpi4k_grid

>  <i_i_glide_lignum>  (303) 
41

>  <i_i_glide_rotatable_bonds>  (303) 
6

>  <r_i_docking_score>  (303) 
-3.16501

>  <r_i_glide_ligand_efficiency>  (303) 
-0.0832897

>  <r_i_glide_ligand_efficiency_sa>  (303) 
-0.280018

>  <r_i_glide_ligand_efficiency_ln>  (303) 
-0.682469

>  <r_i_glide_gscore>  (303) 
-3.16501

>  <r_i_glide_lipo>  (303) 
-0.597209

>  <r_i_glide_hbond>  (303) 
0

>  <r_i_glide_metal>  (303) 
-0

>  <r_i_glide_rewards>  (303) 
0

>  <r_i_glide_evdw>  (303) 
-38.4389

>  <r_i_glide_ecoul>  (303) 
-4.79004

>  <r_i_glide_erotb>  (303) 
0.0726897

>  <r_i_glide_esite>  (303) 
-3.52864e-05

>  <r_i_glide_emodel>  (303) 
-49.4351

>  <r_i_glide_energy>  (303) 
-43.229

>  <r_i_glide_einternal>  (303) 
4.04203

>  <r_i_glide_intrahb_reward>  (303) 
-0

>  <i_i_glide_confnum>  (303) 
2

>  <i_i_glide_posenum>  (303) 
11

>  <r_i_glide_eff_state_penalty>  (303) 
0

>  <ligand_id>  (303) 
80

>  <original_smiles>  (303) 
C=C(C)C1CC(O)C2C1CC1(C)C3C(O)C4C(C3(C)CCC21C)C1(O)OOC42C(O)CCC(C)(C)C2C1O

>  <smiles>  (303) 
[H]OC1([H])C2(O[H])OOC3(C([H])(O[H])C([H])([H])C([H])([H])C(C([H])([H])[H])(C([H])([H])[H])C13[H])C1([H])C([H])(O[H])C3([H])C(C([H])([H])[H])(C([H])([H])C([H])([H])C4(C([H])([H])[H])C5([H])C([H])(O[H])C([H])([H])C([H])(C(=C([H])[H])C([H])([H])[H])C5([H])C([H])([H])C34C([H])([H])[H])C21[H]

$$$$
81:0:0
     RDKit          3D

 79 86  0  0  1  0  0  0  0  0999 V2000
    4.3033   -4.1716    1.4788 C   0  0  0  0  0  0  0  0  0  0  0  0
    3.4199   -4.7034    2.3416 C   0  0  0  0  0  0  0  0  0  0  0  0
    2.8303   -6.0359    2.1695 C   0  0  0  0  0  0  0  0  0  0  0  0
    3.2086   -6.9144    1.3968 O   0  0  0  0  0  0  0  0  0  0  0  0
    1.8124   -6.1459    3.0359 O   0  0  0  0  0  0  0  0  0  0  0  0
    1.4359   -4.8976    3.6059 C   0  0  1  0  0  0  0  0  0  0  0  0
    0.5630   -4.9908    4.9094 C   0  0  1  0  0  0  0  0  0  0  0  0
   -0.3083   -6.2596    4.9763 C   0  0  0  0  0  0  0  0  0  0  0  0
    1.3897   -4.7929    6.1663 C   0  0  0  0  0  0  0  0  0  0  0  0
    2.4830   -5.5713    6.2629 C   0  0  0  0  0  0  0  0  0  0  0  0
    3.7449   -5.0943    6.8936 C   0  0  0  0  0  0  0  0  0  0  0  0
    3.6336   -3.6090    7.2369 C   0  0  1  0  0  0  0  0  0  0  0  0
    4.0061   -2.4300    6.2731 C   0  0  2  0  0  0  0  0  0  0  0  0
    3.5872   -1.2142    7.1112 C   0  0  1  0  0  0  0  0  0  0  0  0
    2.8273   -1.7477    8.3422 C   0  0  0  0  0  0  0  0  0  0  0  0
    2.3778   -3.2081    7.9871 C   0  0  2  0  0  0  0  0  0  0  0  0
    2.2186   -3.9976    9.3111 C   0  0  0  0  0  0  0  0  0  0  0  0
    1.1707   -3.4808    6.9827 C   0  0  2  0  0  0  0  0  0  0  0  0
   -0.2075   -3.5625    7.6780 C   0  0  0  0  0  0  0  0  0  0  0  0
    1.1652   -2.4732    5.9868 O   0  0  0  0  0  0  0  0  0  0  0  0
    0.3804   -1.2476    6.3173 O   0  0  0  0  0  0  0  0  0  0  0  0
   -0.2183   -0.8010    5.0909 C   0  0  1  0  0  0  0  0  0  0  0  0
   -0.9385    0.4785    5.4056 C   0  0  0  0  0  0  0  0  0  0  0  0
   -1.1195    1.6450    4.7110 C   0  0  0  0  0  0  0  0  0  0  0  0
   -1.9228    2.4917    5.5279 C   0  0  0  0  0  0  0  0  0  0  0  0
   -2.1821    1.7765    6.6638 C   0  0  0  0  0  0  0  0  0  0  0  0
   -1.6073    0.5411    6.5944 O   0  0  0  0  0  0  0  0  0  0  0  0
    0.7822   -0.6217    3.9039 C   0  0  0  0  0  0  0  0  0  0  0  0
    1.3786   -1.9215    3.3507 C   0  0  1  0  0  0  0  0  0  0  0  0
    2.5209   -1.8061    2.5238 O   0  0  0  0  0  0  0  0  0  0  0  0
    2.7463   -2.5798    3.7238 C   0  0  2  0  0  0  0  0  0  0  0  0
    2.8037   -4.1123    3.5835 C   0  0  2  0  0  0  0  0  0  0  0  0
    3.6596   -1.9024    4.8152 C   0  0  2  0  0  0  0  0  0  0  0  0
    4.8703   -0.9531    4.5198 C   0  0  1  0  0  0  0  0  0  0  0  0
    4.8542   -0.2633    3.1427 C   0  0  0  0  0  0  0  0  0  0  0  0
    5.0875    0.0880    5.7338 C   0  0  0  0  0  0  0  0  0  0  0  0
    6.5830    0.4451    5.8496 C   0  0  0  0  0  0  0  0  0  0  0  0
    4.2759    1.3950    5.5547 C   0  0  0  0  0  0  0  0  0  0  0  0
    4.7547   -0.3995    7.0769 O   0  0  0  0  0  0  0  0  0  0  0  0
    4.6975   -3.1767    1.6133 H   0  0  0  0  0  0  0  0  0  0  0  0
    4.6422   -4.7291    0.6141 H   0  0  0  0  0  0  0  0  0  0  0  0
    0.7732   -4.5058    2.8382 H   0  0  0  0  0  0  0  0  0  0  0  0
   -0.1406   -4.1589    4.8599 H   0  0  0  0  0  0  0  0  0  0  0  0
   -1.0064   -6.2125    5.8133 H   0  0  0  0  0  0  0  0  0  0  0  0
    0.2939   -7.1606    5.1042 H   0  0  0  0  0  0  0  0  0  0  0  0
   -0.8955   -6.3867    4.0665 H   0  0  0  0  0  0  0  0  0  0  0  0
    2.6064   -6.4297    5.6189 H   0  0  0  0  0  0  0  0  0  0  0  0
    3.9362   -5.6954    7.7845 H   0  0  0  0  0  0  0  0  0  0  0  0
    4.5850   -5.2513    6.2156 H   0  0  0  0  0  0  0  0  0  0  0  0
    4.4313   -3.5358    7.9808 H   0  0  0  0  0  0  0  0  0  0  0  0
    5.0919   -2.5482    6.2844 H   0  0  0  0  0  0  0  0  0  0  0  0
    2.7913   -0.5673    6.7479 H   0  0  0  0  0  0  0  0  0  0  0  0
    3.5125   -1.7548    9.1925 H   0  0  0  0  0  0  0  0  0  0  0  0
    1.9875   -1.1092    8.6218 H   0  0  0  0  0  0  0  0  0  0  0  0
    1.4364   -3.5683    9.9375 H   0  0  0  0  0  0  0  0  0  0  0  0
    3.1343   -3.9809    9.9032 H   0  0  0  0  0  0  0  0  0  0  0  0
    1.9692   -5.0442    9.1411 H   0  0  0  0  0  0  0  0  0  0  0  0
   -0.2820   -4.4613    8.2922 H   0  0  0  0  0  0  0  0  0  0  0  0
   -1.0173   -3.6218    6.9504 H   0  0  0  0  0  0  0  0  0  0  0  0
   -0.3933   -2.7062    8.3247 H   0  0  0  0  0  0  0  0  0  0  0  0
   -0.9586   -1.5443    4.7962 H   0  0  0  0  0  0  0  0  0  0  0  0
   -0.7214    1.8657    3.7337 H   0  0  0  0  0  0  0  0  0  0  0  0
   -2.2756    3.4891    5.3131 H   0  0  0  0  0  0  0  0  0  0  0  0
   -2.7459    1.9857    7.5625 H   0  0  0  0  0  0  0  0  0  0  0  0
    0.2480   -0.1798    3.0612 H   0  0  0  0  0  0  0  0  0  0  0  0
    1.5493    0.1139    4.1424 H   0  0  0  0  0  0  0  0  0  0  0  0
    0.6078   -2.5153    2.8786 H   0  0  0  0  0  0  0  0  0  0  0  0
    3.4999   -4.4577    4.3386 H   0  0  0  0  0  0  0  0  0  0  0  0
    2.9714   -1.1008    4.9313 H   0  0  0  0  0  0  0  0  0  0  0  0
    5.7491   -1.5966    4.4827 H   0  0  0  0  0  0  0  0  0  0  0  0
    3.9578    0.3373    2.9889 H   0  0  0  0  0  0  0  0  0  0  0  0
    4.9117   -0.9913    2.3362 H   0  0  0  0  0  0  0  0  0  0  0  0
    5.7165    0.3914    3.0300 H   0  0  0  0  0  0  0  0  0  0  0  0
    6.9807    0.8733    4.9280 H   0  0  0  0  0  0  0  0  0  0  0  0
    7.1705   -0.4435    6.0805 H   0  0  0  0  0  0  0  0  0  0  0  0
    6.7634    1.1648    6.6488 H   0  0  0  0  0  0  0  0  0  0  0  0
    4.6174    1.9780    4.6988 H   0  0  0  0  0  0  0  0  0  0  0  0
    4.3746    2.0354    6.4332 H   0  0  0  0  0  0  0  0  0  0  0  0
    3.2118    1.2052    5.4124 H   0  0  0  0  0  0  0  0  0  0  0  0
  1  2  2  0
  1 40  1  0
  1 41  1  0
  2 32  1  0
  2  3  1  0
  3  4  2  0
  3  5  1  0
  5  6  1  0
  6 32  1  0
  6  7  1  0
  6 42  1  6
  7  8  1  0
  7  9  1  0
  7 43  1  6
  8 44  1  0
  8 45  1  0
  8 46  1  0
  9 18  1  0
  9 10  2  0
 10 11  1  0
 10 47  1  0
 11 12  1  0
 11 48  1  0
 11 49  1  0
 12 16  1  0
 12 13  1  0
 12 50  1  1
 13 33  1  0
 13 14  1  0
 13 51  1  6
 14 39  1  0
 14 15  1  0
 14 52  1  6
 15 16  1  0
 15 53  1  0
 15 54  1  0
 16 17  1  1
 16 18  1  0
 17 55  1  0
 17 56  1  0
 17 57  1  0
 18 19  1  1
 18 20  1  0
 19 58  1  0
 19 59  1  0
 19 60  1  0
 20 21  1  0
 21 22  1  0
 22 23  1  0
 22 28  1  0
 22 61  1  6
 23 27  1  0
 23 24  2  0
 24 25  1  0
 24 62  1  0
 25 26  2  0
 25 63  1  0
 26 27  1  0
 26 64  1  0
 28 29  1  0
 28 65  1  0
 28 66  1  0
 29 31  1  0
 29 30  1  0
 29 67  1  6
 31 30  1  6
 31 32  1  0
 31 33  1  0
 32 68  1  1
 33 34  1  0
 33 69  1  1
 34 35  1  0
 34 36  1  0
 34 70  1  6
 35 71  1  0
 35 72  1  0
 35 73  1  0
 36 37  1  0
 36 38  1  0
 36 39  1  0
 37 74  1  0
 37 75  1  0
 37 76  1  0
 38 77  1  0
 38 78  1  0
 38 79  1  0
M  END
>  <i_m_ct_stereo_status>  (304) 
1

>  <s_m_source_file>  (304) 
/var/tmp/pbs.5076255.sched01/tmpk9_hntje/1089a46f3po.sdf

>  <i_m_source_file_index>  (304) 
42

>  <i_lp_mmshare_version>  (304) 
48012

>  <i_f3d_flags>  (304) 
0

>  <s_epik_input>  (304) 
W0NAQEhdMTJbQ0BASF0oW0NIM10pQyhbQ0gzXSkoW0NIM10pT1tDSF0oW0NIMl1bQ0BdMzRbQ0gzXSlbQ0BIXTFbQ0BASF0zW0NIMl1bQ0hdPUMoW0NASF0oW0NIM10pW0NASF01W0NASF02Qyg9W0NIMl0pQyg9TylPNSlbQ0BdNChbQ0gzXSlPT1tDQEhdKFtDSDJdW0NIXShPNylDMjY3KWM4W2NIXVtjSF1bY0hdbzg=

>  <s_epik_cmdline>  (304) 
J2VwaWtfcHl0aG9uJywgJy1waHQnLCAnMi4wJywgJy1waCcsICc3LjAnLCAnLXRuJywgJzgnLCAnLW1hJywgJzIwMCcsICctaW1hZScsICc8aW5maWxlLm1hZT4nLCAnLW9tYWUnLCAnPG91dGZpbGUubWFlPic=

>  <r_lp_tautomer_probability>  (304) 
1

>  <r_epik_Ionization_Penalty>  (304) 
1.84806e-11

>  <r_epik_Ionization_Penalty_Charging>  (304) 
0

>  <r_epik_Ionization_Penalty_Neutral>  (304) 
1.84806e-11

>  <r_epik_State_Penalty>  (304) 
-0

>  <r_epik_Charging_Adjusted_Penalty>  (304) 
0

>  <i_epik_Tot_Q>  (304) 
0

>  <i_epik_Tot_abs_Q>  (304) 
0

>  <s_epik_Chemistry_Notes>  (304) 
This compound has an ester and may undergo hydrolysis at high or low pH.

>  <s_lp_Force_Field>  (304) 
OPLS3e

>  <r_lp_Energy>  (304) 
152.632

>  <b_lp_Chiralities_Consistent>  (304) 
1

>  <s_lp_Variant>  (304) 
81:0-1

>  <s_i_glide_gridfile>  (304) 
pfpi4k_grid

>  <i_i_glide_lignum>  (304) 
42

>  <i_i_glide_rotatable_bonds>  (304) 
1

>  <r_i_docking_score>  (304) 
-2.14841

>  <r_i_glide_ligand_efficiency>  (304) 
-0.0550874

>  <r_i_glide_ligand_efficiency_sa>  (304) 
-0.186813

>  <r_i_glide_ligand_efficiency_ln>  (304) 
-0.46068

>  <r_i_glide_gscore>  (304) 
-2.14841

>  <r_i_glide_lipo>  (304) 
-0.40477

>  <r_i_glide_hbond>  (304) 
-0.16

>  <r_i_glide_metal>  (304) 
-0

>  <r_i_glide_rewards>  (304) 
0

>  <r_i_glide_evdw>  (304) 
-27.436

>  <r_i_glide_ecoul>  (304) 
-1.87006

>  <r_i_glide_erotb>  (304) 
0.0717077

>  <r_i_glide_esite>  (304) 
-0.00303918

>  <r_i_glide_emodel>  (304) 
-32.8101

>  <r_i_glide_energy>  (304) 
-29.306

>  <r_i_glide_einternal>  (304) 
0.167109

>  <r_i_glide_intrahb_reward>  (304) 
-0

>  <i_i_glide_confnum>  (304) 
6

>  <i_i_glide_posenum>  (304) 
31

>  <r_i_glide_eff_state_penalty>  (304) 
0

>  <ligand_id>  (304) 
81

>  <original_smiles>  (304) 
C=C1C(=O)OC2C(C)C3=CCC4C5C6CC4(C)C3(C)OOC(c3ccco3)CC3OC3(C12)C5C(C)C(C)(C)O6

>  <smiles>  (304) 
[H]C([H])=C1C(=O)OC2([H])C([H])(C([H])([H])[H])C3=C([H])C([H])([H])C4([H])C5([H])C6([H])OC(C([H])([H])[H])(C([H])([H])[H])C([H])(C([H])([H])[H])C5([H])C5(OC5([H])C([H])([H])C([H])(c5oc([H])c([H])c5[H])OOC3(C([H])([H])[H])C4(C([H])([H])[H])C6([H])[H])C12[H]

$$$$
81:0:1
     RDKit          3D

 79 86  0  0  1  0  0  0  0  0999 V2000
   -0.8858   -6.6659    4.8311 C   0  0  0  0  0  0  0  0  0  0  0  0
   -0.1480   -5.7870    5.5333 C   0  0  0  0  0  0  0  0  0  0  0  0
   -0.6943   -4.9005    6.5710 C   0  0  0  0  0  0  0  0  0  0  0  0
   -1.8001   -4.9733    7.1024 O   0  0  0  0  0  0  0  0  0  0  0  0
    0.2328   -3.9891    6.8681 O   0  0  0  0  0  0  0  0  0  0  0  0
    1.2797   -3.9465    5.9092 C   0  0  1  0  0  0  0  0  0  0  0  0
    2.5802   -3.2156    6.3992 C   0  0  1  0  0  0  0  0  0  0  0  0
    2.3092   -2.1008    7.4300 C   0  0  0  0  0  0  0  0  0  0  0  0
    3.6350   -4.1985    6.8748 C   0  0  0  0  0  0  0  0  0  0  0  0
    3.2218   -5.0972    7.7846 C   0  0  0  0  0  0  0  0  0  0  0  0
    3.7454   -6.4915    7.8178 C   0  0  0  0  0  0  0  0  0  0  0  0
    4.6488   -6.7422    6.6092 C   0  0  1  0  0  0  0  0  0  0  0  0
    4.1628   -7.2583    5.2098 C   0  0  2  0  0  0  0  0  0  0  0  0
    5.4686   -7.2012    4.4031 C   0  0  1  0  0  0  0  0  0  0  0  0
    6.5165   -6.4783    5.2736 C   0  0  0  0  0  0  0  0  0  0  0  0
    5.7134   -5.6898    6.3657 C   0  0  2  0  0  0  0  0  0  0  0  0
    6.6360   -5.5027    7.5966 C   0  0  0  0  0  0  0  0  0  0  0  0
    4.9212   -4.3547    6.0031 C   0  0  2  0  0  0  0  0  0  0  0  0
    5.7673   -3.0717    6.1670 C   0  0  0  0  0  0  0  0  0  0  0  0
    4.4093   -4.4686    4.6848 O   0  0  0  0  0  0  0  0  0  0  0  0
    5.3223   -4.0078    3.5948 O   0  0  0  0  0  0  0  0  0  0  0  0
    4.4942   -3.3874    2.5999 C   0  0  1  0  0  0  0  0  0  0  0  0
    5.4057   -3.0063    1.4708 C   0  0  0  0  0  0  0  0  0  0  0  0
    5.6126   -3.5022    0.2094 C   0  0  0  0  0  0  0  0  0  0  0  0
    6.6029   -2.6767   -0.3985 C   0  0  0  0  0  0  0  0  0  0  0  0
    6.9304   -1.7399    0.5411 C   0  0  0  0  0  0  0  0  0  0  0  0
    6.2113   -1.9289    1.6825 O   0  0  0  0  0  0  0  0  0  0  0  0
    3.3139   -4.2793    2.1019 C   0  0  0  0  0  0  0  0  0  0  0  0
    2.1964   -4.5117    3.1282 C   0  0  1  0  0  0  0  0  0  0  0  0
    1.2796   -5.5585    2.8606 O   0  0  0  0  0  0  0  0  0  0  0  0
    2.0298   -5.7380    4.0852 C   0  0  2  0  0  0  0  0  0  0  0  0
    1.3120   -5.4452    5.4146 C   0  0  2  0  0  0  0  0  0  0  0  0
    3.1103   -6.8864    4.0770 C   0  0  2  0  0  0  0  0  0  0  0  0
    2.9898   -8.2375    3.2931 C   0  0  1  0  0  0  0  0  0  0  0  0
    2.0158   -8.2276    2.0969 C   0  0  0  0  0  0  0  0  0  0  0  0
    4.4511   -8.7968    2.9013 C   0  0  0  0  0  0  0  0  0  0  0  0
    4.4138  -10.3360    2.8795 C   0  0  0  0  0  0  0  0  0  0  0  0
    4.9418   -8.2826    1.5241 C   0  0  0  0  0  0  0  0  0  0  0  0
    5.5401   -8.5056    3.8400 O   0  0  0  0  0  0  0  0  0  0  0  0
   -0.4524   -7.2847    4.0605 H   0  0  0  0  0  0  0  0  0  0  0  0
   -1.9453   -6.7813    5.0136 H   0  0  0  0  0  0  0  0  0  0  0  0
    0.8422   -3.3094    5.1416 H   0  0  0  0  0  0  0  0  0  0  0  0
    2.9850   -2.7077    5.5245 H   0  0  0  0  0  0  0  0  0  0  0  0
    3.2098   -1.5164    7.6257 H   0  0  0  0  0  0  0  0  0  0  0  0
    1.9657   -2.5026    8.3845 H   0  0  0  0  0  0  0  0  0  0  0  0
    1.5432   -1.4124    7.0710 H   0  0  0  0  0  0  0  0  0  0  0  0
    2.2863   -4.9645    8.3089 H   0  0  0  0  0  0  0  0  0  0  0  0
    4.2850   -6.6391    8.7555 H   0  0  0  0  0  0  0  0  0  0  0  0
    2.9191   -7.2037    7.8093 H   0  0  0  0  0  0  0  0  0  0  0  0
    5.2037   -7.6097    6.9757 H   0  0  0  0  0  0  0  0  0  0  0  0
    3.9308   -8.2883    5.4902 H   0  0  0  0  0  0  0  0  0  0  0  0
    5.5361   -6.5331    3.5484 H   0  0  0  0  0  0  0  0  0  0  0  0
    7.1562   -7.2316    5.7369 H   0  0  0  0  0  0  0  0  0  0  0  0
    7.1700   -5.8303    4.6861 H   0  0  0  0  0  0  0  0  0  0  0  0
    7.5116   -4.9031    7.3482 H   0  0  0  0  0  0  0  0  0  0  0  0
    7.0099   -6.4562    7.9692 H   0  0  0  0  0  0  0  0  0  0  0  0
    6.1261   -5.0143    8.4261 H   0  0  0  0  0  0  0  0  0  0  0  0
    5.9707   -2.8670    7.2194 H   0  0  0  0  0  0  0  0  0  0  0  0
    5.2459   -2.1962    5.7758 H   0  0  0  0  0  0  0  0  0  0  0  0
    6.7311   -3.1477    5.6736 H   0  0  0  0  0  0  0  0  0  0  0  0
    4.0801   -2.4762    3.0308 H   0  0  0  0  0  0  0  0  0  0  0  0
    5.1073   -4.3499   -0.2241 H   0  0  0  0  0  0  0  0  0  0  0  0
    7.0200   -2.7539   -1.3930 H   0  0  0  0  0  0  0  0  0  0  0  0
    7.6170   -0.9049    0.5719 H   0  0  0  0  0  0  0  0  0  0  0  0
    2.8398   -3.7672    1.2623 H   0  0  0  0  0  0  0  0  0  0  0  0
    3.6758   -5.2110    1.6692 H   0  0  0  0  0  0  0  0  0  0  0  0
    1.6803   -3.5825    3.3402 H   0  0  0  0  0  0  0  0  0  0  0  0
    1.7359   -6.1249    6.1453 H   0  0  0  0  0  0  0  0  0  0  0  0
    3.6549   -6.4054    3.3016 H   0  0  0  0  0  0  0  0  0  0  0  0
    2.5453   -8.9501    3.9893 H   0  0  0  0  0  0  0  0  0  0  0  0
    2.2733   -7.4694    1.3590 H   0  0  0  0  0  0  0  0  0  0  0  0
    0.9944   -8.0446    2.4248 H   0  0  0  0  0  0  0  0  0  0  0  0
    2.0047   -9.1903    1.5868 H   0  0  0  0  0  0  0  0  0  0  0  0
    3.6762  -10.7087    2.1674 H   0  0  0  0  0  0  0  0  0  0  0  0
    4.1596  -10.7399    3.8610 H   0  0  0  0  0  0  0  0  0  0  0  0
    5.3784  -10.7563    2.5920 H   0  0  0  0  0  0  0  0  0  0  0  0
    4.3299   -8.6572    0.7020 H   0  0  0  0  0  0  0  0  0  0  0  0
    5.9648   -8.6071    1.3301 H   0  0  0  0  0  0  0  0  0  0  0  0
    4.9343   -7.1942    1.4671 H   0  0  0  0  0  0  0  0  0  0  0  0
  1  2  2  0
  1 40  1  0
  1 41  1  0
  2 32  1  0
  2  3  1  0
  3  4  2  0
  3  5  1  0
  5  6  1  0
  6 32  1  0
  6  7  1  0
  6 42  1  6
  7  8  1  0
  7  9  1  0
  7 43  1  6
  8 44  1  0
  8 45  1  0
  8 46  1  0
  9 18  1  0
  9 10  2  0
 10 11  1  0
 10 47  1  0
 11 12  1  0
 11 48  1  0
 11 49  1  0
 12 16  1  0
 12 13  1  0
 12 50  1  1
 13 33  1  0
 13 14  1  0
 13 51  1  1
 14 39  1  0
 14 15  1  0
 14 52  1  6
 15 16  1  0
 15 53  1  0
 15 54  1  0
 16 17  1  1
 16 18  1  0
 17 55  1  0
 17 56  1  0
 17 57  1  0
 18 19  1  6
 18 20  1  0
 19 58  1  0
 19 59  1  0
 19 60  1  0
 20 21  1  0
 21 22  1  0
 22 23  1  0
 22 28  1  0
 22 61  1  1
 23 27  1  0
 23 24  2  0
 24 25  1  0
 24 62  1  0
 25 26  2  0
 25 63  1  0
 26 27  1  0
 26 64  1  0
 28 29  1  0
 28 65  1  0
 28 66  1  0
 29 31  1  0
 29 30  1  0
 29 67  1  1
 31 30  1  6
 31 32  1  0
 31 33  1  0
 32 68  1  1
 33 34  1  0
 33 69  1  6
 34 35  1  0
 34 36  1  0
 34 70  1  1
 35 71  1  0
 35 72  1  0
 35 73  1  0
 36 37  1  0
 36 38  1  0
 36 39  1  0
 37 74  1  0
 37 75  1  0
 37 76  1  0
 38 77  1  0
 38 78  1  0
 38 79  1  0
M  END
>  <i_m_ct_stereo_status>  (305) 
1

>  <s_m_source_file>  (305) 
/var/tmp/pbs.5076255.sched01/tmpk9_hntje/1089a46f3po.sdf

>  <i_m_source_file_index>  (305) 
42

>  <i_lp_mmshare_version>  (305) 
48012

>  <i_f3d_flags>  (305) 
0

>  <s_epik_input>  (305) 
W0NAQEhdMTJbQ0BASF0oW0NIM10pQyhbQ0gzXSkoW0NIM10pT1tDSF0oW0NIMl1bQ0BdMzRbQ0gzXSlbQ0BIXTFbQ0BASF0zW0NIMl1bQ0hdPUMoW0NASF0oW0NIM10pW0NASF01W0NASF02Qyg9W0NIMl0pQyg9TylPNSlbQ0BdNChbQ0gzXSlPT1tDQEhdKFtDSDJdW0NIXShPNylDMjY3KWM4W2NIXVtjSF1bY0hdbzg=

>  <s_epik_cmdline>  (305) 
J2VwaWtfcHl0aG9uJywgJy1waHQnLCAnMi4wJywgJy1waCcsICc3LjAnLCAnLXRuJywgJzgnLCAnLW1hJywgJzIwMCcsICctaW1hZScsICc8aW5maWxlLm1hZT4nLCAnLW9tYWUnLCAnPG91dGZpbGUubWFlPic=

>  <r_lp_tautomer_probability>  (305) 
1

>  <r_epik_Ionization_Penalty>  (305) 
1.84806e-11

>  <r_epik_Ionization_Penalty_Charging>  (305) 
0

>  <r_epik_Ionization_Penalty_Neutral>  (305) 
1.84806e-11

>  <r_epik_State_Penalty>  (305) 
-0

>  <r_epik_Charging_Adjusted_Penalty>  (305) 
0

>  <i_epik_Tot_Q>  (305) 
0

>  <i_epik_Tot_abs_Q>  (305) 
0

>  <s_epik_Chemistry_Notes>  (305) 
This compound has an ester and may undergo hydrolysis at high or low pH.

>  <s_lp_Force_Field>  (305) 
OPLS3e

>  <r_lp_Energy>  (305) 
152.632

>  <b_lp_Chiralities_Consistent>  (305) 
1

>  <s_lp_Variant>  (305) 
81:0-1

>  <s_i_glide_gridfile>  (305) 
pfpi4k_grid

>  <i_i_glide_lignum>  (305) 
42

>  <i_i_glide_rotatable_bonds>  (305) 
1

>  <r_i_docking_score>  (305) 
-1.73571

>  <r_i_glide_ligand_efficiency>  (305) 
-0.0445054

>  <r_i_glide_ligand_efficiency_sa>  (305) 
-0.150927

>  <r_i_glide_ligand_efficiency_ln>  (305) 
-0.372185

>  <r_i_glide_gscore>  (305) 
-1.73571

>  <r_i_glide_lipo>  (305) 
-0.197604

>  <r_i_glide_hbond>  (305) 
0

>  <r_i_glide_metal>  (305) 
-0

>  <r_i_glide_rewards>  (305) 
-0.0390968

>  <r_i_glide_evdw>  (305) 
-26.214

>  <r_i_glide_ecoul>  (305) 
-1.73346

>  <r_i_glide_erotb>  (305) 
0.0717077

>  <r_i_glide_esite>  (305) 
0

>  <r_i_glide_emodel>  (305) 
-30.49

>  <r_i_glide_energy>  (305) 
-27.9474

>  <r_i_glide_einternal>  (305) 
0.578751

>  <r_i_glide_intrahb_reward>  (305) 
-0

>  <i_i_glide_confnum>  (305) 
2

>  <i_i_glide_posenum>  (305) 
23

>  <r_i_glide_eff_state_penalty>  (305) 
0

>  <ligand_id>  (305) 
81

>  <original_smiles>  (305) 
C=C1C(=O)OC2C(C)C3=CCC4C5C6CC4(C)C3(C)OOC(c3ccco3)CC3OC3(C12)C5C(C)C(C)(C)O6

>  <smiles>  (305) 
[H]C([H])=C1C(=O)OC2([H])C([H])(C([H])([H])[H])C3=C([H])C([H])([H])C4([H])C5([H])C6([H])OC(C([H])([H])[H])(C([H])([H])[H])C([H])(C([H])([H])[H])C5([H])C5(OC5([H])C([H])([H])C([H])(c5oc([H])c([H])c5[H])OOC3(C([H])([H])[H])C4(C([H])([H])[H])C6([H])[H])C12[H]

$$$$
81:0:2
     RDKit          3D

 79 86  0  0  1  0  0  0  0  0999 V2000
   -1.3731    2.2109    9.9092 C   0  0  0  0  0  0  0  0  0  0  0  0
   -1.4364    2.6820    8.6512 C   0  0  0  0  0  0  0  0  0  0  0  0
   -2.6831    3.1225    8.0172 C   0  0  0  0  0  0  0  0  0  0  0  0
   -3.7547    3.3428    8.5796 O   0  0  0  0  0  0  0  0  0  0  0  0
   -2.4451    3.2826    6.7056 O   0  0  0  0  0  0  0  0  0  0  0  0
   -1.2119    2.6972    6.2964 C   0  0  1  0  0  0  0  0  0  0  0  0
   -0.6606    3.1876    4.9059 C   0  0  1  0  0  0  0  0  0  0  0  0
   -1.7688    3.6045    3.9189 C   0  0  0  0  0  0  0  0  0  0  0  0
    0.4102    4.2561    5.0584 C   0  0  0  0  0  0  0  0  0  0  0  0
    0.0747    5.2962    5.8421 C   0  0  0  0  0  0  0  0  0  0  0  0
    1.0644    5.9933    6.7094 C   0  0  0  0  0  0  0  0  0  0  0  0
    2.3999    5.2505    6.6828 C   0  0  1  0  0  0  0  0  0  0  0  0
    2.8016    4.0786    7.6452 C   0  0  2  0  0  0  0  0  0  0  0  0
    4.1688    3.6791    7.0729 C   0  0  1  0  0  0  0  0  0  0  0  0
    4.3517    4.4498    5.7506 C   0  0  0  0  0  0  0  0  0  0  0  0
    2.9235    4.9109    5.3014 C   0  0  2  0  0  0  0  0  0  0  0  0
    3.0820    6.1690    4.4109 C   0  0  0  0  0  0  0  0  0  0  0  0
    1.8795    3.8745    4.6879 C   0  0  2  0  0  0  0  0  0  0  0  0
    1.9817    3.7335    3.1529 C   0  0  0  0  0  0  0  0  0  0  0  0
    2.0551    2.6190    5.3192 O   0  0  0  0  0  0  0  0  0  0  0  0
    3.0628    1.7171    4.6858 O   0  0  0  0  0  0  0  0  0  0  0  0
    2.5477    0.3836    4.7984 C   0  0  1  0  0  0  0  0  0  0  0  0
    3.5892   -0.5316    4.2268 C   0  0  0  0  0  0  0  0  0  0  0  0
    4.0217   -1.7843    4.5655 C   0  0  0  0  0  0  0  0  0  0  0  0
    5.0125   -2.1526    3.6115 C   0  0  0  0  0  0  0  0  0  0  0  0
    5.1151   -1.0879    2.7568 C   0  0  0  0  0  0  0  0  0  0  0  0
    4.2440   -0.1007    3.1097 O   0  0  0  0  0  0  0  0  0  0  0  0
    2.1550   -0.0331    6.2526 C   0  0  0  0  0  0  0  0  0  0  0  0
    0.9267    0.6828    6.8265 C   0  0  1  0  0  0  0  0  0  0  0  0
    0.7340    0.6041    8.2268 O   0  0  0  0  0  0  0  0  0  0  0  0
    0.9055    1.9530    7.7376 C   0  0  2  0  0  0  0  0  0  0  0  0
   -0.3522    2.8309    7.6149 C   0  0  2  0  0  0  0  0  0  0  0  0
    2.2647    2.6600    8.1185 C   0  0  2  0  0  0  0  0  0  0  0  0
    3.0554    2.4463    9.4548 C   0  0  1  0  0  0  0  0  0  0  0  0
    2.7574    1.1293   10.1985 C   0  0  0  0  0  0  0  0  0  0  0  0
    4.6345    2.6866    9.2264 C   0  0  0  0  0  0  0  0  0  0  0  0
    5.2625    3.2330   10.5244 C   0  0  0  0  0  0  0  0  0  0  0  0
    5.3859    1.3968    8.8135 C   0  0  0  0  0  0  0  0  0  0  0  0
    5.0031    3.6947    8.2268 O   0  0  0  0  0  0  0  0  0  0  0  0
   -0.4461    1.8697   10.3416 H   0  0  0  0  0  0  0  0  0  0  0  0
   -2.2559    2.1578   10.5369 H   0  0  0  0  0  0  0  0  0  0  0  0
   -1.5054    1.6594    6.1497 H   0  0  0  0  0  0  0  0  0  0  0  0
   -0.1800    2.3239    4.4461 H   0  0  0  0  0  0  0  0  0  0  0  0
   -1.3625    3.7875    2.9211 H   0  0  0  0  0  0  0  0  0  0  0  0
   -2.2715    4.5149    4.2428 H   0  0  0  0  0  0  0  0  0  0  0  0
   -2.5265    2.8250    3.8267 H   0  0  0  0  0  0  0  0  0  0  0  0
   -0.9521    5.4588    6.1299 H   0  0  0  0  0  0  0  0  0  0  0  0
    1.1754    7.0213    6.3582 H   0  0  0  0  0  0  0  0  0  0  0  0
    0.6963    6.0425    7.7354 H   0  0  0  0  0  0  0  0  0  0  0  0
    3.0588    6.0493    7.0319 H   0  0  0  0  0  0  0  0  0  0  0  0
    2.9272    4.6590    8.5619 H   0  0  0  0  0  0  0  0  0  0  0  0
    4.2996    2.6840    6.6551 H   0  0  0  0  0  0  0  0  0  0  0  0
    4.9944    5.3116    5.9375 H   0  0  0  0  0  0  0  0  0  0  0  0
    4.8412    3.8457    4.9876 H   0  0  0  0  0  0  0  0  0  0  0  0
    3.6419    5.9443    3.5027 H   0  0  0  0  0  0  0  0  0  0  0  0
    3.6279    6.9597    4.9245 H   0  0  0  0  0  0  0  0  0  0  0  0
    2.1224    6.5877    4.1082 H   0  0  0  0  0  0  0  0  0  0  0  0
    1.6419    4.6454    2.6591 H   0  0  0  0  0  0  0  0  0  0  0  0
    1.3360    2.9362    2.7808 H   0  0  0  0  0  0  0  0  0  0  0  0
    2.9965    3.5323    2.8086 H   0  0  0  0  0  0  0  0  0  0  0  0
    1.6586    0.3113    4.1725 H   0  0  0  0  0  0  0  0  0  0  0  0
    3.6671   -2.3747    5.3975 H   0  0  0  0  0  0  0  0  0  0  0  0
    5.5830   -3.0655    3.5566 H   0  0  0  0  0  0  0  0  0  0  0  0
    5.7243   -0.8875    1.8863 H   0  0  0  0  0  0  0  0  0  0  0  0
    1.8912   -1.0915    6.2549 H   0  0  0  0  0  0  0  0  0  0  0  0
    3.0160    0.0244    6.9181 H   0  0  0  0  0  0  0  0  0  0  0  0
    0.0331    0.3830    6.2899 H   0  0  0  0  0  0  0  0  0  0  0  0
   -0.0298    3.8478    7.8055 H   0  0  0  0  0  0  0  0  0  0  0  0
    2.8256    1.9269    7.5902 H   0  0  0  0  0  0  0  0  0  0  0  0
    2.7036    3.2204   10.1379 H   0  0  0  0  0  0  0  0  0  0  0  0
    2.9549    0.2522    9.5835 H   0  0  0  0  0  0  0  0  0  0  0  0
    1.7181    1.0861   10.5191 H   0  0  0  0  0  0  0  0  0  0  0  0
    3.3612    1.0395   11.1003 H   0  0  0  0  0  0  0  0  0  0  0  0
    5.1185    2.5566   11.3678 H   0  0  0  0  0  0  0  0  0  0  0  0
    4.8167    4.1926   10.7918 H   0  0  0  0  0  0  0  0  0  0  0  0
    6.3348    3.3948   10.4103 H   0  0  0  0  0  0  0  0  0  0  0  0
    5.3863    0.6497    9.6084 H   0  0  0  0  0  0  0  0  0  0  0  0
    6.4293    1.6124    8.5795 H   0  0  0  0  0  0  0  0  0  0  0  0
    4.9479    0.9319    7.9303 H   0  0  0  0  0  0  0  0  0  0  0  0
  1  2  2  0
  1 40  1  0
  1 41  1  0
  2 32  1  0
  2  3  1  0
  3  4  2  0
  3  5  1  0
  5  6  1  0
  6 32  1  0
  6  7  1  0
  6 42  1  6
  7  8  1  0
  7  9  1  0
  7 43  1  6
  8 44  1  0
  8 45  1  0
  8 46  1  0
  9 18  1  0
  9 10  2  0
 10 11  1  0
 10 47  1  0
 11 12  1  0
 11 48  1  0
 11 49  1  0
 12 16  1  0
 12 13  1  0
 12 50  1  1
 13 33  1  0
 13 14  1  0
 13 51  1  1
 14 39  1  0
 14 15  1  0
 14 52  1  6
 15 16  1  0
 15 53  1  0
 15 54  1  0
 16 17  1  6
 16 18  1  0
 17 55  1  0
 17 56  1  0
 17 57  1  0
 18 19  1  6
 18 20  1  0
 19 58  1  0
 19 59  1  0
 19 60  1  0
 20 21  1  0
 21 22  1  0
 22 23  1  0
 22 28  1  0
 22 61  1  6
 23 27  1  0
 23 24  2  0
 24 25  1  0
 24 62  1  0
 25 26  2  0
 25 63  1  0
 26 27  1  0
 26 64  1  0
 28 29  1  0
 28 65  1  0
 28 66  1  0
 29 31  1  0
 29 30  1  0
 29 67  1  6
 31 30  1  1
 31 32  1  0
 31 33  1  0
 32 68  1  6
 33 34  1  0
 33 69  1  6
 34 35  1  0
 34 36  1  0
 34 70  1  1
 35 71  1  0
 35 72  1  0
 35 73  1  0
 36 37  1  0
 36 38  1  0
 36 39  1  0
 37 74  1  0
 37 75  1  0
 37 76  1  0
 38 77  1  0
 38 78  1  0
 38 79  1  0
M  END
>  <i_m_ct_stereo_status>  (306) 
1

>  <s_m_source_file>  (306) 
/var/tmp/pbs.5076255.sched01/tmpk9_hntje/1089a46f3po.sdf

>  <i_m_source_file_index>  (306) 
42

>  <i_lp_mmshare_version>  (306) 
48012

>  <i_f3d_flags>  (306) 
0

>  <s_epik_input>  (306) 
W0NAQEhdMTJbQ0BASF0oW0NIM10pQyhbQ0gzXSkoW0NIM10pT1tDSF0oW0NIMl1bQ0BdMzRbQ0gzXSlbQ0BIXTFbQ0BASF0zW0NIMl1bQ0hdPUMoW0NASF0oW0NIM10pW0NASF01W0NASF02Qyg9W0NIMl0pQyg9TylPNSlbQ0BdNChbQ0gzXSlPT1tDQEhdKFtDSDJdW0NIXShPNylDMjY3KWM4W2NIXVtjSF1bY0hdbzg=

>  <s_epik_cmdline>  (306) 
J2VwaWtfcHl0aG9uJywgJy1waHQnLCAnMi4wJywgJy1waCcsICc3LjAnLCAnLXRuJywgJzgnLCAnLW1hJywgJzIwMCcsICctaW1hZScsICc8aW5maWxlLm1hZT4nLCAnLW9tYWUnLCAnPG91dGZpbGUubWFlPic=

>  <r_lp_tautomer_probability>  (306) 
1

>  <r_epik_Ionization_Penalty>  (306) 
1.84806e-11

>  <r_epik_Ionization_Penalty_Charging>  (306) 
0

>  <r_epik_Ionization_Penalty_Neutral>  (306) 
1.84806e-11

>  <r_epik_State_Penalty>  (306) 
-0

>  <r_epik_Charging_Adjusted_Penalty>  (306) 
0

>  <i_epik_Tot_Q>  (306) 
0

>  <i_epik_Tot_abs_Q>  (306) 
0

>  <s_epik_Chemistry_Notes>  (306) 
This compound has an ester and may undergo hydrolysis at high or low pH.

>  <s_lp_Force_Field>  (306) 
OPLS3e

>  <r_lp_Energy>  (306) 
152.632

>  <b_lp_Chiralities_Consistent>  (306) 
1

>  <s_lp_Variant>  (306) 
81:0-1

>  <s_i_glide_gridfile>  (306) 
pfpi4k_grid

>  <i_i_glide_lignum>  (306) 
42

>  <i_i_glide_rotatable_bonds>  (306) 
1

>  <r_i_docking_score>  (306) 
-1.71773

>  <r_i_glide_ligand_efficiency>  (306) 
-0.0440445

>  <r_i_glide_ligand_efficiency_sa>  (306) 
-0.149364

>  <r_i_glide_ligand_efficiency_ln>  (306) 
-0.368331

>  <r_i_glide_gscore>  (306) 
-1.71773

>  <r_i_glide_lipo>  (306) 
-0.193852

>  <r_i_glide_hbond>  (306) 
0

>  <r_i_glide_metal>  (306) 
-0

>  <r_i_glide_rewards>  (306) 
-0.146011

>  <r_i_glide_evdw>  (306) 
-27.2951

>  <r_i_glide_ecoul>  (306) 
-0.565493

>  <r_i_glide_erotb>  (306) 
0.0717077

>  <r_i_glide_esite>  (306) 
0

>  <r_i_glide_emodel>  (306) 
-30.6018

>  <r_i_glide_energy>  (306) 
-27.8606

>  <r_i_glide_einternal>  (306) 
0.167343

>  <r_i_glide_intrahb_reward>  (306) 
-0

>  <i_i_glide_confnum>  (306) 
3

>  <i_i_glide_posenum>  (306) 
9

>  <r_i_glide_eff_state_penalty>  (306) 
0

>  <ligand_id>  (306) 
81

>  <original_smiles>  (306) 
C=C1C(=O)OC2C(C)C3=CCC4C5C6CC4(C)C3(C)OOC(c3ccco3)CC3OC3(C12)C5C(C)C(C)(C)O6

>  <smiles>  (306) 
[H]C([H])=C1C(=O)OC2([H])C([H])(C([H])([H])[H])C3=C([H])C([H])([H])C4([H])C5([H])C6([H])OC(C([H])([H])[H])(C([H])([H])[H])C([H])(C([H])([H])[H])C5([H])C5(OC5([H])C([H])([H])C([H])(c5oc([H])c([H])c5[H])OOC3(C([H])([H])[H])C4(C([H])([H])[H])C6([H])[H])C12[H]

$$$$
81:1:0
     RDKit          3D

 79 86  0  0  1  0  0  0  0  0999 V2000
    6.0737   -2.2650    6.4439 C   0  0  0  0  0  0  0  0  0  0  0  0
    5.4098   -1.7520    5.3935 C   0  0  0  0  0  0  0  0  0  0  0  0
    5.1372   -0.3206    5.2306 C   0  0  0  0  0  0  0  0  0  0  0  0
    5.6350    0.5998    5.8783 O   0  0  0  0  0  0  0  0  0  0  0  0
    4.2935   -0.1802    4.2084 O   0  0  0  0  0  0  0  0  0  0  0  0
    3.7026   -1.4119    3.8032 C   0  0  1  0  0  0  0  0  0  0  0  0
    3.0553   -1.3930    2.3734 C   0  0  1  0  0  0  0  0  0  0  0  0
    2.5504    0.0028    1.9430 C   0  0  0  0  0  0  0  0  0  0  0  0
    3.9722   -2.0248    1.3361 C   0  0  0  0  0  0  0  0  0  0  0  0
    5.1967   -1.4992    1.2516 C   0  0  0  0  0  0  0  0  0  0  0  0
    6.3897   -2.3146    0.9032 C   0  0  0  0  0  0  0  0  0  0  0  0
    6.0586   -3.8088    0.9119 C   0  0  1  0  0  0  0  0  0  0  0  0
    6.2013   -4.7523    2.1599 C   0  0  2  0  0  0  0  0  0  0  0  0
    6.0347   -6.0557    1.3478 C   0  0  2  0  0  0  0  0  0  0  0  0
    4.8960   -5.7485    0.3235 C   0  0  0  0  0  0  0  0  0  0  0  0
    4.8082   -4.1967    0.1387 C   0  0  2  0  0  0  0  0  0  0  0  0
    4.9786   -3.8387   -1.3622 C   0  0  0  0  0  0  0  0  0  0  0  0
    3.5792   -3.4245    0.7762 C   0  0  2  0  0  0  0  0  0  0  0  0
    2.4321   -3.2101   -0.2138 C   0  0  0  0  0  0  0  0  0  0  0  0
    3.1199   -4.1206    1.9135 O   0  0  0  0  0  0  0  0  0  0  0  0
    2.1251   -5.2094    1.6601 O   0  0  0  0  0  0  0  0  0  0  0  0
    1.3507   -5.3409    2.8621 C   0  0  1  0  0  0  0  0  0  0  0  0
    0.4071   -6.4869    2.6523 C   0  0  0  0  0  0  0  0  0  0  0  0
    0.2559   -7.4420    1.6825 C   0  0  0  0  0  0  0  0  0  0  0  0
   -0.8512   -8.2525    2.0806 C   0  0  0  0  0  0  0  0  0  0  0  0
   -1.2961   -7.7351    3.2597 C   0  0  0  0  0  0  0  0  0  0  0  0
   -0.5473   -6.6540    3.6155 O   0  0  0  0  0  0  0  0  0  0  0  0
    2.1969   -5.5027    4.1553 C   0  0  0  0  0  0  0  0  0  0  0  0
    2.9450   -4.2307    4.5566 C   0  0  1  0  0  0  0  0  0  0  0  0
    3.9214   -4.3527    5.5590 O   0  0  0  0  0  0  0  0  0  0  0  0
    4.4517   -3.9275    4.2793 C   0  0  2  0  0  0  0  0  0  0  0  0
    4.8402   -2.4386    4.1715 C   0  0  2  0  0  0  0  0  0  0  0  0
    5.2950   -5.0011    3.4677 C   0  0  2  0  0  0  0  0  0  0  0  0
    6.1376   -6.0562    4.2782 C   0  0  1  0  0  0  0  0  0  0  0  0
    5.7521   -6.3784    5.7399 C   0  0  0  0  0  0  0  0  0  0  0  0
    6.3450   -7.3546    3.4030 C   0  0  0  0  0  0  0  0  0  0  0  0
    7.8435   -7.6837    3.2349 C   0  0  0  0  0  0  0  0  0  0  0  0
    5.5954   -8.5971    3.9378 C   0  0  0  0  0  0  0  0  0  0  0  0
    5.7434   -7.2262    2.1082 O   0  0  0  0  0  0  0  0  0  0  0  0
    6.2789   -3.3224    6.5188 H   0  0  0  0  0  0  0  0  0  0  0  0
    6.4468   -1.6272    7.2380 H   0  0  0  0  0  0  0  0  0  0  0  0
    2.8785   -1.5051    4.5095 H   0  0  0  0  0  0  0  0  0  0  0  0
    2.1577   -2.0082    2.4334 H   0  0  0  0  0  0  0  0  0  0  0  0
    1.9791   -0.0516    1.0139 H   0  0  0  0  0  0  0  0  0  0  0  0
    3.3705    0.7041    1.7783 H   0  0  0  0  0  0  0  0  0  0  0  0
    1.8974    0.4365    2.7031 H   0  0  0  0  0  0  0  0  0  0  0  0
    5.4299   -0.5553    1.7294 H   0  0  0  0  0  0  0  0  0  0  0  0
    6.7668   -1.9923   -0.0691 H   0  0  0  0  0  0  0  0  0  0  0  0
    7.1602   -2.1154    1.6395 H   0  0  0  0  0  0  0  0  0  0  0  0
    6.8898   -4.1391    0.2863 H   0  0  0  0  0  0  0  0  0  0  0  0
    7.2372   -4.6600    2.4746 H   0  0  0  0  0  0  0  0  0  0  0  0
    6.9621   -6.2568    0.8106 H   0  0  0  0  0  0  0  0  0  0  0  0
    5.1534   -6.2354   -0.6195 H   0  0  0  0  0  0  0  0  0  0  0  0
    3.9541   -6.2002    0.6198 H   0  0  0  0  0  0  0  0  0  0  0  0
    4.1729   -4.2497   -1.9698 H   0  0  0  0  0  0  0  0  0  0  0  0
    5.9032   -4.2437   -1.7688 H   0  0  0  0  0  0  0  0  0  0  0  0
    4.9921   -2.7599   -1.5248 H   0  0  0  0  0  0  0  0  0  0  0  0
    2.6955   -2.4998   -0.9983 H   0  0  0  0  0  0  0  0  0  0  0  0
    1.6147   -2.7302    0.3158 H   0  0  0  0  0  0  0  0  0  0  0  0
    2.0723   -4.1269   -0.6870 H   0  0  0  0  0  0  0  0  0  0  0  0
    0.7551   -4.4336    2.9710 H   0  0  0  0  0  0  0  0  0  0  0  0
    0.8720   -7.5543    0.8054 H   0  0  0  0  0  0  0  0  0  0  0  0
   -1.2725   -9.1173    1.5846 H   0  0  0  0  0  0  0  0  0  0  0  0
   -2.0841   -8.0095    3.9517 H   0  0  0  0  0  0  0  0  0  0  0  0
    1.5290   -5.7297    4.9883 H   0  0  0  0  0  0  0  0  0  0  0  0
    2.8588   -6.3679    4.0868 H   0  0  0  0  0  0  0  0  0  0  0  0
    2.2571   -3.4148    4.7621 H   0  0  0  0  0  0  0  0  0  0  0  0
    5.6842   -2.3874    3.4897 H   0  0  0  0  0  0  0  0  0  0  0  0
    4.4805   -5.5932    3.0831 H   0  0  0  0  0  0  0  0  0  0  0  0
    7.1189   -5.5988    4.4084 H   0  0  0  0  0  0  0  0  0  0  0  0
    4.7323   -6.7488    5.8320 H   0  0  0  0  0  0  0  0  0  0  0  0
    5.8623   -5.5102    6.3862 H   0  0  0  0  0  0  0  0  0  0  0  0
    6.4174   -7.1316    6.1618 H   0  0  0  0  0  0  0  0  0  0  0  0
    8.3165   -7.8784    4.1985 H   0  0  0  0  0  0  0  0  0  0  0  0
    8.3864   -6.8607    2.7694 H   0  0  0  0  0  0  0  0  0  0  0  0
    7.9933   -8.5667    2.6131 H   0  0  0  0  0  0  0  0  0  0  0  0
    5.9728   -8.9495    4.8996 H   0  0  0  0  0  0  0  0  0  0  0  0
    5.6892   -9.4333    3.2407 H   0  0  0  0  0  0  0  0  0  0  0  0
    4.5272   -8.3923    4.0441 H   0  0  0  0  0  0  0  0  0  0  0  0
  1  2  2  0
  1 40  1  0
  1 41  1  0
  2 32  1  0
  2  3  1  0
  3  4  2  0
  3  5  1  0
  5  6  1  0
  6 32  1  0
  6  7  1  0
  6 42  1  1
  7  8  1  0
  7  9  1  0
  7 43  1  1
  8 44  1  0
  8 45  1  0
  8 46  1  0
  9 18  1  0
  9 10  2  0
 10 11  1  0
 10 47  1  0
 11 12  1  0
 11 48  1  0
 11 49  1  0
 12 16  1  0
 12 13  1  0
 12 50  1  6
 13 33  1  0
 13 14  1  0
 13 51  1  1
 14 39  1  0
 14 15  1  0
 14 52  1  6
 15 16  1  0
 15 53  1  0
 15 54  1  0
 16 17  1  6
 16 18  1  0
 17 55  1  0
 17 56  1  0
 17 57  1  0
 18 19  1  6
 18 20  1  0
 19 58  1  0
 19 59  1  0
 19 60  1  0
 20 21  1  0
 21 22  1  0
 22 23  1  0
 22 28  1  0
 22 61  1  1
 23 27  1  0
 23 24  2  0
 24 25  1  0
 24 62  1  0
 25 26  2  0
 25 63  1  0
 26 27  1  0
 26 64  1  0
 28 29  1  0
 28 65  1  0
 28 66  1  0
 29 31  1  0
 29 30  1  0
 29 67  1  1
 31 30  1  1
 31 32  1  0
 31 33  1  0
 32 68  1  6
 33 34  1  0
 33 69  1  6
 34 35  1  0
 34 36  1  0
 34 70  1  1
 35 71  1  0
 35 72  1  0
 35 73  1  0
 36 37  1  0
 36 38  1  0
 36 39  1  0
 37 74  1  0
 37 75  1  0
 37 76  1  0
 38 77  1  0
 38 78  1  0
 38 79  1  0
M  END
>  <i_m_ct_stereo_status>  (307) 
1

>  <s_m_source_file>  (307) 
/var/tmp/pbs.5076255.sched01/tmpk9_hntje/1089a46f3po.sdf

>  <i_m_source_file_index>  (307) 
43

>  <i_lp_mmshare_version>  (307) 
48012

>  <i_f3d_flags>  (307) 
0

>  <s_epik_input>  (307) 
W0NAQEhdMTJbQ0BASF0oW0NIM10pQyhbQ0gzXSkoW0NIM10pT1tDSF0oW0NIMl1bQ0BdMzRbQ0gzXSlbQ0BIXTFbQ0BASF0zW0NIMl1bQ0hdPUMoW0NASF0oW0NIM10pW0NASF01W0NASF02Qyg9W0NIMl0pQyg9TylPNSlbQ0BdNChbQ0gzXSlPT1tDQEhdKFtDSDJdW0NIXShPNylDMjY3KWM4W2NIXVtjSF1bY0hdbzg=

>  <s_epik_cmdline>  (307) 
J2VwaWtfcHl0aG9uJywgJy1waHQnLCAnMi4wJywgJy1waCcsICc3LjAnLCAnLXRuJywgJzgnLCAnLW1hJywgJzIwMCcsICctaW1hZScsICc8aW5maWxlLm1hZT4nLCAnLW9tYWUnLCAnPG91dGZpbGUubWFlPic=

>  <r_lp_tautomer_probability>  (307) 
1

>  <r_epik_Ionization_Penalty>  (307) 
1.84806e-11

>  <r_epik_Ionization_Penalty_Charging>  (307) 
0

>  <r_epik_Ionization_Penalty_Neutral>  (307) 
1.84806e-11

>  <r_epik_State_Penalty>  (307) 
-0

>  <r_epik_Charging_Adjusted_Penalty>  (307) 
0

>  <i_epik_Tot_Q>  (307) 
0

>  <i_epik_Tot_abs_Q>  (307) 
0

>  <s_epik_Chemistry_Notes>  (307) 
This compound has an ester and may undergo hydrolysis at high or low pH.

>  <s_lp_Force_Field>  (307) 
OPLS3e

>  <r_lp_Energy>  (307) 
130.068

>  <b_lp_Chiralities_Consistent>  (307) 
1

>  <s_lp_Variant>  (307) 
81:0-2

>  <s_i_glide_gridfile>  (307) 
pfpi4k_grid

>  <i_i_glide_lignum>  (307) 
43

>  <i_i_glide_rotatable_bonds>  (307) 
1

>  <r_i_docking_score>  (307) 
-2.56864

>  <r_i_glide_ligand_efficiency>  (307) 
-0.0658627

>  <r_i_glide_ligand_efficiency_sa>  (307) 
-0.223354

>  <r_i_glide_ligand_efficiency_ln>  (307) 
-0.55079

>  <r_i_glide_gscore>  (307) 
-2.56864

>  <r_i_glide_lipo>  (307) 
-0.634245

>  <r_i_glide_hbond>  (307) 
-0.103694

>  <r_i_glide_metal>  (307) 
-0

>  <r_i_glide_rewards>  (307) 
-0.0587543

>  <r_i_glide_evdw>  (307) 
-29.3922

>  <r_i_glide_ecoul>  (307) 
-2.49364

>  <r_i_glide_erotb>  (307) 
0.0717077

>  <r_i_glide_esite>  (307) 
0

>  <r_i_glide_emodel>  (307) 
-35.5575

>  <r_i_glide_energy>  (307) 
-31.8859

>  <r_i_glide_einternal>  (307) 
0.964791

>  <r_i_glide_intrahb_reward>  (307) 
-0

>  <i_i_glide_confnum>  (307) 
5

>  <i_i_glide_posenum>  (307) 
1

>  <r_i_glide_eff_state_penalty>  (307) 
0

>  <ligand_id>  (307) 
81

>  <original_smiles>  (307) 
C=C1C(=O)OC2C(C)C3=CCC4C5C6CC4(C)C3(C)OOC(c3ccco3)CC3OC3(C12)C5C(C)C(C)(C)O6

>  <smiles>  (307) 
[H]C([H])=C1C(=O)OC2([H])C([H])(C([H])([H])[H])C3=C([H])C([H])([H])C4([H])C5([H])C6([H])OC(C([H])([H])[H])(C([H])([H])[H])C([H])(C([H])([H])[H])C5([H])C5(OC5([H])C([H])([H])C([H])(c5oc([H])c([H])c5[H])OOC3(C([H])([H])[H])C4(C([H])([H])[H])C6([H])[H])C12[H]

$$$$
81:1:1
     RDKit          3D

 79 86  0  0  1  0  0  0  0  0999 V2000
    0.3226   -7.4156    1.6848 C   0  0  0  0  0  0  0  0  0  0  0  0
    0.1937   -7.1267    2.9895 C   0  0  0  0  0  0  0  0  0  0  0  0
   -1.0453   -7.3679    3.7397 C   0  0  0  0  0  0  0  0  0  0  0  0
   -2.0151   -8.0216    3.3638 O   0  0  0  0  0  0  0  0  0  0  0  0
   -0.9425   -6.7287    4.9099 O   0  0  0  0  0  0  0  0  0  0  0  0
    0.1487   -5.8139    4.9543 C   0  0  1  0  0  0  0  0  0  0  0  0
    0.6061   -5.3792    6.3938 C   0  0  1  0  0  0  0  0  0  0  0  0
   -0.5110   -5.4346    7.4553 C   0  0  0  0  0  0  0  0  0  0  0  0
    1.8504   -6.1338    6.8291 C   0  0  0  0  0  0  0  0  0  0  0  0
    1.7661   -7.4724    6.7764 C   0  0  0  0  0  0  0  0  0  0  0  0
    2.9298   -8.3363    6.4439 C   0  0  0  0  0  0  0  0  0  0  0  0
    4.1086   -7.4918    5.9550 C   0  0  1  0  0  0  0  0  0  0  0  0
    4.3823   -7.1492    4.4455 C   0  0  2  0  0  0  0  0  0  0  0  0
    5.8187   -6.6348    4.7010 C   0  0  2  0  0  0  0  0  0  0  0  0
    5.7243   -5.8080    6.0243 C   0  0  0  0  0  0  0  0  0  0  0  0
    4.4609   -6.2839    6.8194 C   0  0  2  0  0  0  0  0  0  0  0  0
    4.9003   -6.7442    8.2333 C   0  0  0  0  0  0  0  0  0  0  0  0
    3.1860   -5.3320    6.8896 C   0  0  2  0  0  0  0  0  0  0  0  0
    3.1325   -4.4254    8.1413 C   0  0  0  0  0  0  0  0  0  0  0  0
    3.1559   -4.5351    5.7250 O   0  0  0  0  0  0  0  0  0  0  0  0
    3.9315   -3.2557    5.7866 O   0  0  0  0  0  0  0  0  0  0  0  0
    3.2822   -2.3456    4.8917 C   0  0  1  0  0  0  0  0  0  0  0  0
    4.0957   -1.0902    4.8773 C   0  0  0  0  0  0  0  0  0  0  0  0
    3.9198    0.1447    5.4415 C   0  0  0  0  0  0  0  0  0  0  0  0
    5.0327    0.9373    5.0409 C   0  0  0  0  0  0  0  0  0  0  0  0
    5.8014    0.1316    4.2484 C   0  0  0  0  0  0  0  0  0  0  0  0
    5.2532   -1.1136    4.1561 O   0  0  0  0  0  0  0  0  0  0  0  0
    3.0545   -2.9185    3.4602 C   0  0  0  0  0  0  0  0  0  0  0  0
    1.9920   -4.0204    3.4012 C   0  0  1  0  0  0  0  0  0  0  0  0
    1.8999   -4.7686    2.2130 O   0  0  0  0  0  0  0  0  0  0  0  0
    2.2668   -5.5634    3.3626 C   0  0  2  0  0  0  0  0  0  0  0  0
    1.1638   -6.4741    3.9437 C   0  0  2  0  0  0  0  0  0  0  0  0
    3.7690   -6.0574    3.4368 C   0  0  2  0  0  0  0  0  0  0  0  0
    4.5225   -6.3717    2.0896 C   0  0  1  0  0  0  0  0  0  0  0  0
    4.0299   -5.7258    0.7749 C   0  0  0  0  0  0  0  0  0  0  0  0
    6.0790   -6.2133    2.3013 C   0  0  0  0  0  0  0  0  0  0  0  0
    6.8348   -7.5074    1.9312 C   0  0  0  0  0  0  0  0  0  0  0  0
    6.6967   -5.0171    1.5417 C   0  0  0  0  0  0  0  0  0  0  0  0
    6.3943   -5.8576    3.6535 O   0  0  0  0  0  0  0  0  0  0  0  0
    1.2320   -7.2060    1.1442 H   0  0  0  0  0  0  0  0  0  0  0  0
   -0.4881   -7.8744    1.1325 H   0  0  0  0  0  0  0  0  0  0  0  0
   -0.2924   -4.9272    4.5031 H   0  0  0  0  0  0  0  0  0  0  0  0
    0.8714   -4.3240    6.3266 H   0  0  0  0  0  0  0  0  0  0  0  0
   -0.1933   -4.9850    8.3973 H   0  0  0  0  0  0  0  0  0  0  0  0
   -0.7863   -6.4624    7.6807 H   0  0  0  0  0  0  0  0  0  0  0  0
   -1.4084   -4.9133    7.1192 H   0  0  0  0  0  0  0  0  0  0  0  0
    0.8104   -7.9639    6.6637 H   0  0  0  0  0  0  0  0  0  0  0  0
    3.1953   -8.9113    7.3327 H   0  0  0  0  0  0  0  0  0  0  0  0
    2.6501   -9.0532    5.6704 H   0  0  0  0  0  0  0  0  0  0  0  0
    4.8933   -8.2217    6.1637 H   0  0  0  0  0  0  0  0  0  0  0  0
    4.4119   -8.1077    3.9275 H   0  0  0  0  0  0  0  0  0  0  0  0
    6.4815   -7.4881    4.8552 H   0  0  0  0  0  0  0  0  0  0  0  0
    6.6380   -5.9965    6.5924 H   0  0  0  0  0  0  0  0  0  0  0  0
    5.7271   -4.7387    5.8355 H   0  0  0  0  0  0  0  0  0  0  0  0
    5.3230   -5.9230    8.8104 H   0  0  0  0  0  0  0  0  0  0  0  0
    5.6687   -7.5146    8.1854 H   0  0  0  0  0  0  0  0  0  0  0  0
    4.0693   -7.1570    8.8041 H   0  0  0  0  0  0  0  0  0  0  0  0
    2.9406   -5.0179    9.0373 H   0  0  0  0  0  0  0  0  0  0  0  0
    2.3153   -3.7050    8.0721 H   0  0  0  0  0  0  0  0  0  0  0  0
    4.0567   -3.8671    8.3016 H   0  0  0  0  0  0  0  0  0  0  0  0
    2.3061   -2.1049    5.3125 H   0  0  0  0  0  0  0  0  0  0  0  0
    3.0912    0.4391    6.0630 H   0  0  0  0  0  0  0  0  0  0  0  0
    5.2465    1.9693    5.2824 H   0  0  0  0  0  0  0  0  0  0  0  0
    6.7251    0.2697    3.6972 H   0  0  0  0  0  0  0  0  0  0  0  0
    2.6979   -2.1145    2.8136 H   0  0  0  0  0  0  0  0  0  0  0  0
    3.9950   -3.2361    3.0101 H   0  0  0  0  0  0  0  0  0  0  0  0
    1.0246   -3.6439    3.7131 H   0  0  0  0  0  0  0  0  0  0  0  0
    1.6620   -7.3504    4.3468 H   0  0  0  0  0  0  0  0  0  0  0  0
    4.2322   -5.1401    3.7646 H   0  0  0  0  0  0  0  0  0  0  0  0
    4.3341   -7.4288    1.8960 H   0  0  0  0  0  0  0  0  0  0  0  0
    4.0332   -4.6377    0.8177 H   0  0  0  0  0  0  0  0  0  0  0  0
    3.0277   -6.0563    0.5131 H   0  0  0  0  0  0  0  0  0  0  0  0
    4.6536   -6.0264   -0.0670 H   0  0  0  0  0  0  0  0  0  0  0  0
    6.6883   -7.7597    0.8811 H   0  0  0  0  0  0  0  0  0  0  0  0
    6.4840   -8.3556    2.5206 H   0  0  0  0  0  0  0  0  0  0  0  0
    7.9076   -7.4085    2.1000 H   0  0  0  0  0  0  0  0  0  0  0  0
    6.6570   -5.1303    0.4572 H   0  0  0  0  0  0  0  0  0  0  0  0
    7.7478   -4.8957    1.8086 H   0  0  0  0  0  0  0  0  0  0  0  0
    6.1910   -4.0856    1.8090 H   0  0  0  0  0  0  0  0  0  0  0  0
  1  2  2  0
  1 40  1  0
  1 41  1  0
  2 32  1  0
  2  3  1  0
  3  4  2  0
  3  5  1  0
  5  6  1  0
  6 32  1  0
  6  7  1  0
  6 42  1  6
  7  8  1  0
  7  9  1  0
  7 43  1  6
  8 44  1  0
  8 45  1  0
  8 46  1  0
  9 18  1  0
  9 10  2  0
 10 11  1  0
 10 47  1  0
 11 12  1  0
 11 48  1  0
 11 49  1  0
 12 16  1  0
 12 13  1  0
 12 50  1  1
 13 33  1  0
 13 14  1  0
 13 51  1  6
 14 39  1  0
 14 15  1  0
 14 52  1  1
 15 16  1  0
 15 53  1  0
 15 54  1  0
 16 17  1  1
 16 18  1  0
 17 55  1  0
 17 56  1  0
 17 57  1  0
 18 19  1  1
 18 20  1  0
 19 58  1  0
 19 59  1  0
 19 60  1  0
 20 21  1  0
 21 22  1  0
 22 23  1  0
 22 28  1  0
 22 61  1  1
 23 27  1  0
 23 24  2  0
 24 25  1  0
 24 62  1  0
 25 26  2  0
 25 63  1  0
 26 27  1  0
 26 64  1  0
 28 29  1  0
 28 65  1  0
 28 66  1  0
 29 31  1  0
 29 30  1  0
 29 67  1  1
 31 30  1  6
 31 32  1  0
 31 33  1  0
 32 68  1  1
 33 34  1  0
 33 69  1  1
 34 35  1  0
 34 36  1  0
 34 70  1  6
 35 71  1  0
 35 72  1  0
 35 73  1  0
 36 37  1  0
 36 38  1  0
 36 39  1  0
 37 74  1  0
 37 75  1  0
 37 76  1  0
 38 77  1  0
 38 78  1  0
 38 79  1  0
M  END
>  <i_m_ct_stereo_status>  (308) 
1

>  <s_m_source_file>  (308) 
/var/tmp/pbs.5076255.sched01/tmpk9_hntje/1089a46f3po.sdf

>  <i_m_source_file_index>  (308) 
43

>  <i_lp_mmshare_version>  (308) 
48012

>  <i_f3d_flags>  (308) 
0

>  <s_epik_input>  (308) 
W0NAQEhdMTJbQ0BASF0oW0NIM10pQyhbQ0gzXSkoW0NIM10pT1tDSF0oW0NIMl1bQ0BdMzRbQ0gzXSlbQ0BIXTFbQ0BASF0zW0NIMl1bQ0hdPUMoW0NASF0oW0NIM10pW0NASF01W0NASF02Qyg9W0NIMl0pQyg9TylPNSlbQ0BdNChbQ0gzXSlPT1tDQEhdKFtDSDJdW0NIXShPNylDMjY3KWM4W2NIXVtjSF1bY0hdbzg=

>  <s_epik_cmdline>  (308) 
J2VwaWtfcHl0aG9uJywgJy1waHQnLCAnMi4wJywgJy1waCcsICc3LjAnLCAnLXRuJywgJzgnLCAnLW1hJywgJzIwMCcsICctaW1hZScsICc8aW5maWxlLm1hZT4nLCAnLW9tYWUnLCAnPG91dGZpbGUubWFlPic=

>  <r_lp_tautomer_probability>  (308) 
1

>  <r_epik_Ionization_Penalty>  (308) 
1.84806e-11

>  <r_epik_Ionization_Penalty_Charging>  (308) 
0

>  <r_epik_Ionization_Penalty_Neutral>  (308) 
1.84806e-11

>  <r_epik_State_Penalty>  (308) 
-0

>  <r_epik_Charging_Adjusted_Penalty>  (308) 
0

>  <i_epik_Tot_Q>  (308) 
0

>  <i_epik_Tot_abs_Q>  (308) 
0

>  <s_epik_Chemistry_Notes>  (308) 
This compound has an ester and may undergo hydrolysis at high or low pH.

>  <s_lp_Force_Field>  (308) 
OPLS3e

>  <r_lp_Energy>  (308) 
130.068

>  <b_lp_Chiralities_Consistent>  (308) 
1

>  <s_lp_Variant>  (308) 
81:0-2

>  <s_i_glide_gridfile>  (308) 
pfpi4k_grid

>  <i_i_glide_lignum>  (308) 
43

>  <i_i_glide_rotatable_bonds>  (308) 
1

>  <r_i_docking_score>  (308) 
-1.99276

>  <r_i_glide_ligand_efficiency>  (308) 
-0.0510964

>  <r_i_glide_ligand_efficiency_sa>  (308) 
-0.173279

>  <r_i_glide_ligand_efficiency_ln>  (308) 
-0.427304

>  <r_i_glide_gscore>  (308) 
-1.99276

>  <r_i_glide_lipo>  (308) 
-0.464955

>  <r_i_glide_hbond>  (308) 
0

>  <r_i_glide_metal>  (308) 
-0

>  <r_i_glide_rewards>  (308) 
0

>  <r_i_glide_evdw>  (308) 
-28.1431

>  <r_i_glide_ecoul>  (308) 
-0.855957

>  <r_i_glide_erotb>  (308) 
0.0717077

>  <r_i_glide_esite>  (308) 
-0.0639614

>  <r_i_glide_emodel>  (308) 
-31.8951

>  <r_i_glide_energy>  (308) 
-28.9991

>  <r_i_glide_einternal>  (308) 
0.611617

>  <r_i_glide_intrahb_reward>  (308) 
-0

>  <i_i_glide_confnum>  (308) 
1

>  <i_i_glide_posenum>  (308) 
3

>  <r_i_glide_eff_state_penalty>  (308) 
0

>  <ligand_id>  (308) 
81

>  <original_smiles>  (308) 
C=C1C(=O)OC2C(C)C3=CCC4C5C6CC4(C)C3(C)OOC(c3ccco3)CC3OC3(C12)C5C(C)C(C)(C)O6

>  <smiles>  (308) 
[H]C([H])=C1C(=O)OC2([H])C([H])(C([H])([H])[H])C3=C([H])C([H])([H])C4([H])C5([H])C6([H])OC(C([H])([H])[H])(C([H])([H])[H])C([H])(C([H])([H])[H])C5([H])C5(OC5([H])C([H])([H])C([H])(c5oc([H])c([H])c5[H])OOC3(C([H])([H])[H])C4(C([H])([H])[H])C6([H])[H])C12[H]

$$$$
81:1:2
     RDKit          3D

 79 86  0  0  1  0  0  0  0  0999 V2000
   -0.9271    1.8846    9.4756 C   0  0  0  0  0  0  0  0  0  0  0  0
   -1.0391    2.4877    8.2792 C   0  0  0  0  0  0  0  0  0  0  0  0
   -2.3173    2.9710    7.7420 C   0  0  0  0  0  0  0  0  0  0  0  0
   -3.3757    3.0947    8.3556 O   0  0  0  0  0  0  0  0  0  0  0  0
   -2.1228    3.2958    6.4566 O   0  0  0  0  0  0  0  0  0  0  0  0
   -0.8917    2.7949    5.9404 C   0  0  1  0  0  0  0  0  0  0  0  0
   -0.3960    3.4864    4.6198 C   0  0  1  0  0  0  0  0  0  0  0  0
   -1.5426    4.0498    3.7573 C   0  0  0  0  0  0  0  0  0  0  0  0
    0.6830    4.5207    4.8991 C   0  0  0  0  0  0  0  0  0  0  0  0
    0.3610    5.4642    5.7977 C   0  0  0  0  0  0  0  0  0  0  0  0
    1.3546    6.0669    6.7235 C   0  0  0  0  0  0  0  0  0  0  0  0
    2.6772    5.3022    6.6678 C   0  0  1  0  0  0  0  0  0  0  0  0
    3.0433    4.1029    7.6168 C   0  0  2  0  0  0  0  0  0  0  0  0
    4.5426    4.1103    7.2369 C   0  0  2  0  0  0  0  0  0  0  0  0
    4.5653    4.3461    5.6940 C   0  0  0  0  0  0  0  0  0  0  0  0
    3.2211    5.0254    5.2694 C   0  0  2  0  0  0  0  0  0  0  0  0
    3.5358    6.3548    4.5358 C   0  0  0  0  0  0  0  0  0  0  0  0
    2.1417    4.1690    4.4736 C   0  0  2  0  0  0  0  0  0  0  0  0
    2.2352    4.3004    2.9387 C   0  0  0  0  0  0  0  0  0  0  0  0
    2.2785    2.8122    4.8403 O   0  0  0  0  0  0  0  0  0  0  0  0
    3.2687    2.0159    4.0491 O   0  0  0  0  0  0  0  0  0  0  0  0
    2.8144    0.6576    4.0651 C   0  0  1  0  0  0  0  0  0  0  0  0
    3.8614   -0.1567    3.3671 C   0  0  0  0  0  0  0  0  0  0  0  0
    4.6425   -1.2149    3.7488 C   0  0  0  0  0  0  0  0  0  0  0  0
    5.4106   -1.5885    2.6093 C   0  0  0  0  0  0  0  0  0  0  0  0
    5.0450   -0.7243    1.6145 C   0  0  0  0  0  0  0  0  0  0  0  0
    4.0997    0.1445    2.0611 O   0  0  0  0  0  0  0  0  0  0  0  0
    2.5233    0.1240    5.5001 C   0  0  0  0  0  0  0  0  0  0  0  0
    1.2826    0.7373    6.1473 C   0  0  1  0  0  0  0  0  0  0  0  0
    1.0865    0.4946    7.5176 O   0  0  0  0  0  0  0  0  0  0  0  0
    1.2757    1.8917    7.2012 C   0  0  2  0  0  0  0  0  0  0  0  0
    0.0104    2.7753    7.2355 C   0  0  2  0  0  0  0  0  0  0  0  0
    2.6622    2.5405    7.6127 C   0  0  2  0  0  0  0  0  0  0  0  0
    3.3808    2.0084    8.9085 C   0  0  1  0  0  0  0  0  0  0  0  0
    3.0457    0.5965    9.4369 C   0  0  0  0  0  0  0  0  0  0  0  0
    4.9345    2.2662    8.8011 C   0  0  0  0  0  0  0  0  0  0  0  0
    5.4514    3.0979    9.9941 C   0  0  0  0  0  0  0  0  0  0  0  0
    5.7770    0.9770    8.6645 C   0  0  0  0  0  0  0  0  0  0  0  0
    5.2761    2.9375    7.5821 O   0  0  0  0  0  0  0  0  0  0  0  0
    0.0214    1.5216    9.8401 H   0  0  0  0  0  0  0  0  0  0  0  0
   -1.7849    1.7529   10.1228 H   0  0  0  0  0  0  0  0  0  0  0  0
   -1.1683    1.7791    5.6641 H   0  0  0  0  0  0  0  0  0  0  0  0
    0.0527    2.7041    4.0067 H   0  0  0  0  0  0  0  0  0  0  0  0
   -1.1729    4.3976    2.7916 H   0  0  0  0  0  0  0  0  0  0  0  0
   -2.0275    4.8910    4.2464 H   0  0  0  0  0  0  0  0  0  0  0  0
   -2.3068    3.2944    3.5663 H   0  0  0  0  0  0  0  0  0  0  0  0
   -0.6630    5.6013    6.1079 H   0  0  0  0  0  0  0  0  0  0  0  0
    1.4925    7.1132    6.4459 H   0  0  0  0  0  0  0  0  0  0  0  0
    0.9703    6.0488    7.7439 H   0  0  0  0  0  0  0  0  0  0  0  0
    3.3121    6.0997    7.0580 H   0  0  0  0  0  0  0  0  0  0  0  0
    2.9119    4.4793    8.6309 H   0  0  0  0  0  0  0  0  0  0  0  0
    5.0363    4.9453    7.7368 H   0  0  0  0  0  0  0  0  0  0  0  0
    5.4194    4.9884    5.4669 H   0  0  0  0  0  0  0  0  0  0  0  0
    4.7441    3.4203    5.1597 H   0  0  0  0  0  0  0  0  0  0  0  0
    4.0838    6.1836    3.6098 H   0  0  0  0  0  0  0  0  0  0  0  0
    4.1539    7.0135    5.1436 H   0  0  0  0  0  0  0  0  0  0  0  0
    2.6298    6.9057    4.2835 H   0  0  0  0  0  0  0  0  0  0  0  0
    1.9075    5.2888    2.6118 H   0  0  0  0  0  0  0  0  0  0  0  0
    1.5629    3.5853    2.4632 H   0  0  0  0  0  0  0  0  0  0  0  0
    3.2381    4.1316    2.5438 H   0  0  0  0  0  0  0  0  0  0  0  0
    1.8970    0.5942    3.4814 H   0  0  0  0  0  0  0  0  0  0  0  0
    4.6525   -1.6695    4.7270 H   0  0  0  0  0  0  0  0  0  0  0  0
    6.1370   -2.3828    2.5176 H   0  0  0  0  0  0  0  0  0  0  0  0
    5.3397   -0.6065    0.5797 H   0  0  0  0  0  0  0  0  0  0  0  0
    2.3260   -0.9483    5.4453 H   0  0  0  0  0  0  0  0  0  0  0  0
    3.4042    0.2101    6.1381 H   0  0  0  0  0  0  0  0  0  0  0  0
    0.3936    0.5180    5.5671 H   0  0  0  0  0  0  0  0  0  0  0  0
    0.3310    3.7645    7.5452 H   0  0  0  0  0  0  0  0  0  0  0  0
    3.2767    2.1461    6.8193 H   0  0  0  0  0  0  0  0  0  0  0  0
    3.0096    2.6370    9.7193 H   0  0  0  0  0  0  0  0  0  0  0  0
    3.2444   -0.1825    8.7026 H   0  0  0  0  0  0  0  0  0  0  0  0
    2.0069    0.5191    9.7487 H   0  0  0  0  0  0  0  0  0  0  0  0
    3.6269    0.3669   10.3297 H   0  0  0  0  0  0  0  0  0  0  0  0
    5.2862    2.5766   10.9380 H   0  0  0  0  0  0  0  0  0  0  0  0
    4.9396    4.0590   10.0602 H   0  0  0  0  0  0  0  0  0  0  0  0
    6.5191    3.2983    9.9062 H   0  0  0  0  0  0  0  0  0  0  0  0
    5.7447    0.3469    9.5550 H   0  0  0  0  0  0  0  0  0  0  0  0
    6.8260    1.2205    8.4884 H   0  0  0  0  0  0  0  0  0  0  0  0
    5.4401    0.3823    7.8116 H   0  0  0  0  0  0  0  0  0  0  0  0
  1  2  2  0
  1 40  1  0
  1 41  1  0
  2 32  1  0
  2  3  1  0
  3  4  2  0
  3  5  1  0
  5  6  1  0
  6 32  1  0
  6  7  1  0
  6 42  1  6
  7  8  1  0
  7  9  1  0
  7 43  1  6
  8 44  1  0
  8 45  1  0
  8 46  1  0
  9 18  1  0
  9 10  2  0
 10 11  1  0
 10 47  1  0
 11 12  1  0
 11 48  1  0
 11 49  1  0
 12 16  1  0
 12 13  1  0
 12 50  1  1
 13 33  1  0
 13 14  1  0
 13 51  1  1
 14 39  1  0
 14 15  1  0
 14 52  1  1
 15 16  1  0
 15 53  1  0
 15 54  1  0
 16 17  1  6
 16 18  1  0
 17 55  1  0
 17 56  1  0
 17 57  1  0
 18 19  1  6
 18 20  1  0
 19 58  1  0
 19 59  1  0
 19 60  1  0
 20 21  1  0
 21 22  1  0
 22 23  1  0
 22 28  1  0
 22 61  1  6
 23 27  1  0
 23 24  2  0
 24 25  1  0
 24 62  1  0
 25 26  2  0
 25 63  1  0
 26 27  1  0
 26 64  1  0
 28 29  1  0
 28 65  1  0
 28 66  1  0
 29 31  1  0
 29 30  1  0
 29 67  1  6
 31 30  1  1
 31 32  1  0
 31 33  1  0
 32 68  1  1
 33 34  1  0
 33 69  1  6
 34 35  1  0
 34 36  1  0
 34 70  1  1
 35 71  1  0
 35 72  1  0
 35 73  1  0
 36 37  1  0
 36 38  1  0
 36 39  1  0
 37 74  1  0
 37 75  1  0
 37 76  1  0
 38 77  1  0
 38 78  1  0
 38 79  1  0
M  END
>  <i_m_ct_stereo_status>  (309) 
1

>  <s_m_source_file>  (309) 
/var/tmp/pbs.5076255.sched01/tmpk9_hntje/1089a46f3po.sdf

>  <i_m_source_file_index>  (309) 
43

>  <i_lp_mmshare_version>  (309) 
48012

>  <i_f3d_flags>  (309) 
0

>  <s_epik_input>  (309) 
W0NAQEhdMTJbQ0BASF0oW0NIM10pQyhbQ0gzXSkoW0NIM10pT1tDSF0oW0NIMl1bQ0BdMzRbQ0gzXSlbQ0BIXTFbQ0BASF0zW0NIMl1bQ0hdPUMoW0NASF0oW0NIM10pW0NASF01W0NASF02Qyg9W0NIMl0pQyg9TylPNSlbQ0BdNChbQ0gzXSlPT1tDQEhdKFtDSDJdW0NIXShPNylDMjY3KWM4W2NIXVtjSF1bY0hdbzg=

>  <s_epik_cmdline>  (309) 
J2VwaWtfcHl0aG9uJywgJy1waHQnLCAnMi4wJywgJy1waCcsICc3LjAnLCAnLXRuJywgJzgnLCAnLW1hJywgJzIwMCcsICctaW1hZScsICc8aW5maWxlLm1hZT4nLCAnLW9tYWUnLCAnPG91dGZpbGUubWFlPic=

>  <r_lp_tautomer_probability>  (309) 
1

>  <r_epik_Ionization_Penalty>  (309) 
1.84806e-11

>  <r_epik_Ionization_Penalty_Charging>  (309) 
0

>  <r_epik_Ionization_Penalty_Neutral>  (309) 
1.84806e-11

>  <r_epik_State_Penalty>  (309) 
-0

>  <r_epik_Charging_Adjusted_Penalty>  (309) 
0

>  <i_epik_Tot_Q>  (309) 
0

>  <i_epik_Tot_abs_Q>  (309) 
0

>  <s_epik_Chemistry_Notes>  (309) 
This compound has an ester and may undergo hydrolysis at high or low pH.

>  <s_lp_Force_Field>  (309) 
OPLS3e

>  <r_lp_Energy>  (309) 
130.068

>  <b_lp_Chiralities_Consistent>  (309) 
1

>  <s_lp_Variant>  (309) 
81:0-2

>  <s_i_glide_gridfile>  (309) 
pfpi4k_grid

>  <i_i_glide_lignum>  (309) 
43

>  <i_i_glide_rotatable_bonds>  (309) 
1

>  <r_i_docking_score>  (309) 
-1.8148

>  <r_i_glide_ligand_efficiency>  (309) 
-0.0465334

>  <r_i_glide_ligand_efficiency_sa>  (309) 
-0.157805

>  <r_i_glide_ligand_efficiency_ln>  (309) 
-0.389145

>  <r_i_glide_gscore>  (309) 
-1.8148

>  <r_i_glide_lipo>  (309) 
-0.289183

>  <r_i_glide_hbond>  (309) 
0

>  <r_i_glide_metal>  (309) 
-0

>  <r_i_glide_rewards>  (309) 
-0.101693

>  <r_i_glide_evdw>  (309) 
-28.4474

>  <r_i_glide_ecoul>  (309) 
-0.488419

>  <r_i_glide_erotb>  (309) 
0.0717077

>  <r_i_glide_esite>  (309) 
0

>  <r_i_glide_emodel>  (309) 
-31.7895

>  <r_i_glide_energy>  (309) 
-28.9359

>  <r_i_glide_einternal>  (309) 
0.186945

>  <r_i_glide_intrahb_reward>  (309) 
-0

>  <i_i_glide_confnum>  (309) 
3

>  <i_i_glide_posenum>  (309) 
7

>  <r_i_glide_eff_state_penalty>  (309) 
0

>  <ligand_id>  (309) 
81

>  <original_smiles>  (309) 
C=C1C(=O)OC2C(C)C3=CCC4C5C6CC4(C)C3(C)OOC(c3ccco3)CC3OC3(C12)C5C(C)C(C)(C)O6

>  <smiles>  (309) 
[H]C([H])=C1C(=O)OC2([H])C([H])(C([H])([H])[H])C3=C([H])C([H])([H])C4([H])C5([H])C6([H])OC(C([H])([H])[H])(C([H])([H])[H])C([H])(C([H])([H])[H])C5([H])C5(OC5([H])C([H])([H])C([H])(c5oc([H])c([H])c5[H])OOC3(C([H])([H])[H])C4(C([H])([H])[H])C6([H])[H])C12[H]

$$$$
81:2:0
     RDKit          3D

 79 86  0  0  1  0  0  0  0  0999 V2000
    0.6061   -8.8257    2.5332 C   0  0  0  0  0  0  0  0  0  0  0  0
    0.6552   -7.6873    3.2462 C   0  0  0  0  0  0  0  0  0  0  0  0
   -0.5307   -7.0631    3.8372 C   0  0  0  0  0  0  0  0  0  0  0  0
   -1.6616   -7.5230    3.9035 O   0  0  0  0  0  0  0  0  0  0  0  0
   -0.1667   -5.8575    4.3020 O   0  0  0  0  0  0  0  0  0  0  0  0
    1.0985   -5.4294    3.8119 C   0  0  1  0  0  0  0  0  0  0  0  0
    1.7573   -4.2970    4.6884 C   0  0  1  0  0  0  0  0  0  0  0  0
    0.7260   -3.4216    5.4287 C   0  0  0  0  0  0  0  0  0  0  0  0
    2.7988   -4.8791    5.6253 C   0  0  0  0  0  0  0  0  0  0  0  0
    2.3484   -5.8722    6.4156 C   0  0  0  0  0  0  0  0  0  0  0  0
    3.2081   -7.0106    6.8460 C   0  0  0  0  0  0  0  0  0  0  0  0
    4.5626   -6.9265    6.1455 C   0  0  1  0  0  0  0  0  0  0  0  0
    4.9116   -7.5609    4.7619 C   0  0  2  0  0  0  0  0  0  0  0  0
    6.3468   -7.0534    4.5441 C   0  0  1  0  0  0  0  0  0  0  0  0
    6.6369   -6.0219    5.6580 C   0  0  0  0  0  0  0  0  0  0  0  0
    5.2450   -5.5767    6.2258 C   0  0  2  0  0  0  0  0  0  0  0  0
    5.4652   -5.1576    7.7093 C   0  0  0  0  0  0  0  0  0  0  0  0
    4.3191   -4.5456    5.4161 C   0  0  2  0  0  0  0  0  0  0  0  0
    4.5429   -3.0897    5.9139 C   0  0  0  0  0  0  0  0  0  0  0  0
    4.6811   -4.6463    4.0180 O   0  0  0  0  0  0  0  0  0  0  0  0
    4.4334   -3.3408    3.2870 O   0  0  0  0  0  0  0  0  0  0  0  0
    4.3584   -3.5372    1.8632 C   0  0  1  0  0  0  0  0  0  0  0  0
    5.7453   -3.8255    1.3367 C   0  0  0  0  0  0  0  0  0  0  0  0
    6.4998   -3.2533    0.3408 C   0  0  0  0  0  0  0  0  0  0  0  0
    7.7307   -3.9804    0.2968 C   0  0  0  0  0  0  0  0  0  0  0  0
    7.6496   -4.9297    1.2849 C   0  0  0  0  0  0  0  0  0  0  0  0
    6.4455   -4.8393    1.9165 O   0  0  0  0  0  0  0  0  0  0  0  0
    3.2113   -4.4692    1.3692 C   0  0  0  0  0  0  0  0  0  0  0  0
    3.5320   -5.9330    1.5167 C   0  0  2  0  0  0  0  0  0  0  0  0
    2.6130   -6.9607    1.2875 O   0  0  0  0  0  0  0  0  0  0  0  0
    3.0756   -6.8773    2.6837 C   0  0  2  0  0  0  0  0  0  0  0  0
    1.8330   -6.8032    3.5903 C   0  0  2  0  0  0  0  0  0  0  0  0
    4.3622   -7.5920    3.2688 C   0  0  2  0  0  0  0  0  0  0  0  0
    5.0214   -8.8944    2.7064 C   0  0  1  0  0  0  0  0  0  0  0  0
    4.6705   -9.1947    1.2314 C   0  0  0  0  0  0  0  0  0  0  0  0
    6.6096   -8.8941    2.9800 C   0  0  0  0  0  0  0  0  0  0  0  0
    7.1221  -10.3448    3.1335 C   0  0  0  0  0  0  0  0  0  0  0  0
    7.3687   -8.2063    1.8194 C   0  0  0  0  0  0  0  0  0  0  0  0
    7.0583   -8.2486    4.2256 O   0  0  0  0  0  0  0  0  0  0  0  0
    1.4886   -9.2592    2.0880 H   0  0  0  0  0  0  0  0  0  0  0  0
   -0.3306   -9.3445    2.3663 H   0  0  0  0  0  0  0  0  0  0  0  0
    0.8193   -4.9921    2.8550 H   0  0  0  0  0  0  0  0  0  0  0  0
    2.2602   -3.6134    4.0176 H   0  0  0  0  0  0  0  0  0  0  0  0
    1.2066   -2.5688    5.9129 H   0  0  0  0  0  0  0  0  0  0  0  0
    0.1999   -3.9778    6.2048 H   0  0  0  0  0  0  0  0  0  0  0  0
   -0.0272   -3.0294    4.7456 H   0  0  0  0  0  0  0  0  0  0  0  0
    1.2899   -6.0859    6.4978 H   0  0  0  0  0  0  0  0  0  0  0  0
    3.3146   -6.9743    7.9312 H   0  0  0  0  0  0  0  0  0  0  0  0
    2.7316   -7.9601    6.5975 H   0  0  0  0  0  0  0  0  0  0  0  0
    5.1479   -7.5598    6.8171 H   0  0  0  0  0  0  0  0  0  0  0  0
    4.9341   -8.6097    5.0700 H   0  0  0  0  0  0  0  0  0  0  0  0
    6.5479   -6.3842    3.7178 H   0  0  0  0  0  0  0  0  0  0  0  0
    7.2281   -6.5100    6.4317 H   0  0  0  0  0  0  0  0  0  0  0  0
    7.2235   -5.1746    5.2985 H   0  0  0  0  0  0  0  0  0  0  0  0
    6.1320   -4.2988    7.7860 H   0  0  0  0  0  0  0  0  0  0  0  0
    5.9295   -5.9563    8.2891 H   0  0  0  0  0  0  0  0  0  0  0  0
    4.5344   -4.9036    8.2159 H   0  0  0  0  0  0  0  0  0  0  0  0
    4.2916   -2.9815    6.9727 H   0  0  0  0  0  0  0  0  0  0  0  0
    3.8873   -2.3834    5.4023 H   0  0  0  0  0  0  0  0  0  0  0  0
    5.5747   -2.7647    5.7764 H   0  0  0  0  0  0  0  0  0  0  0  0
    4.0797   -2.5552    1.4829 H   0  0  0  0  0  0  0  0  0  0  0  0
    6.1811   -2.4183   -0.2771 H   0  0  0  0  0  0  0  0  0  0  0  0
    8.5618   -3.8464   -0.3692 H   0  0  0  0  0  0  0  0  0  0  0  0
    8.3076   -5.7046    1.6612 H   0  0  0  0  0  0  0  0  0  0  0  0
    2.2704   -4.2040    1.8215 H   0  0  0  0  0  0  0  0  0  0  0  0
    3.0648   -4.3075    0.3013 H   0  0  0  0  0  0  0  0  0  0  0  0
    4.4303   -6.1676    0.9481 H   0  0  0  0  0  0  0  0  0  0  0  0
    2.1284   -7.2968    4.5078 H   0  0  0  0  0  0  0  0  0  0  0  0
    5.0242   -6.9366    2.7489 H   0  0  0  0  0  0  0  0  0  0  0  0
    4.5885   -9.7281    3.2595 H   0  0  0  0  0  0  0  0  0  0  0  0
    4.9509   -8.3975    0.5454 H   0  0  0  0  0  0  0  0  0  0  0  0
    3.6029   -9.3767    1.1105 H   0  0  0  0  0  0  0  0  0  0  0  0
    5.1765  -10.0980    0.8951 H   0  0  0  0  0  0  0  0  0  0  0  0
    6.9211  -10.9256    2.2285 H   0  0  0  0  0  0  0  0  0  0  0  0
    6.6534  -10.8442    3.9868 H   0  0  0  0  0  0  0  0  0  0  0  0
    8.2026  -10.3413    3.2938 H   0  0  0  0  0  0  0  0  0  0  0  0
    7.3871   -8.8497    0.9252 H   0  0  0  0  0  0  0  0  0  0  0  0
    8.4048   -8.0262    2.0995 H   0  0  0  0  0  0  0  0  0  0  0  0
    6.9132   -7.2535    1.5838 H   0  0  0  0  0  0  0  0  0  0  0  0
  1  2  2  0
  1 40  1  0
  1 41  1  0
  2 32  1  0
  2  3  1  0
  3  4  2  0
  3  5  1  0
  5  6  1  0
  6 32  1  0
  6  7  1  0
  6 42  1  6
  7  8  1  0
  7  9  1  0
  7 43  1  6
  8 44  1  0
  8 45  1  0
  8 46  1  0
  9 18  1  0
  9 10  2  0
 10 11  1  0
 10 47  1  0
 11 12  1  0
 11 48  1  0
 11 49  1  0
 12 16  1  0
 12 13  1  0
 12 50  1  1
 13 33  1  0
 13 14  1  0
 13 51  1  1
 14 39  1  0
 14 15  1  0
 14 52  1  6
 15 16  1  0
 15 53  1  0
 15 54  1  0
 16 17  1  1
 16 18  1  0
 17 55  1  0
 17 56  1  0
 17 57  1  0
 18 19  1  1
 18 20  1  0
 19 58  1  0
 19 59  1  0
 19 60  1  0
 20 21  1  0
 21 22  1  0
 22 23  1  0
 22 28  1  0
 22 61  1  6
 23 27  1  0
 23 24  2  0
 24 25  1  0
 24 62  1  0
 25 26  2  0
 25 63  1  0
 26 27  1  0
 26 64  1  0
 28 29  1  0
 28 65  1  0
 28 66  1  0
 29 31  1  0
 29 30  1  0
 29 67  1  6
 31 30  1  6
 31 32  1  0
 31 33  1  0
 32 68  1  1
 33 34  1  0
 33 69  1  6
 34 35  1  0
 34 36  1  0
 34 70  1  1
 35 71  1  0
 35 72  1  0
 35 73  1  0
 36 37  1  0
 36 38  1  0
 36 39  1  0
 37 74  1  0
 37 75  1  0
 37 76  1  0
 38 77  1  0
 38 78  1  0
 38 79  1  0
M  END
>  <i_m_ct_stereo_status>  (310) 
1

>  <s_m_source_file>  (310) 
/var/tmp/pbs.5076255.sched01/tmpk9_hntje/1089a46f3po.sdf

>  <i_m_source_file_index>  (310) 
44

>  <i_lp_mmshare_version>  (310) 
48012

>  <i_f3d_flags>  (310) 
0

>  <s_epik_input>  (310) 
W0NAQEhdMTJbQ0BASF0oW0NIM10pQyhbQ0gzXSkoW0NIM10pT1tDSF0oW0NIMl1bQ0BdMzRbQ0gzXSlbQ0BIXTFbQ0BASF0zW0NIMl1bQ0hdPUMoW0NASF0oW0NIM10pW0NASF01W0NASF02Qyg9W0NIMl0pQyg9TylPNSlbQ0BdNChbQ0gzXSlPT1tDQEhdKFtDSDJdW0NIXShPNylDMjY3KWM4W2NIXVtjSF1bY0hdbzg=

>  <s_epik_cmdline>  (310) 
J2VwaWtfcHl0aG9uJywgJy1waHQnLCAnMi4wJywgJy1waCcsICc3LjAnLCAnLXRuJywgJzgnLCAnLW1hJywgJzIwMCcsICctaW1hZScsICc8aW5maWxlLm1hZT4nLCAnLW9tYWUnLCAnPG91dGZpbGUubWFlPic=

>  <r_lp_tautomer_probability>  (310) 
1

>  <r_epik_Ionization_Penalty>  (310) 
1.84806e-11

>  <r_epik_Ionization_Penalty_Charging>  (310) 
0

>  <r_epik_Ionization_Penalty_Neutral>  (310) 
1.84806e-11

>  <r_epik_State_Penalty>  (310) 
-0

>  <r_epik_Charging_Adjusted_Penalty>  (310) 
0

>  <i_epik_Tot_Q>  (310) 
0

>  <i_epik_Tot_abs_Q>  (310) 
0

>  <s_epik_Chemistry_Notes>  (310) 
This compound has an ester and may undergo hydrolysis at high or low pH.

>  <s_lp_Force_Field>  (310) 
OPLS3e

>  <r_lp_Energy>  (310) 
167.207

>  <b_lp_Chiralities_Consistent>  (310) 
1

>  <s_lp_Variant>  (310) 
81:0-3

>  <s_i_glide_gridfile>  (310) 
pfpi4k_grid

>  <i_i_glide_lignum>  (310) 
44

>  <i_i_glide_rotatable_bonds>  (310) 
1

>  <r_i_docking_score>  (310) 
-2.35205

>  <r_i_glide_ligand_efficiency>  (310) 
-0.060309

>  <r_i_glide_ligand_efficiency_sa>  (310) 
-0.204521

>  <r_i_glide_ligand_efficiency_ln>  (310) 
-0.504346

>  <r_i_glide_gscore>  (310) 
-2.35205

>  <r_i_glide_lipo>  (310) 
-0.609762

>  <r_i_glide_hbond>  (310) 
-0.00709619

>  <r_i_glide_metal>  (310) 
-0

>  <r_i_glide_rewards>  (310) 
0

>  <r_i_glide_evdw>  (310) 
-30.585

>  <r_i_glide_ecoul>  (310) 
-1.45605

>  <r_i_glide_erotb>  (310) 
0.0717077

>  <r_i_glide_esite>  (310) 
-0.0592429

>  <r_i_glide_emodel>  (310) 
-35.7761

>  <r_i_glide_energy>  (310) 
-32.041

>  <r_i_glide_einternal>  (310) 
0.312774

>  <r_i_glide_intrahb_reward>  (310) 
-0

>  <i_i_glide_confnum>  (310) 
2

>  <i_i_glide_posenum>  (310) 
39

>  <r_i_glide_eff_state_penalty>  (310) 
0

>  <ligand_id>  (310) 
81

>  <original_smiles>  (310) 
C=C1C(=O)OC2C(C)C3=CCC4C5C6CC4(C)C3(C)OOC(c3ccco3)CC3OC3(C12)C5C(C)C(C)(C)O6

>  <smiles>  (310) 
[H]C([H])=C1C(=O)OC2([H])C([H])(C([H])([H])[H])C3=C([H])C([H])([H])C4([H])C5([H])C6([H])OC(C([H])([H])[H])(C([H])([H])[H])C([H])(C([H])([H])[H])C5([H])C5(OC5([H])C([H])([H])C([H])(c5oc([H])c([H])c5[H])OOC3(C([H])([H])[H])C4(C([H])([H])[H])C6([H])[H])C12[H]

$$$$
81:2:1
     RDKit          3D

 79 86  0  0  1  0  0  0  0  0999 V2000
    0.5679   -8.8333    2.4999 C   0  0  0  0  0  0  0  0  0  0  0  0
    0.6327   -7.7061    3.2291 C   0  0  0  0  0  0  0  0  0  0  0  0
   -0.5448   -7.0567    3.8092 C   0  0  0  0  0  0  0  0  0  0  0  0
   -1.6890   -7.5013    3.8637 O   0  0  0  0  0  0  0  0  0  0  0  0
   -0.1658   -5.8643    4.2831 O   0  0  0  0  0  0  0  0  0  0  0  0
    1.1182   -5.4540    3.8205 C   0  0  1  0  0  0  0  0  0  0  0  0
    1.7930   -4.3395    4.7020 C   0  0  1  0  0  0  0  0  0  0  0  0
    0.7645   -3.4580    5.4486 C   0  0  0  0  0  0  0  0  0  0  0  0
    2.8049   -4.9552    5.6416 C   0  0  0  0  0  0  0  0  0  0  0  0
    2.3200   -5.9404    6.4232 C   0  0  0  0  0  0  0  0  0  0  0  0
    3.1534   -7.0948    6.8607 C   0  0  0  0  0  0  0  0  0  0  0  0
    4.5089   -7.0415    6.1769 C   0  0  1  0  0  0  0  0  0  0  0  0
    4.8306   -7.7390    4.8256 C   0  0  2  0  0  0  0  0  0  0  0  0
    6.2993   -7.3050    4.7078 C   0  0  1  0  0  0  0  0  0  0  0  0
    6.6168   -6.2066    5.7521 C   0  0  0  0  0  0  0  0  0  0  0  0
    5.2298   -5.7102    6.2733 C   0  0  2  0  0  0  0  0  0  0  0  0
    5.4418   -5.2992    7.7586 C   0  0  0  0  0  0  0  0  0  0  0  0
    4.3360   -4.6616    5.4480 C   0  0  2  0  0  0  0  0  0  0  0  0
    4.5818   -3.2136    5.9640 C   0  0  0  0  0  0  0  0  0  0  0  0
    4.7235   -4.7500    4.0509 O   0  0  0  0  0  0  0  0  0  0  0  0
    4.5124   -3.4172    3.3182 O   0  0  0  0  0  0  0  0  0  0  0  0
    4.4069   -3.5538    1.8790 C   0  0  1  0  0  0  0  0  0  0  0  0
    5.7736   -3.8079    1.3287 C   0  0  0  0  0  0  0  0  0  0  0  0
    6.6919   -4.7779    1.6623 C   0  0  0  0  0  0  0  0  0  0  0  0
    7.8044   -4.6445    0.7992 C   0  0  0  0  0  0  0  0  0  0  0  0
    7.5360   -3.5639    0.0052 C   0  0  0  0  0  0  0  0  0  0  0  0
    6.2925   -3.0653    0.3030 O   0  0  0  0  0  0  0  0  0  0  0  0
    3.2664   -4.4945    1.3872 C   0  0  0  0  0  0  0  0  0  0  0  0
    3.5657   -5.9734    1.5628 C   0  0  2  0  0  0  0  0  0  0  0  0
    2.6225   -6.9708    1.3246 O   0  0  0  0  0  0  0  0  0  0  0  0
    3.0857   -6.9166    2.7063 C   0  0  2  0  0  0  0  0  0  0  0  0
    1.8243   -6.8456    3.5974 C   0  0  2  0  0  0  0  0  0  0  0  0
    4.3737   -7.6522    3.3023 C   0  0  2  0  0  0  0  0  0  0  0  0
    4.9954   -8.9599    2.7071 C   0  0  1  0  0  0  0  0  0  0  0  0
    4.6422   -9.2465    1.2353 C   0  0  0  0  0  0  0  0  0  0  0  0
    6.5761   -9.0052    2.9959 C   0  0  0  0  0  0  0  0  0  0  0  0
    7.0458  -10.4573    3.1181 C   0  0  0  0  0  0  0  0  0  0  0  0
    7.3946   -8.3679    1.8412 C   0  0  0  0  0  0  0  0  0  0  0  0
    7.0305   -8.4522    4.2820 O   0  0  0  0  0  0  0  0  0  0  0  0
    1.4448   -9.2736    2.0481 H   0  0  0  0  0  0  0  0  0  0  0  0
   -0.3776   -9.3265    2.3182 H   0  0  0  0  0  0  0  0  0  0  0  0
    0.8469   -5.0065    2.8679 H   0  0  0  0  0  0  0  0  0  0  0  0
    2.3194   -3.6576    4.0433 H   0  0  0  0  0  0  0  0  0  0  0  0
    1.2531   -2.6200    5.9442 H   0  0  0  0  0  0  0  0  0  0  0  0
    0.2181   -4.0105    6.2150 H   0  0  0  0  0  0  0  0  0  0  0  0
    0.0225   -3.0439    4.7647 H   0  0  0  0  0  0  0  0  0  0  0  0
    1.2579   -6.1456    6.4990 H   0  0  0  0  0  0  0  0  0  0  0  0
    3.2546   -7.0778    7.9503 H   0  0  0  0  0  0  0  0  0  0  0  0
    2.6683   -8.0367    6.5914 H   0  0  0  0  0  0  0  0  0  0  0  0
    5.0715   -7.6845    6.8546 H   0  0  0  0  0  0  0  0  0  0  0  0
    4.8033   -8.7857    5.1031 H   0  0  0  0  0  0  0  0  0  0  0  0
    6.5501   -6.6452    3.9090 H   0  0  0  0  0  0  0  0  0  0  0  0
    7.2072   -6.6466    6.5487 H   0  0  0  0  0  0  0  0  0  0  0  0
    7.2073   -5.3854    5.3410 H   0  0  0  0  0  0  0  0  0  0  0  0
    6.1302   -4.4546    7.8436 H   0  0  0  0  0  0  0  0  0  0  0  0
    5.8900   -6.1136    8.3314 H   0  0  0  0  0  0  0  0  0  0  0  0
    4.5095   -5.0317    8.2616 H   0  0  0  0  0  0  0  0  0  0  0  0
    4.3222   -3.1023    7.0205 H   0  0  0  0  0  0  0  0  0  0  0  0
    3.9461   -2.4868    5.4554 H   0  0  0  0  0  0  0  0  0  0  0  0
    5.6202   -2.8932    5.8424 H   0  0  0  0  0  0  0  0  0  0  0  0
    4.1142   -2.5720    1.5330 H   0  0  0  0  0  0  0  0  0  0  0  0
    6.4762   -5.4856    2.4397 H   0  0  0  0  0  0  0  0  0  0  0  0
    8.6822   -5.2809    0.7648 H   0  0  0  0  0  0  0  0  0  0  0  0
    8.0708   -3.0854   -0.7866 H   0  0  0  0  0  0  0  0  0  0  0  0
    2.3208   -4.2381    1.8387 H   0  0  0  0  0  0  0  0  0  0  0  0
    3.1197   -4.3399    0.3153 H   0  0  0  0  0  0  0  0  0  0  0  0
    4.4490   -6.2333    0.9809 H   0  0  0  0  0  0  0  0  0  0  0  0
    2.0965   -7.3555    4.5061 H   0  0  0  0  0  0  0  0  0  0  0  0
    5.0633   -6.9883    2.8231 H   0  0  0  0  0  0  0  0  0  0  0  0
    4.5434   -9.7966    3.2463 H   0  0  0  0  0  0  0  0  0  0  0  0
    4.9409   -8.4570    0.5458 H   0  0  0  0  0  0  0  0  0  0  0  0
    3.5737   -9.4185    1.1009 H   0  0  0  0  0  0  0  0  0  0  0  0
    5.1306  -10.1613    0.9002 H   0  0  0  0  0  0  0  0  0  0  0  0
    6.8381  -11.0317    2.2092 H   0  0  0  0  0  0  0  0  0  0  0  0
    6.5644  -10.9539    3.9655 H   0  0  0  0  0  0  0  0  0  0  0  0
    8.1290  -10.4858    3.2830 H   0  0  0  0  0  0  0  0  0  0  0  0
    7.3982   -8.9821    0.9323 H   0  0  0  0  0  0  0  0  0  0  0  0
    8.4395   -8.2186    2.1346 H   0  0  0  0  0  0  0  0  0  0  0  0
    6.9766   -7.4168    1.5283 H   0  0  0  0  0  0  0  0  0  0  0  0
  1  2  2  0
  1 40  1  0
  1 41  1  0
  2 32  1  0
  2  3  1  0
  3  4  2  0
  3  5  1  0
  5  6  1  0
  6 32  1  0
  6  7  1  0
  6 42  1  6
  7  8  1  0
  7  9  1  0
  7 43  1  6
  8 44  1  0
  8 45  1  0
  8 46  1  0
  9 18  1  0
  9 10  2  0
 10 11  1  0
 10 47  1  0
 11 12  1  0
 11 48  1  0
 11 49  1  0
 12 16  1  0
 12 13  1  0
 12 50  1  1
 13 33  1  0
 13 14  1  0
 13 51  1  1
 14 39  1  0
 14 15  1  0
 14 52  1  6
 15 16  1  0
 15 53  1  0
 15 54  1  0
 16 17  1  1
 16 18  1  0
 17 55  1  0
 17 56  1  0
 17 57  1  0
 18 19  1  1
 18 20  1  0
 19 58  1  0
 19 59  1  0
 19 60  1  0
 20 21  1  0
 21 22  1  0
 22 23  1  0
 22 28  1  0
 22 61  1  6
 23 27  1  0
 23 24  2  0
 24 25  1  0
 24 62  1  0
 25 26  2  0
 25 63  1  0
 26 27  1  0
 26 64  1  0
 28 29  1  0
 28 65  1  0
 28 66  1  0
 29 31  1  0
 29 30  1  0
 29 67  1  6
 31 30  1  6
 31 32  1  0
 31 33  1  0
 32 68  1  1
 33 34  1  0
 33 69  1  6
 34 35  1  0
 34 36  1  0
 34 70  1  1
 35 71  1  0
 35 72  1  0
 35 73  1  0
 36 37  1  0
 36 38  1  0
 36 39  1  0
 37 74  1  0
 37 75  1  0
 37 76  1  0
 38 77  1  0
 38 78  1  0
 38 79  1  0
M  END
>  <i_m_ct_stereo_status>  (311) 
1

>  <s_m_source_file>  (311) 
/var/tmp/pbs.5076255.sched01/tmpk9_hntje/1089a46f3po.sdf

>  <i_m_source_file_index>  (311) 
44

>  <i_lp_mmshare_version>  (311) 
48012

>  <i_f3d_flags>  (311) 
0

>  <s_epik_input>  (311) 
W0NAQEhdMTJbQ0BASF0oW0NIM10pQyhbQ0gzXSkoW0NIM10pT1tDSF0oW0NIMl1bQ0BdMzRbQ0gzXSlbQ0BIXTFbQ0BASF0zW0NIMl1bQ0hdPUMoW0NASF0oW0NIM10pW0NASF01W0NASF02Qyg9W0NIMl0pQyg9TylPNSlbQ0BdNChbQ0gzXSlPT1tDQEhdKFtDSDJdW0NIXShPNylDMjY3KWM4W2NIXVtjSF1bY0hdbzg=

>  <s_epik_cmdline>  (311) 
J2VwaWtfcHl0aG9uJywgJy1waHQnLCAnMi4wJywgJy1waCcsICc3LjAnLCAnLXRuJywgJzgnLCAnLW1hJywgJzIwMCcsICctaW1hZScsICc8aW5maWxlLm1hZT4nLCAnLW9tYWUnLCAnPG91dGZpbGUubWFlPic=

>  <r_lp_tautomer_probability>  (311) 
1

>  <r_epik_Ionization_Penalty>  (311) 
1.84806e-11

>  <r_epik_Ionization_Penalty_Charging>  (311) 
0

>  <r_epik_Ionization_Penalty_Neutral>  (311) 
1.84806e-11

>  <r_epik_State_Penalty>  (311) 
-0

>  <r_epik_Charging_Adjusted_Penalty>  (311) 
0

>  <i_epik_Tot_Q>  (311) 
0

>  <i_epik_Tot_abs_Q>  (311) 
0

>  <s_epik_Chemistry_Notes>  (311) 
This compound has an ester and may undergo hydrolysis at high or low pH.

>  <s_lp_Force_Field>  (311) 
OPLS3e

>  <r_lp_Energy>  (311) 
167.207

>  <b_lp_Chiralities_Consistent>  (311) 
1

>  <s_lp_Variant>  (311) 
81:0-3

>  <s_i_glide_gridfile>  (311) 
pfpi4k_grid

>  <i_i_glide_lignum>  (311) 
44

>  <i_i_glide_rotatable_bonds>  (311) 
1

>  <r_i_docking_score>  (311) 
-2.29964

>  <r_i_glide_ligand_efficiency>  (311) 
-0.058965

>  <r_i_glide_ligand_efficiency_sa>  (311) 
-0.199963

>  <r_i_glide_ligand_efficiency_ln>  (311) 
-0.493107

>  <r_i_glide_gscore>  (311) 
-2.29964

>  <r_i_glide_lipo>  (311) 
-0.601986

>  <r_i_glide_hbond>  (311) 
-0.0086775

>  <r_i_glide_metal>  (311) 
-0

>  <r_i_glide_rewards>  (311) 
0

>  <r_i_glide_evdw>  (311) 
-29.9408

>  <r_i_glide_ecoul>  (311) 
-1.35183

>  <r_i_glide_erotb>  (311) 
0.0717077

>  <r_i_glide_esite>  (311) 
-0.0608644

>  <r_i_glide_emodel>  (311) 
-32.7521

>  <r_i_glide_energy>  (311) 
-31.2927

>  <r_i_glide_einternal>  (311) 
1.39351

>  <r_i_glide_intrahb_reward>  (311) 
-0

>  <i_i_glide_confnum>  (311) 
2

>  <i_i_glide_posenum>  (311) 
23

>  <r_i_glide_eff_state_penalty>  (311) 
0

>  <ligand_id>  (311) 
81

>  <original_smiles>  (311) 
C=C1C(=O)OC2C(C)C3=CCC4C5C6CC4(C)C3(C)OOC(c3ccco3)CC3OC3(C12)C5C(C)C(C)(C)O6

>  <smiles>  (311) 
[H]C([H])=C1C(=O)OC2([H])C([H])(C([H])([H])[H])C3=C([H])C([H])([H])C4([H])C5([H])C6([H])OC(C([H])([H])[H])(C([H])([H])[H])C([H])(C([H])([H])[H])C5([H])C5(OC5([H])C([H])([H])C([H])(c5oc([H])c([H])c5[H])OOC3(C([H])([H])[H])C4(C([H])([H])[H])C6([H])[H])C12[H]

$$$$
81:2:2
     RDKit          3D

 79 86  0  0  1  0  0  0  0  0999 V2000
   -3.0162    2.5592    7.6802 C   0  0  0  0  0  0  0  0  0  0  0  0
   -1.8832    3.2685    7.8102 C   0  0  0  0  0  0  0  0  0  0  0  0
   -1.8351    4.5754    8.4660 C   0  0  0  0  0  0  0  0  0  0  0  0
   -2.7287    5.0993    9.1261 O   0  0  0  0  0  0  0  0  0  0  0  0
   -0.6307    5.1059    8.2301 O   0  0  0  0  0  0  0  0  0  0  0  0
    0.0930    4.4209    7.2109 C   0  0  1  0  0  0  0  0  0  0  0  0
    1.6470    4.6634    7.2732 C   0  0  1  0  0  0  0  0  0  0  0  0
    2.0291    6.0206    7.8990 C   0  0  0  0  0  0  0  0  0  0  0  0
    2.3535    3.5015    7.9440 C   0  0  0  0  0  0  0  0  0  0  0  0
    1.8923    3.1949    9.1710 C   0  0  0  0  0  0  0  0  0  0  0  0
    1.8750    1.8038    9.7011 C   0  0  0  0  0  0  0  0  0  0  0  0
    2.3119    0.8291    8.6084 C   0  0  1  0  0  0  0  0  0  0  0  0
    1.3659    0.1464    7.5659 C   0  0  2  0  0  0  0  0  0  0  0  0
    2.3756   -0.5940    6.6716 C   0  0  1  0  0  0  0  0  0  0  0  0
    3.7823   -0.1450    7.1112 C   0  0  0  0  0  0  0  0  0  0  0  0
    3.5937    1.2007    7.8943 C   0  0  2  0  0  0  0  0  0  0  0  0
    4.7718    1.3161    8.9019 C   0  0  0  0  0  0  0  0  0  0  0  0
    3.2998    2.5690    7.1106 C   0  0  2  0  0  0  0  0  0  0  0  0
    4.6189    3.3555    6.8588 C   0  0  0  0  0  0  0  0  0  0  0  0
    2.6935    2.2183    5.8437 O   0  0  0  0  0  0  0  0  0  0  0  0
    2.9859    3.2652    4.7838 O   0  0  0  0  0  0  0  0  0  0  0  0
    2.0576    3.1726    3.6950 C   0  0  1  0  0  0  0  0  0  0  0  0
    2.3181    1.9017    2.9368 C   0  0  0  0  0  0  0  0  0  0  0  0
    1.7001    1.3288    1.8594 C   0  0  0  0  0  0  0  0  0  0  0  0
    2.4274    0.1438    1.5585 C   0  0  0  0  0  0  0  0  0  0  0  0
    3.4458    0.0832    2.4678 C   0  0  0  0  0  0  0  0  0  0  0  0
    3.3891    1.1430    3.3190 O   0  0  0  0  0  0  0  0  0  0  0  0
    0.5685    3.4397    4.0427 C   0  0  0  0  0  0  0  0  0  0  0  0
   -0.1090    2.2346    4.6488 C   0  0  2  0  0  0  0  0  0  0  0  0
   -1.3860    2.2398    5.2083 O   0  0  0  0  0  0  0  0  0  0  0  0
   -0.3265    1.9674    6.1680 C   0  0  2  0  0  0  0  0  0  0  0  0
   -0.4857    2.9617    7.3344 C   0  0  2  0  0  0  0  0  0  0  0  0
    0.2464    0.5333    6.5082 C   0  0  2  0  0  0  0  0  0  0  0  0
   -0.5079   -0.8187    6.3073 C   0  0  1  0  0  0  0  0  0  0  0  0
   -1.7049   -0.7746    5.3356 C   0  0  0  0  0  0  0  0  0  0  0  0
    0.5308   -2.0083    5.9865 C   0  0  0  0  0  0  0  0  0  0  0  0
   -0.0295   -3.3446    6.5180 C   0  0  0  0  0  0  0  0  0  0  0  0
    0.8143   -2.1464    4.4721 C   0  0  0  0  0  0  0  0  0  0  0  0
    1.8433   -1.9155    6.6380 O   0  0  0  0  0  0  0  0  0  0  0  0
   -3.0366    1.6098    7.1720 H   0  0  0  0  0  0  0  0  0  0  0  0
   -3.9513    2.9316    8.0818 H   0  0  0  0  0  0  0  0  0  0  0  0
   -0.2984    4.9071    6.3202 H   0  0  0  0  0  0  0  0  0  0  0  0
    2.0042    4.7287    6.2547 H   0  0  0  0  0  0  0  0  0  0  0  0
    3.0971    6.2174    7.7953 H   0  0  0  0  0  0  0  0  0  0  0  0
    1.7939    6.0589    8.9624 H   0  0  0  0  0  0  0  0  0  0  0  0
    1.4954    6.8419    7.4208 H   0  0  0  0  0  0  0  0  0  0  0  0
    1.2156    3.8582    9.6906 H   0  0  0  0  0  0  0  0  0  0  0  0
    2.5361    1.7556   10.5693 H   0  0  0  0  0  0  0  0  0  0  0  0
    0.8722    1.5428   10.0466 H   0  0  0  0  0  0  0  0  0  0  0  0
    2.5888   -0.0235    9.2335 H   0  0  0  0  0  0  0  0  0  0  0  0
    0.8794   -0.5590    8.2444 H   0  0  0  0  0  0  0  0  0  0  0  0
    2.4782   -0.3031    5.6272 H   0  0  0  0  0  0  0  0  0  0  0  0
    4.2040   -0.9135    7.7612 H   0  0  0  0  0  0  0  0  0  0  0  0
    4.4640   -0.0362    6.2652 H   0  0  0  0  0  0  0  0  0  0  0  0
    5.7306    1.3755    8.3877 H   0  0  0  0  0  0  0  0  0  0  0  0
    4.8316    0.4480    9.5581 H   0  0  0  0  0  0  0  0  0  0  0  0
    4.6859    2.1898    9.5465 H   0  0  0  0  0  0  0  0  0  0  0  0
    5.1127    3.6234    7.7952 H   0  0  0  0  0  0  0  0  0  0  0  0
    4.4330    4.3096    6.3635 H   0  0  0  0  0  0  0  0  0  0  0  0
    5.3282    2.7872    6.2537 H   0  0  0  0  0  0  0  0  0  0  0  0
    2.3449    3.9865    3.0303 H   0  0  0  0  0  0  0  0  0  0  0  0
    0.8379    1.7225    1.3380 H   0  0  0  0  0  0  0  0  0  0  0  0
    2.2491   -0.5635    0.7665 H   0  0  0  0  0  0  0  0  0  0  0  0
    4.2607   -0.6070    2.6248 H   0  0  0  0  0  0  0  0  0  0  0  0
    0.4600    4.3325    4.6334 H   0  0  0  0  0  0  0  0  0  0  0  0
    0.0298    3.6472    3.1162 H   0  0  0  0  0  0  0  0  0  0  0  0
   -0.0489    1.3953    3.9588 H   0  0  0  0  0  0  0  0  0  0  0  0
   -0.1494    2.4239    8.2088 H   0  0  0  0  0  0  0  0  0  0  0  0
    0.7512    0.4574    5.5691 H   0  0  0  0  0  0  0  0  0  0  0  0
   -0.9557   -1.0541    7.2686 H   0  0  0  0  0  0  0  0  0  0  0  0
   -1.4135   -0.4781    4.3296 H   0  0  0  0  0  0  0  0  0  0  0  0
   -2.4691   -0.0784    5.6744 H   0  0  0  0  0  0  0  0  0  0  0  0
   -2.1804   -1.7505    5.2669 H   0  0  0  0  0  0  0  0  0  0  0  0
   -0.9993   -3.5891    6.0812 H   0  0  0  0  0  0  0  0  0  0  0  0
   -0.1493   -3.3124    7.6033 H   0  0  0  0  0  0  0  0  0  0  0  0
    0.6467   -4.1716    6.2940 H   0  0  0  0  0  0  0  0  0  0  0  0
   -0.0651   -2.4897    3.9233 H   0  0  0  0  0  0  0  0  0  0  0  0
    1.6095   -2.8719    4.2921 H   0  0  0  0  0  0  0  0  0  0  0  0
    1.1277   -1.1999    4.0278 H   0  0  0  0  0  0  0  0  0  0  0  0
  1  2  2  0
  1 40  1  0
  1 41  1  0
  2 32  1  0
  2  3  1  0
  3  4  2  0
  3  5  1  0
  5  6  1  0
  6 32  1  0
  6  7  1  0
  6 42  1  6
  7  8  1  0
  7  9  1  0
  7 43  1  6
  8 44  1  0
  8 45  1  0
  8 46  1  0
  9 18  1  0
  9 10  2  0
 10 11  1  0
 10 47  1  0
 11 12  1  0
 11 48  1  0
 11 49  1  0
 12 16  1  0
 12 13  1  0
 12 50  1  1
 13 33  1  0
 13 14  1  0
 13 51  1  1
 14 39  1  0
 14 15  1  0
 14 52  1  6
 15 16  1  0
 15 53  1  0
 15 54  1  0
 16 17  1  1
 16 18  1  0
 17 55  1  0
 17 56  1  0
 17 57  1  0
 18 19  1  6
 18 20  1  0
 19 58  1  0
 19 59  1  0
 19 60  1  0
 20 21  1  0
 21 22  1  0
 22 23  1  0
 22 28  1  0
 22 61  1  6
 23 27  1  0
 23 24  2  0
 24 25  1  0
 24 62  1  0
 25 26  2  0
 25 63  1  0
 26 27  1  0
 26 64  1  0
 28 29  1  0
 28 65  1  0
 28 66  1  0
 29 31  1  0
 29 30  1  0
 29 67  1  6
 31 30  1  6
 31 32  1  0
 31 33  1  0
 32 68  1  1
 33 34  1  0
 33 69  1  6
 34 35  1  0
 34 36  1  0
 34 70  1  1
 35 71  1  0
 35 72  1  0
 35 73  1  0
 36 37  1  0
 36 38  1  0
 36 39  1  0
 37 74  1  0
 37 75  1  0
 37 76  1  0
 38 77  1  0
 38 78  1  0
 38 79  1  0
M  END
>  <i_m_ct_stereo_status>  (312) 
1

>  <s_m_source_file>  (312) 
/var/tmp/pbs.5076255.sched01/tmpk9_hntje/1089a46f3po.sdf

>  <i_m_source_file_index>  (312) 
44

>  <i_lp_mmshare_version>  (312) 
48012

>  <i_f3d_flags>  (312) 
0

>  <s_epik_input>  (312) 
W0NAQEhdMTJbQ0BASF0oW0NIM10pQyhbQ0gzXSkoW0NIM10pT1tDSF0oW0NIMl1bQ0BdMzRbQ0gzXSlbQ0BIXTFbQ0BASF0zW0NIMl1bQ0hdPUMoW0NASF0oW0NIM10pW0NASF01W0NASF02Qyg9W0NIMl0pQyg9TylPNSlbQ0BdNChbQ0gzXSlPT1tDQEhdKFtDSDJdW0NIXShPNylDMjY3KWM4W2NIXVtjSF1bY0hdbzg=

>  <s_epik_cmdline>  (312) 
J2VwaWtfcHl0aG9uJywgJy1waHQnLCAnMi4wJywgJy1waCcsICc3LjAnLCAnLXRuJywgJzgnLCAnLW1hJywgJzIwMCcsICctaW1hZScsICc8aW5maWxlLm1hZT4nLCAnLW9tYWUnLCAnPG91dGZpbGUubWFlPic=

>  <r_lp_tautomer_probability>  (312) 
1

>  <r_epik_Ionization_Penalty>  (312) 
1.84806e-11

>  <r_epik_Ionization_Penalty_Charging>  (312) 
0

>  <r_epik_Ionization_Penalty_Neutral>  (312) 
1.84806e-11

>  <r_epik_State_Penalty>  (312) 
-0

>  <r_epik_Charging_Adjusted_Penalty>  (312) 
0

>  <i_epik_Tot_Q>  (312) 
0

>  <i_epik_Tot_abs_Q>  (312) 
0

>  <s_epik_Chemistry_Notes>  (312) 
This compound has an ester and may undergo hydrolysis at high or low pH.

>  <s_lp_Force_Field>  (312) 
OPLS3e

>  <r_lp_Energy>  (312) 
167.207

>  <b_lp_Chiralities_Consistent>  (312) 
1

>  <s_lp_Variant>  (312) 
81:0-3

>  <s_i_glide_gridfile>  (312) 
pfpi4k_grid

>  <i_i_glide_lignum>  (312) 
44

>  <i_i_glide_rotatable_bonds>  (312) 
1

>  <r_i_docking_score>  (312) 
-1.52831

>  <r_i_glide_ligand_efficiency>  (312) 
-0.0391875

>  <r_i_glide_ligand_efficiency_sa>  (312) 
-0.132893

>  <r_i_glide_ligand_efficiency_ln>  (312) 
-0.327713

>  <r_i_glide_gscore>  (312) 
-1.52831

>  <r_i_glide_lipo>  (312) 
-0.189526

>  <r_i_glide_hbond>  (312) 
0

>  <r_i_glide_metal>  (312) 
-0

>  <r_i_glide_rewards>  (312) 
0

>  <r_i_glide_evdw>  (312) 
-27.2177

>  <r_i_glide_ecoul>  (312) 
-0.270896

>  <r_i_glide_erotb>  (312) 
0.0717077

>  <r_i_glide_esite>  (312) 
-0.00897297

>  <r_i_glide_emodel>  (312) 
-30.211

>  <r_i_glide_energy>  (312) 
-27.4886

>  <r_i_glide_einternal>  (312) 
0.142473

>  <r_i_glide_intrahb_reward>  (312) 
-0

>  <i_i_glide_confnum>  (312) 
1

>  <i_i_glide_posenum>  (312) 
3

>  <r_i_glide_eff_state_penalty>  (312) 
0

>  <ligand_id>  (312) 
81

>  <original_smiles>  (312) 
C=C1C(=O)OC2C(C)C3=CCC4C5C6CC4(C)C3(C)OOC(c3ccco3)CC3OC3(C12)C5C(C)C(C)(C)O6

>  <smiles>  (312) 
[H]C([H])=C1C(=O)OC2([H])C([H])(C([H])([H])[H])C3=C([H])C([H])([H])C4([H])C5([H])C6([H])OC(C([H])([H])[H])(C([H])([H])[H])C([H])(C([H])([H])[H])C5([H])C5(OC5([H])C([H])([H])C([H])(c5oc([H])c([H])c5[H])OOC3(C([H])([H])[H])C4(C([H])([H])[H])C6([H])[H])C12[H]

$$$$
81:3:0
     RDKit          3D

 79 86  0  0  1  0  0  0  0  0999 V2000
    0.7756   -8.7176    2.5319 C   0  0  0  0  0  0  0  0  0  0  0  0
    0.7620   -7.5914    3.2711 C   0  0  0  0  0  0  0  0  0  0  0  0
   -0.4512   -7.0649    3.9009 C   0  0  0  0  0  0  0  0  0  0  0  0
   -1.5451   -7.6162    3.9870 O   0  0  0  0  0  0  0  0  0  0  0  0
   -0.1644   -5.8543    4.3855 O   0  0  0  0  0  0  0  0  0  0  0  0
    1.0472   -5.3193    3.8603 C   0  0  1  0  0  0  0  0  0  0  0  0
    1.6527   -4.1587    4.7240 C   0  0  1  0  0  0  0  0  0  0  0  0
    0.5946   -3.3688    5.5244 C   0  0  0  0  0  0  0  0  0  0  0  0
    2.7762   -4.6810    5.5948 C   0  0  0  0  0  0  0  0  0  0  0  0
    2.4340   -5.6803    6.4246 C   0  0  0  0  0  0  0  0  0  0  0  0
    3.3793   -6.7458    6.8449 C   0  0  0  0  0  0  0  0  0  0  0  0
    4.6651   -6.6776    6.0221 C   0  0  1  0  0  0  0  0  0  0  0  0
    4.9046   -7.4703    4.6906 C   0  0  2  0  0  0  0  0  0  0  0  0
    6.4271   -7.1956    4.6675 C   0  0  2  0  0  0  0  0  0  0  0  0
    6.5618   -5.6913    5.0635 C   0  0  0  0  0  0  0  0  0  0  0  0
    5.3079   -5.2979    5.9169 C   0  0  2  0  0  0  0  0  0  0  0  0
    5.8059   -4.8595    7.3233 C   0  0  0  0  0  0  0  0  0  0  0  0
    4.2511   -4.2737    5.2812 C   0  0  2  0  0  0  0  0  0  0  0  0
    4.4365   -2.8343    5.8449 C   0  0  0  0  0  0  0  0  0  0  0  0
    4.5019   -4.2687    3.8625 O   0  0  0  0  0  0  0  0  0  0  0  0
    4.1654   -2.9348    3.2312 O   0  0  0  0  0  0  0  0  0  0  0  0
    4.0170   -3.0736    1.8160 C   0  0  1  0  0  0  0  0  0  0  0  0
    5.3867   -3.1690    1.2026 C   0  0  0  0  0  0  0  0  0  0  0  0
    6.0132   -2.4336    0.2304 C   0  0  0  0  0  0  0  0  0  0  0  0
    7.2994   -3.0243    0.0377 C   0  0  0  0  0  0  0  0  0  0  0  0
    7.3514   -4.0880    0.8921 C   0  0  0  0  0  0  0  0  0  0  0  0
    6.2036   -4.1789    1.6199 O   0  0  0  0  0  0  0  0  0  0  0  0
    2.9975   -4.1466    1.3572 C   0  0  0  0  0  0  0  0  0  0  0  0
    3.4730   -5.5676    1.5381 C   0  0  2  0  0  0  0  0  0  0  0  0
    2.6198   -6.6384    1.2989 O   0  0  0  0  0  0  0  0  0  0  0  0
    3.1027   -6.5747    2.6702 C   0  0  2  0  0  0  0  0  0  0  0  0
    1.8796   -6.6300    3.6070 C   0  0  2  0  0  0  0  0  0  0  0  0
    4.4597   -7.2070    3.1720 C   0  0  2  0  0  0  0  0  0  0  0  0
    5.0286   -8.4582    2.4174 C   0  0  1  0  0  0  0  0  0  0  0  0
    4.5836   -8.7180    0.9611 C   0  0  0  0  0  0  0  0  0  0  0  0
    6.5945   -8.5218    2.6119 C   0  0  0  0  0  0  0  0  0  0  0  0
    7.0326   -9.8670    3.2340 C   0  0  0  0  0  0  0  0  0  0  0  0
    7.3928   -8.2507    1.3206 C   0  0  0  0  0  0  0  0  0  0  0  0
    7.0826   -7.4514    3.4304 O   0  0  0  0  0  0  0  0  0  0  0  0
    1.6749   -9.0802    2.0640 H   0  0  0  0  0  0  0  0  0  0  0  0
   -0.1258   -9.2986    2.3798 H   0  0  0  0  0  0  0  0  0  0  0  0
    0.7101   -4.8991    2.9155 H   0  0  0  0  0  0  0  0  0  0  0  0
    2.0661   -3.4254    4.0447 H   0  0  0  0  0  0  0  0  0  0  0  0
    1.0372   -2.5023    6.0173 H   0  0  0  0  0  0  0  0  0  0  0  0
    0.1294   -3.9783    6.2977 H   0  0  0  0  0  0  0  0  0  0  0  0
   -0.2027   -3.0048    4.8763 H   0  0  0  0  0  0  0  0  0  0  0  0
    1.3954   -5.9378    6.5745 H   0  0  0  0  0  0  0  0  0  0  0  0
    3.5815   -6.6212    7.9099 H   0  0  0  0  0  0  0  0  0  0  0  0
    2.9148   -7.7246    6.7117 H   0  0  0  0  0  0  0  0  0  0  0  0
    5.2938   -7.2312    6.7223 H   0  0  0  0  0  0  0  0  0  0  0  0
    4.7140   -8.5180    4.9250 H   0  0  0  0  0  0  0  0  0  0  0  0
    6.9219   -7.8189    5.4143 H   0  0  0  0  0  0  0  0  0  0  0  0
    7.4917   -5.5667    5.6239 H   0  0  0  0  0  0  0  0  0  0  0  0
    6.6692   -5.0624    4.1820 H   0  0  0  0  0  0  0  0  0  0  0  0
    6.4081   -3.9531    7.2740 H   0  0  0  0  0  0  0  0  0  0  0  0
    6.4402   -5.6181    7.7824 H   0  0  0  0  0  0  0  0  0  0  0  0
    4.9820   -4.6776    8.0128 H   0  0  0  0  0  0  0  0  0  0  0  0
    4.2739   -2.8034    6.9239 H   0  0  0  0  0  0  0  0  0  0  0  0
    3.6954   -2.1455    5.4377 H   0  0  0  0  0  0  0  0  0  0  0  0
    5.4286   -2.4255    5.6387 H   0  0  0  0  0  0  0  0  0  0  0  0
    3.5990   -2.1208    1.4932 H   0  0  0  0  0  0  0  0  0  0  0  0
    5.5878   -1.5796   -0.2688 H   0  0  0  0  0  0  0  0  0  0  0  0
    8.0846   -2.7294   -0.6418 H   0  0  0  0  0  0  0  0  0  0  0  0
    8.0972   -4.8408    1.1100 H   0  0  0  0  0  0  0  0  0  0  0  0
    2.0412   -3.9768    1.8235 H   0  0  0  0  0  0  0  0  0  0  0  0
    2.8191   -4.0239    0.2872 H   0  0  0  0  0  0  0  0  0  0  0  0
    4.4032   -5.7258    0.9993 H   0  0  0  0  0  0  0  0  0  0  0  0
    2.2275   -7.1090    4.5138 H   0  0  0  0  0  0  0  0  0  0  0  0
    5.1308   -6.4084    2.8654 H   0  0  0  0  0  0  0  0  0  0  0  0
    4.6129   -9.3255    2.9321 H   0  0  0  0  0  0  0  0  0  0  0  0
    4.8318   -7.9003    0.2885 H   0  0  0  0  0  0  0  0  0  0  0  0
    3.5150   -8.9039    0.8912 H   0  0  0  0  0  0  0  0  0  0  0  0
    5.0540   -9.6221    0.5719 H   0  0  0  0  0  0  0  0  0  0  0  0
    6.7547  -10.7078    2.5955 H   0  0  0  0  0  0  0  0  0  0  0  0
    6.5651  -10.0270    4.2076 H   0  0  0  0  0  0  0  0  0  0  0  0
    8.1135   -9.9043    3.3776 H   0  0  0  0  0  0  0  0  0  0  0  0
    7.2574   -9.0339    0.5725 H   0  0  0  0  0  0  0  0  0  0  0  0
    8.4628   -8.1986    1.5325 H   0  0  0  0  0  0  0  0  0  0  0  0
    7.1077   -7.2909    0.8808 H   0  0  0  0  0  0  0  0  0  0  0  0
  1  2  2  0
  1 40  1  0
  1 41  1  0
  2 32  1  0
  2  3  1  0
  3  4  2  0
  3  5  1  0
  5  6  1  0
  6 32  1  0
  6  7  1  0
  6 42  1  6
  7  8  1  0
  7  9  1  0
  7 43  1  6
  8 44  1  0
  8 45  1  0
  8 46  1  0
  9 18  1  0
  9 10  2  0
 10 11  1  0
 10 47  1  0
 11 12  1  0
 11 48  1  0
 11 49  1  0
 12 16  1  0
 12 13  1  0
 12 50  1  1
 13 33  1  0
 13 14  1  0
 13 51  1  1
 14 39  1  0
 14 15  1  0
 14 52  1  1
 15 16  1  0
 15 53  1  0
 15 54  1  0
 16 17  1  1
 16 18  1  0
 17 55  1  0
 17 56  1  0
 17 57  1  0
 18 19  1  1
 18 20  1  0
 19 58  1  0
 19 59  1  0
 19 60  1  0
 20 21  1  0
 21 22  1  0
 22 23  1  0
 22 28  1  0
 22 61  1  6
 23 27  1  0
 23 24  2  0
 24 25  1  0
 24 62  1  0
 25 26  2  0
 25 63  1  0
 26 27  1  0
 26 64  1  0
 28 29  1  0
 28 65  1  0
 28 66  1  0
 29 31  1  0
 29 30  1  0
 29 67  1  6
 31 30  1  6
 31 32  1  0
 31 33  1  0
 32 68  1  1
 33 34  1  0
 33 69  1  6
 34 35  1  0
 34 36  1  0
 34 70  1  1
 35 71  1  0
 35 72  1  0
 35 73  1  0
 36 37  1  0
 36 38  1  0
 36 39  1  0
 37 74  1  0
 37 75  1  0
 37 76  1  0
 38 77  1  0
 38 78  1  0
 38 79  1  0
M  END
>  <i_m_ct_stereo_status>  (313) 
1

>  <s_m_source_file>  (313) 
/var/tmp/pbs.5076255.sched01/tmpk9_hntje/1089a46f3po.sdf

>  <i_m_source_file_index>  (313) 
45

>  <i_lp_mmshare_version>  (313) 
48012

>  <i_f3d_flags>  (313) 
0

>  <s_epik_input>  (313) 
W0NAQEhdMTJbQ0BASF0oW0NIM10pQyhbQ0gzXSkoW0NIM10pT1tDSF0oW0NIMl1bQ0BdMzRbQ0gzXSlbQ0BIXTFbQ0BASF0zW0NIMl1bQ0hdPUMoW0NASF0oW0NIM10pW0NASF01W0NASF02Qyg9W0NIMl0pQyg9TylPNSlbQ0BdNChbQ0gzXSlPT1tDQEhdKFtDSDJdW0NIXShPNylDMjY3KWM4W2NIXVtjSF1bY0hdbzg=

>  <s_epik_cmdline>  (313) 
J2VwaWtfcHl0aG9uJywgJy1waHQnLCAnMi4wJywgJy1waCcsICc3LjAnLCAnLXRuJywgJzgnLCAnLW1hJywgJzIwMCcsICctaW1hZScsICc8aW5maWxlLm1hZT4nLCAnLW9tYWUnLCAnPG91dGZpbGUubWFlPic=

>  <r_lp_tautomer_probability>  (313) 
1

>  <r_epik_Ionization_Penalty>  (313) 
1.84806e-11

>  <r_epik_Ionization_Penalty_Charging>  (313) 
0

>  <r_epik_Ionization_Penalty_Neutral>  (313) 
1.84806e-11

>  <r_epik_State_Penalty>  (313) 
-0

>  <r_epik_Charging_Adjusted_Penalty>  (313) 
0

>  <i_epik_Tot_Q>  (313) 
0

>  <i_epik_Tot_abs_Q>  (313) 
0

>  <s_epik_Chemistry_Notes>  (313) 
This compound has an ester and may undergo hydrolysis at high or low pH.

>  <s_lp_Force_Field>  (313) 
OPLS3e

>  <r_lp_Energy>  (313) 
138.724

>  <b_lp_Chiralities_Consistent>  (313) 
1

>  <s_lp_Variant>  (313) 
81:0-4

>  <s_i_glide_gridfile>  (313) 
pfpi4k_grid

>  <i_i_glide_lignum>  (313) 
45

>  <i_i_glide_rotatable_bonds>  (313) 
1

>  <r_i_docking_score>  (313) 
-2.22985

>  <r_i_glide_ligand_efficiency>  (313) 
-0.0571755

>  <r_i_glide_ligand_efficiency_sa>  (313) 
-0.193894

>  <r_i_glide_ligand_efficiency_ln>  (313) 
-0.478142

>  <r_i_glide_gscore>  (313) 
-2.22985

>  <r_i_glide_lipo>  (313) 
-0.511853

>  <r_i_glide_hbond>  (313) 
0

>  <r_i_glide_metal>  (313) 
-0

>  <r_i_glide_rewards>  (313) 
0

>  <r_i_glide_evdw>  (313) 
-30.9449

>  <r_i_glide_ecoul>  (313) 
-1.25288

>  <r_i_glide_erotb>  (313) 
0.0717077

>  <r_i_glide_esite>  (313) 
-0.0545215

>  <r_i_glide_emodel>  (313) 
-36.0805

>  <r_i_glide_energy>  (313) 
-32.1978

>  <r_i_glide_einternal>  (313) 
0.424097

>  <r_i_glide_intrahb_reward>  (313) 
-0

>  <i_i_glide_confnum>  (313) 
2

>  <i_i_glide_posenum>  (313) 
40

>  <r_i_glide_eff_state_penalty>  (313) 
0

>  <ligand_id>  (313) 
81

>  <original_smiles>  (313) 
C=C1C(=O)OC2C(C)C3=CCC4C5C6CC4(C)C3(C)OOC(c3ccco3)CC3OC3(C12)C5C(C)C(C)(C)O6

>  <smiles>  (313) 
[H]C([H])=C1C(=O)OC2([H])C([H])(C([H])([H])[H])C3=C([H])C([H])([H])C4([H])C5([H])C6([H])OC(C([H])([H])[H])(C([H])([H])[H])C([H])(C([H])([H])[H])C5([H])C5(OC5([H])C([H])([H])C([H])(c5oc([H])c([H])c5[H])OOC3(C([H])([H])[H])C4(C([H])([H])[H])C6([H])[H])C12[H]

$$$$
81:3:1
     RDKit          3D

 79 86  0  0  1  0  0  0  0  0999 V2000
    0.8100   -8.9451    2.6955 C   0  0  0  0  0  0  0  0  0  0  0  0
    0.7487   -7.7702    3.3469 C   0  0  0  0  0  0  0  0  0  0  0  0
   -0.4883   -7.2499    3.9359 C   0  0  0  0  0  0  0  0  0  0  0  0
   -1.5598   -7.8368    4.0620 O   0  0  0  0  0  0  0  0  0  0  0  0
   -0.2487   -5.9971    4.3356 O   0  0  0  0  0  0  0  0  0  0  0  0
    0.9345   -5.4508    3.7685 C   0  0  1  0  0  0  0  0  0  0  0  0
    1.4739   -4.1977    4.5395 C   0  0  1  0  0  0  0  0  0  0  0  0
    0.3760   -3.4059    5.2863 C   0  0  0  0  0  0  0  0  0  0  0  0
    2.6182   -4.6027    5.4431 C   0  0  0  0  0  0  0  0  0  0  0  0
    2.3212   -5.5545    6.3445 C   0  0  0  0  0  0  0  0  0  0  0  0
    3.3141   -6.5414    6.8385 C   0  0  0  0  0  0  0  0  0  0  0  0
    4.5951   -6.4743    6.0106 C   0  0  1  0  0  0  0  0  0  0  0  0
    4.8724   -7.3496    4.7375 C   0  0  2  0  0  0  0  0  0  0  0  0
    6.3829   -7.0166    4.6990 C   0  0  2  0  0  0  0  0  0  0  0  0
    6.4529   -5.4896    5.0155 C   0  0  0  0  0  0  0  0  0  0  0  0
    5.1732   -5.0792    5.8115 C   0  0  2  0  0  0  0  0  0  0  0  0
    5.6463   -4.5068    7.1745 C   0  0  0  0  0  0  0  0  0  0  0  0
    4.0742   -4.1544    5.0932 C   0  0  2  0  0  0  0  0  0  0  0  0
    4.1858   -2.6688    5.5442 C   0  0  0  0  0  0  0  0  0  0  0  0
    4.3295   -4.2397    3.6729 O   0  0  0  0  0  0  0  0  0  0  0  0
    3.9175   -2.9751    2.9400 O   0  0  0  0  0  0  0  0  0  0  0  0
    3.7672   -3.2188    1.5353 C   0  0  1  0  0  0  0  0  0  0  0  0
    5.1333   -3.3103    0.9137 C   0  0  0  0  0  0  0  0  0  0  0  0
    6.3431   -3.7876    1.3307 C   0  0  0  0  0  0  0  0  0  0  0  0
    7.2629   -3.5958    0.2649 C   0  0  0  0  0  0  0  0  0  0  0  0
    6.5389   -3.0436   -0.7532 C   0  0  0  0  0  0  0  0  0  0  0  0
    5.2401   -2.8704   -0.3743 O   0  0  0  0  0  0  0  0  0  0  0  0
    2.7973   -4.3670    1.1683 C   0  0  0  0  0  0  0  0  0  0  0  0
    3.3539   -5.7382    1.4605 C   0  0  2  0  0  0  0  0  0  0  0  0
    2.5594   -6.8673    1.2971 O   0  0  0  0  0  0  0  0  0  0  0  0
    3.0349   -6.6883    2.6603 C   0  0  2  0  0  0  0  0  0  0  0  0
    1.8215   -6.7363    3.6057 C   0  0  2  0  0  0  0  0  0  0  0  0
    4.4187   -7.2134    3.2009 C   0  0  2  0  0  0  0  0  0  0  0  0
    5.0433   -8.4887    2.5358 C   0  0  1  0  0  0  0  0  0  0  0  0
    4.6084   -8.8779    1.1057 C   0  0  0  0  0  0  0  0  0  0  0  0
    6.6107   -8.4572    2.7237 C   0  0  0  0  0  0  0  0  0  0  0  0
    7.1203   -9.7318    3.4376 C   0  0  0  0  0  0  0  0  0  0  0  0
    7.3919   -8.2518    1.4087 C   0  0  0  0  0  0  0  0  0  0  0  0
    7.0384   -7.3071    3.4681 O   0  0  0  0  0  0  0  0  0  0  0  0
    1.7247   -9.3031    2.2528 H   0  0  0  0  0  0  0  0  0  0  0  0
   -0.0648   -9.5775    2.5929 H   0  0  0  0  0  0  0  0  0  0  0  0
    0.5775   -5.1218    2.7979 H   0  0  0  0  0  0  0  0  0  0  0  0
    1.8485   -3.4957    3.8049 H   0  0  0  0  0  0  0  0  0  0  0  0
    0.7751   -2.4865    5.7143 H   0  0  0  0  0  0  0  0  0  0  0  0
   -0.0606   -3.9804    6.1020 H   0  0  0  0  0  0  0  0  0  0  0  0
   -0.4374   -3.1251    4.6178 H   0  0  0  0  0  0  0  0  0  0  0  0
    1.2966   -5.8492    6.5170 H   0  0  0  0  0  0  0  0  0  0  0  0
    3.5148   -6.3273    7.8895 H   0  0  0  0  0  0  0  0  0  0  0  0
    2.8984   -7.5493    6.7777 H   0  0  0  0  0  0  0  0  0  0  0  0
    5.2485   -6.9462    6.7469 H   0  0  0  0  0  0  0  0  0  0  0  0
    4.7272   -8.3868    5.0434 H   0  0  0  0  0  0  0  0  0  0  0  0
    6.9063   -7.5764    5.4775 H   0  0  0  0  0  0  0  0  0  0  0  0
    7.3726   -5.2838    5.5703 H   0  0  0  0  0  0  0  0  0  0  0  0
    6.5290   -4.9153    4.1113 H   0  0  0  0  0  0  0  0  0  0  0  0
    6.2052   -3.5803    7.0430 H   0  0  0  0  0  0  0  0  0  0  0  0
    6.3217   -5.1956    7.6820 H   0  0  0  0  0  0  0  0  0  0  0  0
    4.8165   -4.3098    7.8534 H   0  0  0  0  0  0  0  0  0  0  0  0
    4.0213   -2.5639    6.6170 H   0  0  0  0  0  0  0  0  0  0  0  0
    3.4116   -2.0504    5.0904 H   0  0  0  0  0  0  0  0  0  0  0  0
    5.1542   -2.2267    5.3032 H   0  0  0  0  0  0  0  0  0  0  0  0
    3.3043   -2.3113    1.1501 H   0  0  0  0  0  0  0  0  0  0  0  0
    6.5600   -4.2188    2.2858 H   0  0  0  0  0  0  0  0  0  0  0  0
    8.3099   -3.8413    0.2368 H   0  0  0  0  0  0  0  0  0  0  0  0
    6.7818   -2.7370   -1.7597 H   0  0  0  0  0  0  0  0  0  0  0  0
    1.8351   -4.2139    1.6309 H   0  0  0  0  0  0  0  0  0  0  0  0
    2.6126   -4.3382    0.0933 H   0  0  0  0  0  0  0  0  0  0  0  0
    4.2979   -5.8784    0.9437 H   0  0  0  0  0  0  0  0  0  0  0  0
    2.1895   -7.1339    4.5437 H   0  0  0  0  0  0  0  0  0  0  0  0
    5.0517   -6.4061    2.8383 H   0  0  0  0  0  0  0  0  0  0  0  0
    4.6740   -9.3349    3.1162 H   0  0  0  0  0  0  0  0  0  0  0  0
    4.8157   -8.1011    0.3737 H   0  0  0  0  0  0  0  0  0  0  0  0
    3.5508   -9.1205    1.0544 H   0  0  0  0  0  0  0  0  0  0  0  0
    5.1217   -9.7845    0.7837 H   0  0  0  0  0  0  0  0  0  0  0  0
    6.8817  -10.6288    2.8662 H   0  0  0  0  0  0  0  0  0  0  0  0
    6.6631   -9.8446    4.4217 H   0  0  0  0  0  0  0  0  0  0  0  0
    8.2007   -9.7065    3.5790 H   0  0  0  0  0  0  0  0  0  0  0  0
    7.2915   -9.0891    0.7200 H   0  0  0  0  0  0  0  0  0  0  0  0
    8.4590   -8.1304    1.6107 H   0  0  0  0  0  0  0  0  0  0  0  0
    7.0643   -7.3422    0.8931 H   0  0  0  0  0  0  0  0  0  0  0  0
  1  2  2  0
  1 40  1  0
  1 41  1  0
  2 32  1  0
  2  3  1  0
  3  4  2  0
  3  5  1  0
  5  6  1  0
  6 32  1  0
  6  7  1  0
  6 42  1  6
  7  8  1  0
  7  9  1  0
  7 43  1  6
  8 44  1  0
  8 45  1  0
  8 46  1  0
  9 18  1  0
  9 10  2  0
 10 11  1  0
 10 47  1  0
 11 12  1  0
 11 48  1  0
 11 49  1  0
 12 16  1  0
 12 13  1  0
 12 50  1  1
 13 33  1  0
 13 14  1  0
 13 51  1  1
 14 39  1  0
 14 15  1  0
 14 52  1  1
 15 16  1  0
 15 53  1  0
 15 54  1  0
 16 17  1  1
 16 18  1  0
 17 55  1  0
 17 56  1  0
 17 57  1  0
 18 19  1  1
 18 20  1  0
 19 58  1  0
 19 59  1  0
 19 60  1  0
 20 21  1  0
 21 22  1  0
 22 23  1  0
 22 28  1  0
 22 61  1  6
 23 27  1  0
 23 24  2  0
 24 25  1  0
 24 62  1  0
 25 26  2  0
 25 63  1  0
 26 27  1  0
 26 64  1  0
 28 29  1  0
 28 65  1  0
 28 66  1  0
 29 31  1  0
 29 30  1  0
 29 67  1  6
 31 30  1  6
 31 32  1  0
 31 33  1  0
 32 68  1  1
 33 34  1  0
 33 69  1  6
 34 35  1  0
 34 36  1  0
 34 70  1  1
 35 71  1  0
 35 72  1  0
 35 73  1  0
 36 37  1  0
 36 38  1  0
 36 39  1  0
 37 74  1  0
 37 75  1  0
 37 76  1  0
 38 77  1  0
 38 78  1  0
 38 79  1  0
M  END
>  <i_m_ct_stereo_status>  (314) 
1

>  <s_m_source_file>  (314) 
/var/tmp/pbs.5076255.sched01/tmpk9_hntje/1089a46f3po.sdf

>  <i_m_source_file_index>  (314) 
45

>  <i_lp_mmshare_version>  (314) 
48012

>  <i_f3d_flags>  (314) 
0

>  <s_epik_input>  (314) 
W0NAQEhdMTJbQ0BASF0oW0NIM10pQyhbQ0gzXSkoW0NIM10pT1tDSF0oW0NIMl1bQ0BdMzRbQ0gzXSlbQ0BIXTFbQ0BASF0zW0NIMl1bQ0hdPUMoW0NASF0oW0NIM10pW0NASF01W0NASF02Qyg9W0NIMl0pQyg9TylPNSlbQ0BdNChbQ0gzXSlPT1tDQEhdKFtDSDJdW0NIXShPNylDMjY3KWM4W2NIXVtjSF1bY0hdbzg=

>  <s_epik_cmdline>  (314) 
J2VwaWtfcHl0aG9uJywgJy1waHQnLCAnMi4wJywgJy1waCcsICc3LjAnLCAnLXRuJywgJzgnLCAnLW1hJywgJzIwMCcsICctaW1hZScsICc8aW5maWxlLm1hZT4nLCAnLW9tYWUnLCAnPG91dGZpbGUubWFlPic=

>  <r_lp_tautomer_probability>  (314) 
1

>  <r_epik_Ionization_Penalty>  (314) 
1.84806e-11

>  <r_epik_Ionization_Penalty_Charging>  (314) 
0

>  <r_epik_Ionization_Penalty_Neutral>  (314) 
1.84806e-11

>  <r_epik_State_Penalty>  (314) 
-0

>  <r_epik_Charging_Adjusted_Penalty>  (314) 
0

>  <i_epik_Tot_Q>  (314) 
0

>  <i_epik_Tot_abs_Q>  (314) 
0

>  <s_epik_Chemistry_Notes>  (314) 
This compound has an ester and may undergo hydrolysis at high or low pH.

>  <s_lp_Force_Field>  (314) 
OPLS3e

>  <r_lp_Energy>  (314) 
138.724

>  <b_lp_Chiralities_Consistent>  (314) 
1

>  <s_lp_Variant>  (314) 
81:0-4

>  <s_i_glide_gridfile>  (314) 
pfpi4k_grid

>  <i_i_glide_lignum>  (314) 
45

>  <i_i_glide_rotatable_bonds>  (314) 
1

>  <r_i_docking_score>  (314) 
-2.13155

>  <r_i_glide_ligand_efficiency>  (314) 
-0.0546552

>  <r_i_glide_ligand_efficiency_sa>  (314) 
-0.185347

>  <r_i_glide_ligand_efficiency_ln>  (314) 
-0.457065

>  <r_i_glide_gscore>  (314) 
-2.13155

>  <r_i_glide_lipo>  (314) 
-0.506755

>  <r_i_glide_hbond>  (314) 
-0.00449427

>  <r_i_glide_metal>  (314) 
-0

>  <r_i_glide_rewards>  (314) 
0

>  <r_i_glide_evdw>  (314) 
-30.6331

>  <r_i_glide_ecoul>  (314) 
-0.733648

>  <r_i_glide_erotb>  (314) 
0.0717077

>  <r_i_glide_esite>  (314) 
-0.0503098

>  <r_i_glide_emodel>  (314) 
-34.6941

>  <r_i_glide_energy>  (314) 
-31.3667

>  <r_i_glide_einternal>  (314) 
0.797592

>  <r_i_glide_intrahb_reward>  (314) 
-0

>  <i_i_glide_confnum>  (314) 
2

>  <i_i_glide_posenum>  (314) 
7

>  <r_i_glide_eff_state_penalty>  (314) 
0

>  <ligand_id>  (314) 
81

>  <original_smiles>  (314) 
C=C1C(=O)OC2C(C)C3=CCC4C5C6CC4(C)C3(C)OOC(c3ccco3)CC3OC3(C12)C5C(C)C(C)(C)O6

>  <smiles>  (314) 
[H]C([H])=C1C(=O)OC2([H])C([H])(C([H])([H])[H])C3=C([H])C([H])([H])C4([H])C5([H])C6([H])OC(C([H])([H])[H])(C([H])([H])[H])C([H])(C([H])([H])[H])C5([H])C5(OC5([H])C([H])([H])C([H])(c5oc([H])c([H])c5[H])OOC3(C([H])([H])[H])C4(C([H])([H])[H])C6([H])[H])C12[H]

$$$$
81:3:2
     RDKit          3D

 79 86  0  0  1  0  0  0  0  0999 V2000
    1.0569   -2.7817    3.7739 C   0  0  0  0  0  0  0  0  0  0  0  0
    2.1067   -3.3008    3.1128 C   0  0  0  0  0  0  0  0  0  0  0  0
    2.7924   -2.5918    2.0271 C   0  0  0  0  0  0  0  0  0  0  0  0
    2.6660   -1.4077    1.7308 O   0  0  0  0  0  0  0  0  0  0  0  0
    3.6321   -3.4529    1.4442 O   0  0  0  0  0  0  0  0  0  0  0  0
    3.4000   -4.8041    1.8268 C   0  0  1  0  0  0  0  0  0  0  0  0
    4.6340   -5.7481    1.6035 C   0  0  1  0  0  0  0  0  0  0  0  0
    5.5771   -5.2744    0.4793 C   0  0  0  0  0  0  0  0  0  0  0  0
    5.3621   -5.9928    2.9099 C   0  0  0  0  0  0  0  0  0  0  0  0
    5.8008   -4.8879    3.5320 C   0  0  0  0  0  0  0  0  0  0  0  0
    5.9160   -4.7724    5.0098 C   0  0  0  0  0  0  0  0  0  0  0  0
    5.2521   -5.9621    5.6923 C   0  0  1  0  0  0  0  0  0  0  0  0
    3.7589   -5.9804    6.1609 C   0  0  2  0  0  0  0  0  0  0  0  0
    3.9240   -7.2609    7.0145 C   0  0  2  0  0  0  0  0  0  0  0  0
    4.7888   -8.2159    6.1286 C   0  0  0  0  0  0  0  0  0  0  0  0
    5.6379   -7.3346    5.1488 C   0  0  2  0  0  0  0  0  0  0  0  0
    7.1426   -7.5948    5.4496 C   0  0  0  0  0  0  0  0  0  0  0  0
    5.2932   -7.3986    3.5840 C   0  0  2  0  0  0  0  0  0  0  0  0
    6.3009   -8.3002    2.8105 C   0  0  0  0  0  0  0  0  0  0  0  0
    3.9691   -7.9555    3.4840 O   0  0  0  0  0  0  0  0  0  0  0  0
    3.7805   -8.7247    2.1948 O   0  0  0  0  0  0  0  0  0  0  0  0
    2.3888   -8.9131    1.9249 C   0  0  1  0  0  0  0  0  0  0  0  0
    1.8498   -9.9733    2.8374 C   0  0  0  0  0  0  0  0  0  0  0  0
    0.6375  -10.6062    2.8883 C   0  0  0  0  0  0  0  0  0  0  0  0
    0.7211  -11.5457    3.9541 C   0  0  0  0  0  0  0  0  0  0  0  0
    1.9757  -11.4191    4.4781 C   0  0  0  0  0  0  0  0  0  0  0  0
    2.6779  -10.4637    3.8075 O   0  0  0  0  0  0  0  0  0  0  0  0
    1.5478   -7.6142    1.8773 C   0  0  0  0  0  0  0  0  0  0  0  0
    1.3031   -7.0150    3.2420 C   0  0  2  0  0  0  0  0  0  0  0  0
    0.6603   -5.7864    3.3716 O   0  0  0  0  0  0  0  0  0  0  0  0
    2.0158   -5.7982    3.9094 C   0  0  2  0  0  0  0  0  0  0  0  0
    2.8000   -4.6319    3.2727 C   0  0  2  0  0  0  0  0  0  0  0  0
    2.3779   -6.2329    5.3841 C   0  0  2  0  0  0  0  0  0  0  0  0
    1.3070   -6.0400    6.5120 C   0  0  1  0  0  0  0  0  0  0  0  0
   -0.1818   -5.9355    6.1115 C   0  0  0  0  0  0  0  0  0  0  0  0
    1.5663   -7.0772    7.6765 C   0  0  0  0  0  0  0  0  0  0  0  0
    1.7588   -6.3676    9.0346 C   0  0  0  0  0  0  0  0  0  0  0  0
    0.4735   -8.1614    7.8099 C   0  0  0  0  0  0  0  0  0  0  0  0
    2.7155   -7.8956    7.4203 O   0  0  0  0  0  0  0  0  0  0  0  0
    0.5670   -3.3179    4.5679 H   0  0  0  0  0  0  0  0  0  0  0  0
    0.6734   -1.7986    3.5272 H   0  0  0  0  0  0  0  0  0  0  0  0
    2.6199   -5.0840    1.1240 H   0  0  0  0  0  0  0  0  0  0  0  0
    4.2577   -6.6955    1.2429 H   0  0  0  0  0  0  0  0  0  0  0  0
    6.3517   -6.0146    0.2729 H   0  0  0  0  0  0  0  0  0  0  0  0
    6.0794   -4.3413    0.7304 H   0  0  0  0  0  0  0  0  0  0  0  0
    5.0300   -5.1071   -0.4493 H   0  0  0  0  0  0  0  0  0  0  0  0
    5.7938   -3.9360    3.0202 H   0  0  0  0  0  0  0  0  0  0  0  0
    6.9752   -4.7169    5.2702 H   0  0  0  0  0  0  0  0  0  0  0  0
    5.4488   -3.8448    5.3461 H   0  0  0  0  0  0  0  0  0  0  0  0
    5.7817   -5.8735    6.6431 H   0  0  0  0  0  0  0  0  0  0  0  0
    3.6360   -5.1085    6.8038 H   0  0  0  0  0  0  0  0  0  0  0  0
    4.4686   -7.0164    7.9280 H   0  0  0  0  0  0  0  0  0  0  0  0
    5.4234   -8.8115    6.7888 H   0  0  0  0  0  0  0  0  0  0  0  0
    4.1656   -8.9371    5.6007 H   0  0  0  0  0  0  0  0  0  0  0  0
    7.4268   -8.6210    5.2217 H   0  0  0  0  0  0  0  0  0  0  0  0
    7.3778   -7.4445    6.5035 H   0  0  0  0  0  0  0  0  0  0  0  0
    7.7982   -6.9336    4.8831 H   0  0  0  0  0  0  0  0  0  0  0  0
    7.3209   -7.9145    2.8795 H   0  0  0  0  0  0  0  0  0  0  0  0
    6.0873   -8.3151    1.7408 H   0  0  0  0  0  0  0  0  0  0  0  0
    6.3025   -9.3314    3.1708 H   0  0  0  0  0  0  0  0  0  0  0  0
    2.3573   -9.3316    0.9200 H   0  0  0  0  0  0  0  0  0  0  0  0
   -0.1962  -10.4239    2.2252 H   0  0  0  0  0  0  0  0  0  0  0  0
   -0.0196  -12.2450    4.3044 H   0  0  0  0  0  0  0  0  0  0  0  0
    2.4914  -11.9233    5.2832 H   0  0  0  0  0  0  0  0  0  0  0  0
    1.9760   -6.9066    1.1871 H   0  0  0  0  0  0  0  0  0  0  0  0
    0.5635   -7.8529    1.4713 H   0  0  0  0  0  0  0  0  0  0  0  0
    0.8374   -7.7472    3.8985 H   0  0  0  0  0  0  0  0  0  0  0  0
    3.5256   -4.3296    4.0170 H   0  0  0  0  0  0  0  0  0  0  0  0
    2.3916   -7.3095    5.2337 H   0  0  0  0  0  0  0  0  0  0  0  0
    1.4948   -5.0490    6.9264 H   0  0  0  0  0  0  0  0  0  0  0  0
   -0.5331   -6.8205    5.5859 H   0  0  0  0  0  0  0  0  0  0  0  0
   -0.3728   -5.0675    5.4864 H   0  0  0  0  0  0  0  0  0  0  0  0
   -0.8074   -5.8057    6.9942 H   0  0  0  0  0  0  0  0  0  0  0  0
    0.8702   -5.7982    9.3128 H   0  0  0  0  0  0  0  0  0  0  0  0
    2.5992   -5.6713    9.0041 H   0  0  0  0  0  0  0  0  0  0  0  0
    1.9560   -7.0860    9.8316 H   0  0  0  0  0  0  0  0  0  0  0  0
   -0.4893   -7.7565    8.1255 H   0  0  0  0  0  0  0  0  0  0  0  0
    0.7618   -8.9093    8.5511 H   0  0  0  0  0  0  0  0  0  0  0  0
    0.3343   -8.6909    6.8623 H   0  0  0  0  0  0  0  0  0  0  0  0
  1  2  2  0
  1 40  1  0
  1 41  1  0
  2 32  1  0
  2  3  1  0
  3  4  2  0
  3  5  1  0
  5  6  1  0
  6 32  1  0
  6  7  1  0
  6 42  1  6
  7  8  1  0
  7  9  1  0
  7 43  1  6
  8 44  1  0
  8 45  1  0
  8 46  1  0
  9 18  1  0
  9 10  2  0
 10 11  1  0
 10 47  1  0
 11 12  1  0
 11 48  1  0
 11 49  1  0
 12 16  1  0
 12 13  1  0
 12 50  1  1
 13 33  1  0
 13 14  1  0
 13 51  1  1
 14 39  1  0
 14 15  1  0
 14 52  1  1
 15 16  1  0
 15 53  1  0
 15 54  1  0
 16 17  1  6
 16 18  1  0
 17 55  1  0
 17 56  1  0
 17 57  1  0
 18 19  1  6
 18 20  1  0
 19 58  1  0
 19 59  1  0
 19 60  1  0
 20 21  1  0
 21 22  1  0
 22 23  1  0
 22 28  1  0
 22 61  1  6
 23 27  1  0
 23 24  2  0
 24 25  1  0
 24 62  1  0
 25 26  2  0
 25 63  1  0
 26 27  1  0
 26 64  1  0
 28 29  1  0
 28 65  1  0
 28 66  1  0
 29 31  1  0
 29 30  1  0
 29 67  1  1
 31 30  1  1
 31 32  1  0
 31 33  1  0
 32 68  1  1
 33 34  1  0
 33 69  1  6
 34 35  1  0
 34 36  1  0
 34 70  1  1
 35 71  1  0
 35 72  1  0
 35 73  1  0
 36 37  1  0
 36 38  1  0
 36 39  1  0
 37 74  1  0
 37 75  1  0
 37 76  1  0
 38 77  1  0
 38 78  1  0
 38 79  1  0
M  END
>  <i_m_ct_stereo_status>  (315) 
1

>  <s_m_source_file>  (315) 
/var/tmp/pbs.5076255.sched01/tmpk9_hntje/1089a46f3po.sdf

>  <i_m_source_file_index>  (315) 
45

>  <i_lp_mmshare_version>  (315) 
48012

>  <i_f3d_flags>  (315) 
0

>  <s_epik_input>  (315) 
W0NAQEhdMTJbQ0BASF0oW0NIM10pQyhbQ0gzXSkoW0NIM10pT1tDSF0oW0NIMl1bQ0BdMzRbQ0gzXSlbQ0BIXTFbQ0BASF0zW0NIMl1bQ0hdPUMoW0NASF0oW0NIM10pW0NASF01W0NASF02Qyg9W0NIMl0pQyg9TylPNSlbQ0BdNChbQ0gzXSlPT1tDQEhdKFtDSDJdW0NIXShPNylDMjY3KWM4W2NIXVtjSF1bY0hdbzg=

>  <s_epik_cmdline>  (315) 
J2VwaWtfcHl0aG9uJywgJy1waHQnLCAnMi4wJywgJy1waCcsICc3LjAnLCAnLXRuJywgJzgnLCAnLW1hJywgJzIwMCcsICctaW1hZScsICc8aW5maWxlLm1hZT4nLCAnLW9tYWUnLCAnPG91dGZpbGUubWFlPic=

>  <r_lp_tautomer_probability>  (315) 
1

>  <r_epik_Ionization_Penalty>  (315) 
1.84806e-11

>  <r_epik_Ionization_Penalty_Charging>  (315) 
0

>  <r_epik_Ionization_Penalty_Neutral>  (315) 
1.84806e-11

>  <r_epik_State_Penalty>  (315) 
-0

>  <r_epik_Charging_Adjusted_Penalty>  (315) 
0

>  <i_epik_Tot_Q>  (315) 
0

>  <i_epik_Tot_abs_Q>  (315) 
0

>  <s_epik_Chemistry_Notes>  (315) 
This compound has an ester and may undergo hydrolysis at high or low pH.

>  <s_lp_Force_Field>  (315) 
OPLS3e

>  <r_lp_Energy>  (315) 
138.724

>  <b_lp_Chiralities_Consistent>  (315) 
1

>  <s_lp_Variant>  (315) 
81:0-4

>  <s_i_glide_gridfile>  (315) 
pfpi4k_grid

>  <i_i_glide_lignum>  (315) 
45

>  <i_i_glide_rotatable_bonds>  (315) 
1

>  <r_i_docking_score>  (315) 
-1.74464

>  <r_i_glide_ligand_efficiency>  (315) 
-0.0447344

>  <r_i_glide_ligand_efficiency_sa>  (315) 
-0.151704

>  <r_i_glide_ligand_efficiency_ln>  (315) 
-0.374101

>  <r_i_glide_gscore>  (315) 
-1.74464

>  <r_i_glide_lipo>  (315) 
-0.431479

>  <r_i_glide_hbond>  (315) 
-0.007068

>  <r_i_glide_metal>  (315) 
-0

>  <r_i_glide_rewards>  (315) 
0

>  <r_i_glide_evdw>  (315) 
-29.5179

>  <r_i_glide_ecoul>  (315) 
0.71862

>  <r_i_glide_erotb>  (315) 
0.0717077

>  <r_i_glide_esite>  (315) 
-0.00970115

>  <r_i_glide_emodel>  (315) 
-31.6912

>  <r_i_glide_energy>  (315) 
-28.7993

>  <r_i_glide_einternal>  (315) 
0.482307

>  <r_i_glide_intrahb_reward>  (315) 
-0

>  <i_i_glide_confnum>  (315) 
3

>  <i_i_glide_posenum>  (315) 
2

>  <r_i_glide_eff_state_penalty>  (315) 
0

>  <ligand_id>  (315) 
81

>  <original_smiles>  (315) 
C=C1C(=O)OC2C(C)C3=CCC4C5C6CC4(C)C3(C)OOC(c3ccco3)CC3OC3(C12)C5C(C)C(C)(C)O6

>  <smiles>  (315) 
[H]C([H])=C1C(=O)OC2([H])C([H])(C([H])([H])[H])C3=C([H])C([H])([H])C4([H])C5([H])C6([H])OC(C([H])([H])[H])(C([H])([H])[H])C([H])(C([H])([H])[H])C5([H])C5(OC5([H])C([H])([H])C([H])(c5oc([H])c([H])c5[H])OOC3(C([H])([H])[H])C4(C([H])([H])[H])C6([H])[H])C12[H]

$$$$
81:4:0
     RDKit          3D

 79 86  0  0  1  0  0  0  0  0999 V2000
   -1.0758   -5.0775    6.5663 C   0  0  0  0  0  0  0  0  0  0  0  0
    0.1163   -4.7714    7.0922 C   0  0  0  0  0  0  0  0  0  0  0  0
    0.2941   -3.7747    8.1543 C   0  0  0  0  0  0  0  0  0  0  0  0
   -0.5838   -3.3201    8.8875 O   0  0  0  0  0  0  0  0  0  0  0  0
    1.6000   -3.4489    8.1775 O   0  0  0  0  0  0  0  0  0  0  0  0
    2.2678   -3.8880    6.9970 C   0  0  1  0  0  0  0  0  0  0  0  0
    3.8440   -3.7921    6.9780 C   0  0  1  0  0  0  0  0  0  0  0  0
    4.3957   -2.8931    8.1029 C   0  0  0  0  0  0  0  0  0  0  0  0
    4.5131   -5.1640    6.9585 C   0  0  0  0  0  0  0  0  0  0  0  0
    4.1265   -5.9495    7.9805 C   0  0  0  0  0  0  0  0  0  0  0  0
    4.2837   -7.4198    8.0163 C   0  0  0  0  0  0  0  0  0  0  0  0
    4.4847   -7.9122    6.5988 C   0  0  1  0  0  0  0  0  0  0  0  0
    3.2778   -8.1304    5.6354 C   0  0  2  0  0  0  0  0  0  0  0  0
    3.9091   -8.2861    4.2651 C   0  0  1  0  0  0  0  0  0  0  0  0
    5.4284   -8.0903    4.4803 C   0  0  0  0  0  0  0  0  0  0  0  0
    5.6433   -7.2734    5.8162 C   0  0  2  0  0  0  0  0  0  0  0  0
    7.0062   -7.7218    6.4080 C   0  0  0  0  0  0  0  0  0  0  0  0
    5.4966   -5.6627    5.8107 C   0  0  2  0  0  0  0  0  0  0  0  0
    6.8251   -4.9081    6.0677 C   0  0  0  0  0  0  0  0  0  0  0  0
    5.2222   -5.3516    4.4141 O   0  0  0  0  0  0  0  0  0  0  0  0
    5.0080   -3.8686    4.1362 O   0  0  0  0  0  0  0  0  0  0  0  0
    3.9564   -3.6305    3.1580 C   0  0  1  0  0  0  0  0  0  0  0  0
    4.2462   -4.3965    1.8950 C   0  0  0  0  0  0  0  0  0  0  0  0
    4.6002   -4.0012    0.6321 C   0  0  0  0  0  0  0  0  0  0  0  0
    4.6844   -5.1850   -0.1573 C   0  0  0  0  0  0  0  0  0  0  0  0
    4.3655   -6.2160    0.6796 C   0  0  0  0  0  0  0  0  0  0  0  0
    4.0853   -5.7495    1.9267 O   0  0  0  0  0  0  0  0  0  0  0  0
    2.4497   -3.6345    3.6184 C   0  0  0  0  0  0  0  0  0  0  0  0
    1.8551   -4.9977    3.9800 C   0  0  1  0  0  0  0  0  0  0  0  0
    2.8854   -5.5014    4.7487 O   0  0  0  0  0  0  0  0  0  0  0  0
    1.7014   -5.8772    5.3185 C   0  0  1  0  0  0  0  0  0  0  0  0
    1.4980   -5.2232    6.6971 C   0  0  2  0  0  0  0  0  0  0  0  0
    1.8806   -7.4451    5.3691 C   0  0  2  0  0  0  0  0  0  0  0  0
    1.0062   -8.6064    4.7918 C   0  0  1  0  0  0  0  0  0  0  0  0
   -0.4288   -8.2063    4.3972 C   0  0  0  0  0  0  0  0  0  0  0  0
    1.8107   -9.4498    3.6599 C   0  0  0  0  0  0  0  0  0  0  0  0
    1.3939  -10.9351    3.7316 C   0  0  0  0  0  0  0  0  0  0  0  0
    1.5556   -8.9211    2.2311 C   0  0  0  0  0  0  0  0  0  0  0  0
    3.2777   -9.4879    3.7937 O   0  0  0  0  0  0  0  0  0  0  0  0
   -1.1675   -5.7647    5.7404 H   0  0  0  0  0  0  0  0  0  0  0  0
   -1.9908   -4.6376    6.9442 H   0  0  0  0  0  0  0  0  0  0  0  0
    1.9230   -3.1297    6.3016 H   0  0  0  0  0  0  0  0  0  0  0  0
    4.0957   -3.2649    6.0711 H   0  0  0  0  0  0  0  0  0  0  0  0
    5.4679   -2.7332    7.9923 H   0  0  0  0  0  0  0  0  0  0  0  0
    4.2288   -3.3235    9.0898 H   0  0  0  0  0  0  0  0  0  0  0  0
    3.9176   -1.9137    8.0960 H   0  0  0  0  0  0  0  0  0  0  0  0
    3.4952   -5.5645    8.7690 H   0  0  0  0  0  0  0  0  0  0  0  0
    5.1297   -7.6738    8.6552 H   0  0  0  0  0  0  0  0  0  0  0  0
    3.3902   -7.8798    8.4424 H   0  0  0  0  0  0  0  0  0  0  0  0
    4.8254   -8.9361    6.7757 H   0  0  0  0  0  0  0  0  0  0  0  0
    2.9934   -9.1206    6.0016 H   0  0  0  0  0  0  0  0  0  0  0  0
    3.6904   -7.4991    3.5515 H   0  0  0  0  0  0  0  0  0  0  0  0
    5.8707   -9.0814    4.5760 H   0  0  0  0  0  0  0  0  0  0  0  0
    5.9046   -7.6302    3.6133 H   0  0  0  0  0  0  0  0  0  0  0  0
    7.8351   -7.4128    5.7722 H   0  0  0  0  0  0  0  0  0  0  0  0
    7.0787   -8.8052    6.4939 H   0  0  0  0  0  0  0  0  0  0  0  0
    7.1754   -7.3213    7.4058 H   0  0  0  0  0  0  0  0  0  0  0  0
    7.2241   -5.1011    7.0653 H   0  0  0  0  0  0  0  0  0  0  0  0
    6.6726   -3.8300    6.0129 H   0  0  0  0  0  0  0  0  0  0  0  0
    7.5920   -5.1563    5.3323 H   0  0  0  0  0  0  0  0  0  0  0  0
    4.1341   -2.5837    2.9012 H   0  0  0  0  0  0  0  0  0  0  0  0
    4.7691   -2.9842    0.3150 H   0  0  0  0  0  0  0  0  0  0  0  0
    4.9232   -5.2810   -1.2055 H   0  0  0  0  0  0  0  0  0  0  0  0
    4.2789   -7.2852    0.5487 H   0  0  0  0  0  0  0  0  0  0  0  0
    2.3360   -2.9226    4.4246 H   0  0  0  0  0  0  0  0  0  0  0  0
    1.8465   -3.2232    2.8088 H   0  0  0  0  0  0  0  0  0  0  0  0
    1.6233   -5.5552    3.0756 H   0  0  0  0  0  0  0  0  0  0  0  0
    1.7071   -5.9899    7.4392 H   0  0  0  0  0  0  0  0  0  0  0  0
    1.8826   -7.3007    4.3071 H   0  0  0  0  0  0  0  0  0  0  0  0
    0.8621   -9.2960    5.6253 H   0  0  0  0  0  0  0  0  0  0  0  0
   -0.4475   -7.4065    3.6582 H   0  0  0  0  0  0  0  0  0  0  0  0
   -0.9848   -7.8830    5.2739 H   0  0  0  0  0  0  0  0  0  0  0  0
   -0.9734   -9.0557    3.9864 H   0  0  0  0  0  0  0  0  0  0  0  0
    0.3173  -11.0694    3.6085 H   0  0  0  0  0  0  0  0  0  0  0  0
    1.6671  -11.3699    4.6956 H   0  0  0  0  0  0  0  0  0  0  0  0
    1.8910  -11.5304    2.9626 H   0  0  0  0  0  0  0  0  0  0  0  0
    0.5055   -9.0072    1.9508 H   0  0  0  0  0  0  0  0  0  0  0  0
    2.1274   -9.4929    1.4977 H   0  0  0  0  0  0  0  0  0  0  0  0
    1.8446   -7.8764    2.1209 H   0  0  0  0  0  0  0  0  0  0  0  0
  1  2  2  0
  1 40  1  0
  1 41  1  0
  2 32  1  0
  2  3  1  0
  3  4  2  0
  3  5  1  0
  5  6  1  0
  6 32  1  0
  6  7  1  0
  6 42  1  6
  7  8  1  0
  7  9  1  0
  7 43  1  6
  8 44  1  0
  8 45  1  0
  8 46  1  0
  9 18  1  0
  9 10  2  0
 10 11  1  0
 10 47  1  0
 11 12  1  0
 11 48  1  0
 11 49  1  0
 12 16  1  0
 12 13  1  0
 12 50  1  1
 13 33  1  0
 13 14  1  0
 13 51  1  1
 14 39  1  0
 14 15  1  0
 14 52  1  6
 15 16  1  0
 15 53  1  0
 15 54  1  0
 16 17  1  1
 16 18  1  0
 17 55  1  0
 17 56  1  0
 17 57  1  0
 18 19  1  1
 18 20  1  0
 19 58  1  0
 19 59  1  0
 19 60  1  0
 20 21  1  0
 21 22  1  0
 22 23  1  0
 22 28  1  0
 22 61  1  6
 23 27  1  0
 23 24  2  0
 24 25  1  0
 24 62  1  0
 25 26  2  0
 25 63  1  0
 26 27  1  0
 26 64  1  0
 28 29  1  0
 28 65  1  0
 28 66  1  0
 29 31  1  0
 29 30  1  0
 29 67  1  6
 31 30  1  1
 31 32  1  0
 31 33  1  0
 32 68  1  1
 33 34  1  0
 33 69  1  1
 34 35  1  0
 34 36  1  0
 34 70  1  1
 35 71  1  0
 35 72  1  0
 35 73  1  0
 36 37  1  0
 36 38  1  0
 36 39  1  0
 37 74  1  0
 37 75  1  0
 37 76  1  0
 38 77  1  0
 38 78  1  0
 38 79  1  0
M  END
>  <i_m_ct_stereo_status>  (316) 
1

>  <s_m_source_file>  (316) 
/var/tmp/pbs.5076255.sched01/tmpk9_hntje/1089a46f3po.sdf

>  <i_m_source_file_index>  (316) 
46

>  <i_lp_mmshare_version>  (316) 
48012

>  <i_f3d_flags>  (316) 
0

>  <s_epik_input>  (316) 
W0NAQEhdMTJbQ0BASF0oW0NIM10pQyhbQ0gzXSkoW0NIM10pT1tDSF0oW0NIMl1bQ0BdMzRbQ0gzXSlbQ0BIXTFbQ0BASF0zW0NIMl1bQ0hdPUMoW0NASF0oW0NIM10pW0NASF01W0NASF02Qyg9W0NIMl0pQyg9TylPNSlbQ0BdNChbQ0gzXSlPT1tDQEhdKFtDSDJdW0NIXShPNylDMjY3KWM4W2NIXVtjSF1bY0hdbzg=

>  <s_epik_cmdline>  (316) 
J2VwaWtfcHl0aG9uJywgJy1waHQnLCAnMi4wJywgJy1waCcsICc3LjAnLCAnLXRuJywgJzgnLCAnLW1hJywgJzIwMCcsICctaW1hZScsICc8aW5maWxlLm1hZT4nLCAnLW9tYWUnLCAnPG91dGZpbGUubWFlPic=

>  <r_lp_tautomer_probability>  (316) 
1

>  <r_epik_Ionization_Penalty>  (316) 
1.84806e-11

>  <r_epik_Ionization_Penalty_Charging>  (316) 
0

>  <r_epik_Ionization_Penalty_Neutral>  (316) 
1.84806e-11

>  <r_epik_State_Penalty>  (316) 
-0

>  <r_epik_Charging_Adjusted_Penalty>  (316) 
0

>  <i_epik_Tot_Q>  (316) 
0

>  <i_epik_Tot_abs_Q>  (316) 
0

>  <s_epik_Chemistry_Notes>  (316) 
This compound has an ester and may undergo hydrolysis at high or low pH.

>  <s_lp_Force_Field>  (316) 
OPLS3e

>  <r_lp_Energy>  (316) 
210.163

>  <b_lp_Chiralities_Consistent>  (316) 
1

>  <s_lp_Variant>  (316) 
81:0-5

>  <s_i_glide_gridfile>  (316) 
pfpi4k_grid

>  <i_i_glide_lignum>  (316) 
46

>  <i_i_glide_rotatable_bonds>  (316) 
1

>  <r_i_docking_score>  (316) 
-2.112

>  <r_i_glide_ligand_efficiency>  (316) 
-0.0541539

>  <r_i_glide_ligand_efficiency_sa>  (316) 
-0.183647

>  <r_i_glide_ligand_efficiency_ln>  (316) 
-0.452873

>  <r_i_glide_gscore>  (316) 
-2.112

>  <r_i_glide_lipo>  (316) 
-0.363889

>  <r_i_glide_hbond>  (316) 
-0.16

>  <r_i_glide_metal>  (316) 
-0

>  <r_i_glide_rewards>  (316) 
0

>  <r_i_glide_evdw>  (316) 
-24.019

>  <r_i_glide_ecoul>  (316) 
-2.94081

>  <r_i_glide_erotb>  (316) 
0.0717077

>  <r_i_glide_esite>  (316) 
-0.0177467

>  <r_i_glide_emodel>  (316) 
-30.5256

>  <r_i_glide_energy>  (316) 
-26.9598

>  <r_i_glide_einternal>  (316) 
0.631779

>  <r_i_glide_intrahb_reward>  (316) 
-0

>  <i_i_glide_confnum>  (316) 
3

>  <i_i_glide_posenum>  (316) 
3

>  <r_i_glide_eff_state_penalty>  (316) 
0

>  <ligand_id>  (316) 
81

>  <original_smiles>  (316) 
C=C1C(=O)OC2C(C)C3=CCC4C5C6CC4(C)C3(C)OOC(c3ccco3)CC3OC3(C12)C5C(C)C(C)(C)O6

>  <smiles>  (316) 
[H]C([H])=C1C(=O)OC2([H])C([H])(C([H])([H])[H])C3=C([H])C([H])([H])C4([H])C5([H])C6([H])OC(C([H])([H])[H])(C([H])([H])[H])C([H])(C([H])([H])[H])C5([H])C5(OC5([H])C([H])([H])C([H])(c5oc([H])c([H])c5[H])OOC3(C([H])([H])[H])C4(C([H])([H])[H])C6([H])[H])C12[H]

$$$$
81:4:1
     RDKit          3D

 79 86  0  0  1  0  0  0  0  0999 V2000
    4.8026   -2.1998    0.5181 C   0  0  0  0  0  0  0  0  0  0  0  0
    5.4274   -3.2931    0.9842 C   0  0  0  0  0  0  0  0  0  0  0  0
    6.6134   -3.8779    0.3472 C   0  0  0  0  0  0  0  0  0  0  0  0
    7.3740   -3.3208   -0.4433 O   0  0  0  0  0  0  0  0  0  0  0  0
    6.7426   -5.1363    0.8173 O   0  0  0  0  0  0  0  0  0  0  0  0
    5.5606   -5.5718    1.4828 C   0  0  1  0  0  0  0  0  0  0  0  0
    5.6391   -6.9222    2.3050 C   0  0  1  0  0  0  0  0  0  0  0  0
    6.8888   -7.7571    1.9630 C   0  0  0  0  0  0  0  0  0  0  0  0
    5.4917   -6.7030    3.8083 C   0  0  0  0  0  0  0  0  0  0  0  0
    6.3980   -5.8367    4.2998 C   0  0  0  0  0  0  0  0  0  0  0  0
    6.2722   -5.1290    5.5948 C   0  0  0  0  0  0  0  0  0  0  0  0
    4.8221   -5.1625    6.0189 C   0  0  1  0  0  0  0  0  0  0  0  0
    3.7971   -4.1312    5.4563 C   0  0  2  0  0  0  0  0  0  0  0  0
    2.4621   -4.7059    5.8680 C   0  0  1  0  0  0  0  0  0  0  0  0
    2.7552   -6.0578    6.5691 C   0  0  0  0  0  0  0  0  0  0  0  0
    4.1768   -6.5561    6.1063 C   0  0  2  0  0  0  0  0  0  0  0  0
    4.7828   -7.3619    7.2900 C   0  0  0  0  0  0  0  0  0  0  0  0
    4.3487   -7.3492    4.7054 C   0  0  2  0  0  0  0  0  0  0  0  0
    4.7523   -8.8347    4.8648 C   0  0  0  0  0  0  0  0  0  0  0  0
    2.9847   -7.4505    4.2037 O   0  0  0  0  0  0  0  0  0  0  0  0
    2.8658   -8.1423    2.8517 O   0  0  0  0  0  0  0  0  0  0  0  0
    1.8625   -7.5326    1.9942 C   0  0  1  0  0  0  0  0  0  0  0  0
    0.5335   -7.4749    2.7093 C   0  0  0  0  0  0  0  0  0  0  0  0
    0.0934   -6.9637    3.8997 C   0  0  0  0  0  0  0  0  0  0  0  0
   -1.3077   -7.1860    3.9765 C   0  0  0  0  0  0  0  0  0  0  0  0
   -1.6321   -7.8647    2.8412 C   0  0  0  0  0  0  0  0  0  0  0  0
   -0.5366   -8.0087    2.0473 O   0  0  0  0  0  0  0  0  0  0  0  0
    2.2463   -6.2484    1.1641 C   0  0  0  0  0  0  0  0  0  0  0  0
    2.4163   -4.9534    1.9694 C   0  0  1  0  0  0  0  0  0  0  0  0
    3.1694   -5.4164    3.0252 O   0  0  0  0  0  0  0  0  0  0  0  0
    3.6363   -4.1780    2.6829 C   0  0  1  0  0  0  0  0  0  0  0  0
    5.0647   -4.2248    2.1144 C   0  0  2  0  0  0  0  0  0  0  0  0
    3.5277   -3.4216    4.0665 C   0  0  2  0  0  0  0  0  0  0  0  0
    2.7571   -2.1251    4.4777 C   0  0  1  0  0  0  0  0  0  0  0  0
    2.3290   -1.2233    3.3035 C   0  0  0  0  0  0  0  0  0  0  0  0
    1.5806   -2.4316    5.5543 C   0  0  0  0  0  0  0  0  0  0  0  0
    1.4502   -1.2501    6.5328 C   0  0  0  0  0  0  0  0  0  0  0  0
    0.2094   -2.6797    4.8837 C   0  0  0  0  0  0  0  0  0  0  0  0
    1.8022   -3.5758    6.4528 O   0  0  0  0  0  0  0  0  0  0  0  0
    3.8927   -1.8311    0.9608 H   0  0  0  0  0  0  0  0  0  0  0  0
    5.1792   -1.6683   -0.3472 H   0  0  0  0  0  0  0  0  0  0  0  0
    4.9388   -5.7955    0.6231 H   0  0  0  0  0  0  0  0  0  0  0  0
    4.8134   -7.5268    1.9638 H   0  0  0  0  0  0  0  0  0  0  0  0
    6.8553   -8.7341    2.4463 H   0  0  0  0  0  0  0  0  0  0  0  0
    7.8082   -7.2705    2.2872 H   0  0  0  0  0  0  0  0  0  0  0  0
    6.9732   -7.9250    0.8911 H   0  0  0  0  0  0  0  0  0  0  0  0
    7.1929   -5.4609    3.6724 H   0  0  0  0  0  0  0  0  0  0  0  0
    6.9206   -5.6095    6.3299 H   0  0  0  0  0  0  0  0  0  0  0  0
    6.5885   -4.0903    5.4861 H   0  0  0  0  0  0  0  0  0  0  0  0
    4.8962   -4.8553    7.0649 H   0  0  0  0  0  0  0  0  0  0  0  0
    4.0415   -3.2999    6.1250 H   0  0  0  0  0  0  0  0  0  0  0  0
    1.8515   -5.0099    5.0384 H   0  0  0  0  0  0  0  0  0  0  0  0
    2.7623   -5.8780    7.6416 H   0  0  0  0  0  0  0  0  0  0  0  0
    1.9715   -6.7956    6.4072 H   0  0  0  0  0  0  0  0  0  0  0  0
    4.2328   -8.2862    7.4698 H   0  0  0  0  0  0  0  0  0  0  0  0
    4.7466   -6.8015    8.2228 H   0  0  0  0  0  0  0  0  0  0  0  0
    5.8281   -7.6164    7.1239 H   0  0  0  0  0  0  0  0  0  0  0  0
    5.7402   -8.9461    5.3159 H   0  0  0  0  0  0  0  0  0  0  0  0
    4.8135   -9.3203    3.8923 H   0  0  0  0  0  0  0  0  0  0  0  0
    4.0323   -9.4003    5.4568 H   0  0  0  0  0  0  0  0  0  0  0  0
    1.7490   -8.3012    1.2236 H   0  0  0  0  0  0  0  0  0  0  0  0
    0.6964   -6.5003    4.6486 H   0  0  0  0  0  0  0  0  0  0  0  0
   -1.9806   -6.9060    4.7674 H   0  0  0  0  0  0  0  0  0  0  0  0
   -2.5482   -8.2969    2.4619 H   0  0  0  0  0  0  0  0  0  0  0  0
    3.1255   -6.4623    0.5692 H   0  0  0  0  0  0  0  0  0  0  0  0
    1.4668   -6.0746    0.4259 H   0  0  0  0  0  0  0  0  0  0  0  0
    1.4420   -4.5480    2.2293 H   0  0  0  0  0  0  0  0  0  0  0  0
    5.7223   -3.8828    2.9094 H   0  0  0  0  0  0  0  0  0  0  0  0
    2.4924   -3.5994    3.8595 H   0  0  0  0  0  0  0  0  0  0  0  0
    3.4961   -1.5293    5.0131 H   0  0  0  0  0  0  0  0  0  0  0  0
    1.6873   -1.7413    2.5911 H   0  0  0  0  0  0  0  0  0  0  0  0
    3.2038   -0.8541    2.7739 H   0  0  0  0  0  0  0  0  0  0  0  0
    1.7910   -0.3479    3.6609 H   0  0  0  0  0  0  0  0  0  0  0  0
    1.2527   -0.3088    6.0175 H   0  0  0  0  0  0  0  0  0  0  0  0
    2.3698   -1.1284    7.1076 H   0  0  0  0  0  0  0  0  0  0  0  0
    0.6422   -1.4114    7.2490 H   0  0  0  0  0  0  0  0  0  0  0  0
   -0.1418   -1.8053    4.3338 H   0  0  0  0  0  0  0  0  0  0  0  0
   -0.5514   -2.9102    5.6307 H   0  0  0  0  0  0  0  0  0  0  0  0
    0.2370   -3.5160    4.1853 H   0  0  0  0  0  0  0  0  0  0  0  0
  1  2  2  0
  1 40  1  0
  1 41  1  0
  2 32  1  0
  2  3  1  0
  3  4  2  0
  3  5  1  0
  5  6  1  0
  6 32  1  0
  6  7  1  0
  6 42  1  6
  7  8  1  0
  7  9  1  0
  7 43  1  6
  8 44  1  0
  8 45  1  0
  8 46  1  0
  9 18  1  0
  9 10  2  0
 10 11  1  0
 10 47  1  0
 11 12  1  0
 11 48  1  0
 11 49  1  0
 12 16  1  0
 12 13  1  0
 12 50  1  1
 13 33  1  0
 13 14  1  0
 13 51  1  1
 14 39  1  0
 14 15  1  0
 14 52  1  6
 15 16  1  0
 15 53  1  0
 15 54  1  0
 16 17  1  1
 16 18  1  0
 17 55  1  0
 17 56  1  0
 17 57  1  0
 18 19  1  1
 18 20  1  0
 19 58  1  0
 19 59  1  0
 19 60  1  0
 20 21  1  0
 21 22  1  0
 22 23  1  0
 22 28  1  0
 22 61  1  6
 23 27  1  0
 23 24  2  0
 24 25  1  0
 24 62  1  0
 25 26  2  0
 25 63  1  0
 26 27  1  0
 26 64  1  0
 28 29  1  0
 28 65  1  0
 28 66  1  0
 29 31  1  0
 29 30  1  0
 29 67  1  1
 31 30  1  1
 31 32  1  0
 31 33  1  0
 32 68  1  1
 33 34  1  0
 33 69  1  6
 34 35  1  0
 34 36  1  0
 34 70  1  1
 35 71  1  0
 35 72  1  0
 35 73  1  0
 36 37  1  0
 36 38  1  0
 36 39  1  0
 37 74  1  0
 37 75  1  0
 37 76  1  0
 38 77  1  0
 38 78  1  0
 38 79  1  0
M  END
>  <i_m_ct_stereo_status>  (317) 
1

>  <s_m_source_file>  (317) 
/var/tmp/pbs.5076255.sched01/tmpk9_hntje/1089a46f3po.sdf

>  <i_m_source_file_index>  (317) 
46

>  <i_lp_mmshare_version>  (317) 
48012

>  <i_f3d_flags>  (317) 
0

>  <s_epik_input>  (317) 
W0NAQEhdMTJbQ0BASF0oW0NIM10pQyhbQ0gzXSkoW0NIM10pT1tDSF0oW0NIMl1bQ0BdMzRbQ0gzXSlbQ0BIXTFbQ0BASF0zW0NIMl1bQ0hdPUMoW0NASF0oW0NIM10pW0NASF01W0NASF02Qyg9W0NIMl0pQyg9TylPNSlbQ0BdNChbQ0gzXSlPT1tDQEhdKFtDSDJdW0NIXShPNylDMjY3KWM4W2NIXVtjSF1bY0hdbzg=

>  <s_epik_cmdline>  (317) 
J2VwaWtfcHl0aG9uJywgJy1waHQnLCAnMi4wJywgJy1waCcsICc3LjAnLCAnLXRuJywgJzgnLCAnLW1hJywgJzIwMCcsICctaW1hZScsICc8aW5maWxlLm1hZT4nLCAnLW9tYWUnLCAnPG91dGZpbGUubWFlPic=

>  <r_lp_tautomer_probability>  (317) 
1

>  <r_epik_Ionization_Penalty>  (317) 
1.84806e-11

>  <r_epik_Ionization_Penalty_Charging>  (317) 
0

>  <r_epik_Ionization_Penalty_Neutral>  (317) 
1.84806e-11

>  <r_epik_State_Penalty>  (317) 
-0

>  <r_epik_Charging_Adjusted_Penalty>  (317) 
0

>  <i_epik_Tot_Q>  (317) 
0

>  <i_epik_Tot_abs_Q>  (317) 
0

>  <s_epik_Chemistry_Notes>  (317) 
This compound has an ester and may undergo hydrolysis at high or low pH.

>  <s_lp_Force_Field>  (317) 
OPLS3e

>  <r_lp_Energy>  (317) 
210.163

>  <b_lp_Chiralities_Consistent>  (317) 
1

>  <s_lp_Variant>  (317) 
81:0-5

>  <s_i_glide_gridfile>  (317) 
pfpi4k_grid

>  <i_i_glide_lignum>  (317) 
46

>  <i_i_glide_rotatable_bonds>  (317) 
1

>  <r_i_docking_score>  (317) 
-2.03813

>  <r_i_glide_ligand_efficiency>  (317) 
-0.0522598

>  <r_i_glide_ligand_efficiency_sa>  (317) 
-0.177224

>  <r_i_glide_ligand_efficiency_ln>  (317) 
-0.437034

>  <r_i_glide_gscore>  (317) 
-2.03813

>  <r_i_glide_lipo>  (317) 
-0.273608

>  <r_i_glide_hbond>  (317) 
0

>  <r_i_glide_metal>  (317) 
-0

>  <r_i_glide_rewards>  (317) 
-0.152864

>  <r_i_glide_evdw>  (317) 
-31.0402

>  <r_i_glide_ecoul>  (317) 
-0.875737

>  <r_i_glide_erotb>  (317) 
0.0717077

>  <r_i_glide_esite>  (317) 
0

>  <r_i_glide_emodel>  (317) 
-34.287

>  <r_i_glide_energy>  (317) 
-31.9159

>  <r_i_glide_einternal>  (317) 
1.74915

>  <r_i_glide_intrahb_reward>  (317) 
-0

>  <i_i_glide_confnum>  (317) 
4

>  <i_i_glide_posenum>  (317) 
7

>  <r_i_glide_eff_state_penalty>  (317) 
0

>  <ligand_id>  (317) 
81

>  <original_smiles>  (317) 
C=C1C(=O)OC2C(C)C3=CCC4C5C6CC4(C)C3(C)OOC(c3ccco3)CC3OC3(C12)C5C(C)C(C)(C)O6

>  <smiles>  (317) 
[H]C([H])=C1C(=O)OC2([H])C([H])(C([H])([H])[H])C3=C([H])C([H])([H])C4([H])C5([H])C6([H])OC(C([H])([H])[H])(C([H])([H])[H])C([H])(C([H])([H])[H])C5([H])C5(OC5([H])C([H])([H])C([H])(c5oc([H])c([H])c5[H])OOC3(C([H])([H])[H])C4(C([H])([H])[H])C6([H])[H])C12[H]

$$$$
81:4:2
     RDKit          3D

 79 86  0  0  1  0  0  0  0  0999 V2000
   -1.5769   -1.4590    5.3900 C   0  0  0  0  0  0  0  0  0  0  0  0
   -0.5861   -0.6387    5.7693 C   0  0  0  0  0  0  0  0  0  0  0  0
   -0.8063    0.7497    6.1743 C   0  0  0  0  0  0  0  0  0  0  0  0
   -1.8732    1.2322    6.5560 O   0  0  0  0  0  0  0  0  0  0  0  0
    0.3820    1.3758    6.1195 O   0  0  0  0  0  0  0  0  0  0  0  0
    1.3442    0.6032    5.4028 C   0  0  1  0  0  0  0  0  0  0  0  0
    2.8501    1.0743    5.4599 C   0  0  1  0  0  0  0  0  0  0  0  0
    3.0001    2.5176    5.9827 C   0  0  0  0  0  0  0  0  0  0  0  0
    3.7466    0.0927    6.2140 C   0  0  0  0  0  0  0  0  0  0  0  0
    3.3134   -0.1551    7.4637 C   0  0  0  0  0  0  0  0  0  0  0  0
    3.7212   -1.3191    8.2810 C   0  0  0  0  0  0  0  0  0  0  0  0
    4.2848   -2.3762    7.3550 C   0  0  1  0  0  0  0  0  0  0  0  0
    3.3533   -3.3392    6.5550 C   0  0  2  0  0  0  0  0  0  0  0  0
    4.2588   -3.9820    5.5196 C   0  0  1  0  0  0  0  0  0  0  0  0
    5.6427   -3.3284    5.7302 C   0  0  0  0  0  0  0  0  0  0  0  0
    5.4420   -1.9336    6.4455 C   0  0  2  0  0  0  0  0  0  0  0  0
    6.7191   -1.6658    7.2845 C   0  0  0  0  0  0  0  0  0  0  0  0
    5.0133   -0.6365    5.5791 C   0  0  2  0  0  0  0  0  0  0  0  0
    6.1049    0.4634    5.4970 C   0  0  0  0  0  0  0  0  0  0  0  0
    4.9681   -1.1393    4.2140 O   0  0  0  0  0  0  0  0  0  0  0  0
    4.5507   -0.0952    3.1863 O   0  0  0  0  0  0  0  0  0  0  0  0
    3.6891   -0.6522    2.1525 C   0  0  1  0  0  0  0  0  0  0  0  0
    4.3356   -1.8633    1.5360 C   0  0  0  0  0  0  0  0  0  0  0  0
    3.8287   -2.9209    0.8254 C   0  0  0  0  0  0  0  0  0  0  0  0
    4.9377   -3.7262    0.4388 C   0  0  0  0  0  0  0  0  0  0  0  0
    6.0470   -3.0852    0.9158 C   0  0  0  0  0  0  0  0  0  0  0  0
    5.6996   -1.9392    1.5677 O   0  0  0  0  0  0  0  0  0  0  0  0
    2.1447   -0.7942    2.4309 C   0  0  0  0  0  0  0  0  0  0  0  0
    1.7411   -1.9082    3.4019 C   0  0  1  0  0  0  0  0  0  0  0  0
    2.6770   -1.6944    4.3946 O   0  0  0  0  0  0  0  0  0  0  0  0
    1.4903   -2.0262    4.9852 C   0  0  1  0  0  0  0  0  0  0  0  0
    0.9024   -0.8543    5.7898 C   0  0  2  0  0  0  0  0  0  0  0  0
    1.9364   -3.2592    5.8665 C   0  0  2  0  0  0  0  0  0  0  0  0
    1.4233   -4.7355    5.9251 C   0  0  1  0  0  0  0  0  0  0  0  0
    0.0505   -4.9699    5.2794 C   0  0  0  0  0  0  0  0  0  0  0  0
    2.5694   -5.7872    5.4645 C   0  0  0  0  0  0  0  0  0  0  0  0
    2.4212   -7.0927    6.2757 C   0  0  0  0  0  0  0  0  0  0  0  0
    2.5071   -6.1201    3.9556 C   0  0  0  0  0  0  0  0  0  0  0  0
    3.9614   -5.3757    5.7105 O   0  0  0  0  0  0  0  0  0  0  0  0
   -1.3690   -2.4593    5.0534 H   0  0  0  0  0  0  0  0  0  0  0  0
   -2.6098   -1.1369    5.3946 H   0  0  0  0  0  0  0  0  0  0  0  0
    1.0149    0.8047    4.3890 H   0  0  0  0  0  0  0  0  0  0  0  0
    3.1783    1.1331    4.4340 H   0  0  0  0  0  0  0  0  0  0  0  0
    4.0264    2.8704    5.8850 H   0  0  0  0  0  0  0  0  0  0  0  0
    2.7213    2.6031    7.0322 H   0  0  0  0  0  0  0  0  0  0  0  0
    2.3649    3.2053    5.4248 H   0  0  0  0  0  0  0  0  0  0  0  0
    2.4806    0.3941    7.8808 H   0  0  0  0  0  0  0  0  0  0  0  0
    4.4560   -0.9985    9.0201 H   0  0  0  0  0  0  0  0  0  0  0  0
    2.8582   -1.7196    8.8165 H   0  0  0  0  0  0  0  0  0  0  0  0
    4.7618   -3.0525    8.0701 H   0  0  0  0  0  0  0  0  0  0  0  0
    3.1864   -4.0549    7.3647 H   0  0  0  0  0  0  0  0  0  0  0  0
    4.0553   -3.7327    4.4789 H   0  0  0  0  0  0  0  0  0  0  0  0
    6.2292   -3.9952    6.3631 H   0  0  0  0  0  0  0  0  0  0  0  0
    6.1892   -3.2491    4.7930 H   0  0  0  0  0  0  0  0  0  0  0  0
    7.5878   -1.5077    6.6469 H   0  0  0  0  0  0  0  0  0  0  0  0
    6.9687   -2.5053    7.9322 H   0  0  0  0  0  0  0  0  0  0  0  0
    6.6126   -0.7974    7.9315 H   0  0  0  0  0  0  0  0  0  0  0  0
    6.3260    0.8946    6.4739 H   0  0  0  0  0  0  0  0  0  0  0  0
    5.7669    1.2909    4.8747 H   0  0  0  0  0  0  0  0  0  0  0  0
    7.0411    0.1166    5.0626 H   0  0  0  0  0  0  0  0  0  0  0  0
    3.7401    0.1172    1.3787 H   0  0  0  0  0  0  0  0  0  0  0  0
    2.7870   -3.0838    0.5997 H   0  0  0  0  0  0  0  0  0  0  0  0
    4.9321   -4.6416   -0.1327 H   0  0  0  0  0  0  0  0  0  0  0  0
    7.1043   -3.2974    0.8717 H   0  0  0  0  0  0  0  0  0  0  0  0
    1.7474    0.1681    2.7246 H   0  0  0  0  0  0  0  0  0  0  0  0
    1.6491   -1.0014    1.4830 H   0  0  0  0  0  0  0  0  0  0  0  0
    1.7931   -2.8761    2.9080 H   0  0  0  0  0  0  0  0  0  0  0  0
    1.0925   -1.0694    6.8380 H   0  0  0  0  0  0  0  0  0  0  0  0
    2.1207   -3.6626    4.8900 H   0  0  0  0  0  0  0  0  0  0  0  0
    1.2450   -4.9319    6.9835 H   0  0  0  0  0  0  0  0  0  0  0  0
    0.0397   -4.6687    4.2324 H   0  0  0  0  0  0  0  0  0  0  0  0
   -0.7121   -4.4043    5.8099 H   0  0  0  0  0  0  0  0  0  0  0  0
   -0.2424   -6.0179    5.3285 H   0  0  0  0  0  0  0  0  0  0  0  0
    1.4333   -7.5433    6.1580 H   0  0  0  0  0  0  0  0  0  0  0  0
    2.5731   -6.9074    7.3412 H   0  0  0  0  0  0  0  0  0  0  0  0
    3.1589   -7.8384    5.9732 H   0  0  0  0  0  0  0  0  0  0  0  0
    1.5683   -6.6018    3.6796 H   0  0  0  0  0  0  0  0  0  0  0  0
    3.3097   -6.8051    3.6779 H   0  0  0  0  0  0  0  0  0  0  0  0
    2.6189   -5.2299    3.3362 H   0  0  0  0  0  0  0  0  0  0  0  0
  1  2  2  0
  1 40  1  0
  1 41  1  0
  2 32  1  0
  2  3  1  0
  3  4  2  0
  3  5  1  0
  5  6  1  0
  6 32  1  0
  6  7  1  0
  6 42  1  6
  7  8  1  0
  7  9  1  0
  7 43  1  6
  8 44  1  0
  8 45  1  0
  8 46  1  0
  9 18  1  0
  9 10  2  0
 10 11  1  0
 10 47  1  0
 11 12  1  0
 11 48  1  0
 11 49  1  0
 12 16  1  0
 12 13  1  0
 12 50  1  1
 13 33  1  0
 13 14  1  0
 13 51  1  1
 14 39  1  0
 14 15  1  0
 14 52  1  6
 15 16  1  0
 15 53  1  0
 15 54  1  0
 16 17  1  1
 16 18  1  0
 17 55  1  0
 17 56  1  0
 17 57  1  0
 18 19  1  6
 18 20  1  0
 19 58  1  0
 19 59  1  0
 19 60  1  0
 20 21  1  0
 21 22  1  0
 22 23  1  0
 22 28  1  0
 22 61  1  6
 23 27  1  0
 23 24  2  0
 24 25  1  0
 24 62  1  0
 25 26  2  0
 25 63  1  0
 26 27  1  0
 26 64  1  0
 28 29  1  0
 28 65  1  0
 28 66  1  0
 29 31  1  0
 29 30  1  0
 29 67  1  6
 31 30  1  1
 31 32  1  0
 31 33  1  0
 32 68  1  1
 33 34  1  0
 33 69  1  1
 34 35  1  0
 34 36  1  0
 34 70  1  1
 35 71  1  0
 35 72  1  0
 35 73  1  0
 36 37  1  0
 36 38  1  0
 36 39  1  0
 37 74  1  0
 37 75  1  0
 37 76  1  0
 38 77  1  0
 38 78  1  0
 38 79  1  0
M  END
>  <i_m_ct_stereo_status>  (318) 
1

>  <s_m_source_file>  (318) 
/var/tmp/pbs.5076255.sched01/tmpk9_hntje/1089a46f3po.sdf

>  <i_m_source_file_index>  (318) 
46

>  <i_lp_mmshare_version>  (318) 
48012

>  <i_f3d_flags>  (318) 
0

>  <s_epik_input>  (318) 
W0NAQEhdMTJbQ0BASF0oW0NIM10pQyhbQ0gzXSkoW0NIM10pT1tDSF0oW0NIMl1bQ0BdMzRbQ0gzXSlbQ0BIXTFbQ0BASF0zW0NIMl1bQ0hdPUMoW0NASF0oW0NIM10pW0NASF01W0NASF02Qyg9W0NIMl0pQyg9TylPNSlbQ0BdNChbQ0gzXSlPT1tDQEhdKFtDSDJdW0NIXShPNylDMjY3KWM4W2NIXVtjSF1bY0hdbzg=

>  <s_epik_cmdline>  (318) 
J2VwaWtfcHl0aG9uJywgJy1waHQnLCAnMi4wJywgJy1waCcsICc3LjAnLCAnLXRuJywgJzgnLCAnLW1hJywgJzIwMCcsICctaW1hZScsICc8aW5maWxlLm1hZT4nLCAnLW9tYWUnLCAnPG91dGZpbGUubWFlPic=

>  <r_lp_tautomer_probability>  (318) 
1

>  <r_epik_Ionization_Penalty>  (318) 
1.84806e-11

>  <r_epik_Ionization_Penalty_Charging>  (318) 
0

>  <r_epik_Ionization_Penalty_Neutral>  (318) 
1.84806e-11

>  <r_epik_State_Penalty>  (318) 
-0

>  <r_epik_Charging_Adjusted_Penalty>  (318) 
0

>  <i_epik_Tot_Q>  (318) 
0

>  <i_epik_Tot_abs_Q>  (318) 
0

>  <s_epik_Chemistry_Notes>  (318) 
This compound has an ester and may undergo hydrolysis at high or low pH.

>  <s_lp_Force_Field>  (318) 
OPLS3e

>  <r_lp_Energy>  (318) 
210.163

>  <b_lp_Chiralities_Consistent>  (318) 
1

>  <s_lp_Variant>  (318) 
81:0-5

>  <s_i_glide_gridfile>  (318) 
pfpi4k_grid

>  <i_i_glide_lignum>  (318) 
46

>  <i_i_glide_rotatable_bonds>  (318) 
1

>  <r_i_docking_score>  (318) 
-1.98496

>  <r_i_glide_ligand_efficiency>  (318) 
-0.0508964

>  <r_i_glide_ligand_efficiency_sa>  (318) 
-0.172601

>  <r_i_glide_ligand_efficiency_ln>  (318) 
-0.425632

>  <r_i_glide_gscore>  (318) 
-1.98496

>  <r_i_glide_lipo>  (318) 
-0.369134

>  <r_i_glide_hbond>  (318) 
-0.0332349

>  <r_i_glide_metal>  (318) 
-0

>  <r_i_glide_rewards>  (318) 
0

>  <r_i_glide_evdw>  (318) 
-25.2299

>  <r_i_glide_ecoul>  (318) 
-2.39433

>  <r_i_glide_erotb>  (318) 
0.0717077

>  <r_i_glide_esite>  (318) 
-0.0336551

>  <r_i_glide_emodel>  (318) 
-31.1424

>  <r_i_glide_energy>  (318) 
-27.6242

>  <r_i_glide_einternal>  (318) 
0.062054

>  <r_i_glide_intrahb_reward>  (318) 
-0

>  <i_i_glide_confnum>  (318) 
2

>  <i_i_glide_posenum>  (318) 
5

>  <r_i_glide_eff_state_penalty>  (318) 
0

>  <ligand_id>  (318) 
81

>  <original_smiles>  (318) 
C=C1C(=O)OC2C(C)C3=CCC4C5C6CC4(C)C3(C)OOC(c3ccco3)CC3OC3(C12)C5C(C)C(C)(C)O6

>  <smiles>  (318) 
[H]C([H])=C1C(=O)OC2([H])C([H])(C([H])([H])[H])C3=C([H])C([H])([H])C4([H])C5([H])C6([H])OC(C([H])([H])[H])(C([H])([H])[H])C([H])(C([H])([H])[H])C5([H])C5(OC5([H])C([H])([H])C([H])(c5oc([H])c([H])c5[H])OOC3(C([H])([H])[H])C4(C([H])([H])[H])C6([H])[H])C12[H]

$$$$
81:5:0
     RDKit          3D

 79 86  0  0  1  0  0  0  0  0999 V2000
    3.7360    0.1478    1.4951 C   0  0  0  0  0  0  0  0  0  0  0  0
    3.2051   -0.8786    2.1793 C   0  0  0  0  0  0  0  0  0  0  0  0
    3.0856   -2.2352    1.6294 C   0  0  0  0  0  0  0  0  0  0  0  0
    3.6372   -2.6666    0.6198 O   0  0  0  0  0  0  0  0  0  0  0  0
    2.3082   -2.9476    2.4585 O   0  0  0  0  0  0  0  0  0  0  0  0
    1.6117   -2.1146    3.3794 C   0  0  1  0  0  0  0  0  0  0  0  0
    0.9289   -2.8165    4.6180 C   0  0  1  0  0  0  0  0  0  0  0  0
    0.7460   -4.3358    4.4258 C   0  0  0  0  0  0  0  0  0  0  0  0
    1.6459   -2.4917    5.9270 C   0  0  0  0  0  0  0  0  0  0  0  0
    2.9440   -2.8401    5.8956 C   0  0  0  0  0  0  0  0  0  0  0  0
    3.9640   -2.2784    6.8006 C   0  0  0  0  0  0  0  0  0  0  0  0
    3.4929   -0.9226    7.2964 C   0  0  1  0  0  0  0  0  0  0  0  0
    3.7429    0.4016    6.4841 C   0  0  2  0  0  0  0  0  0  0  0  0
    3.3777    1.3280    7.6493 C   0  0  2  0  0  0  0  0  0  0  0  0
    2.0255    0.6870    8.1392 C   0  0  0  0  0  0  0  0  0  0  0  0
    2.1302   -0.8897    8.0081 C   0  0  2  0  0  0  0  0  0  0  0  0
    2.2800   -1.4400    9.4479 C   0  0  0  0  0  0  0  0  0  0  0  0
    1.0142   -1.7140    7.1639 C   0  0  2  0  0  0  0  0  0  0  0  0
    0.3118   -2.8364    7.9649 C   0  0  0  0  0  0  0  0  0  0  0  0
   -0.0818   -0.7643    7.0171 O   0  0  0  0  0  0  0  0  0  0  0  0
   -1.1870   -1.1975    6.0653 O   0  0  0  0  0  0  0  0  0  0  0  0
   -1.6089   -0.1145    5.1879 C   0  0  1  0  0  0  0  0  0  0  0  0
   -1.9161    1.1196    5.9902 C   0  0  0  0  0  0  0  0  0  0  0  0
   -2.1130    2.4289    5.6491 C   0  0  0  0  0  0  0  0  0  0  0  0
   -2.5109    3.1048    6.8348 C   0  0  0  0  0  0  0  0  0  0  0  0
   -2.5536    2.1649    7.8152 C   0  0  0  0  0  0  0  0  0  0  0  0
   -2.2125    0.9531    7.3078 O   0  0  0  0  0  0  0  0  0  0  0  0
   -0.8153    0.1791    3.8614 C   0  0  0  0  0  0  0  0  0  0  0  0
    0.5495    0.8279    4.0445 C   0  0  1  0  0  0  0  0  0  0  0  0
    1.0236    0.0145    5.0707 O   0  0  0  0  0  0  0  0  0  0  0  0
    2.0547    0.3327    4.2488 C   0  0  1  0  0  0  0  0  0  0  0  0
    2.6240   -0.9287    3.5714 C   0  0  2  0  0  0  0  0  0  0  0  0
    2.9786    1.0811    5.2538 C   0  0  2  0  0  0  0  0  0  0  0  0
    3.7346    2.3669    4.8549 C   0  0  1  0  0  0  0  0  0  0  0  0
    2.9839    3.1971    3.7873 C   0  0  0  0  0  0  0  0  0  0  0  0
    4.0855    3.1876    6.1728 C   0  0  0  0  0  0  0  0  0  0  0  0
    5.5955    3.1520    6.5185 C   0  0  0  0  0  0  0  0  0  0  0  0
    3.6866    4.6799    6.1092 C   0  0  0  0  0  0  0  0  0  0  0  0
    3.3074    2.7216    7.2994 O   0  0  0  0  0  0  0  0  0  0  0  0
    3.8079    1.1309    1.9220 H   0  0  0  0  0  0  0  0  0  0  0  0
    4.1282    0.0140    0.4934 H   0  0  0  0  0  0  0  0  0  0  0  0
    0.8088   -1.7654    2.7365 H   0  0  0  0  0  0  0  0  0  0  0  0
   -0.0778   -2.4427    4.6475 H   0  0  0  0  0  0  0  0  0  0  0  0
    0.1476   -4.7669    5.2247 H   0  0  0  0  0  0  0  0  0  0  0  0
    1.6963   -4.8659    4.3919 H   0  0  0  0  0  0  0  0  0  0  0  0
    0.2379   -4.5463    3.4871 H   0  0  0  0  0  0  0  0  0  0  0  0
    3.3618   -3.3899    5.0624 H   0  0  0  0  0  0  0  0  0  0  0  0
    4.1180   -2.9720    7.6266 H   0  0  0  0  0  0  0  0  0  0  0  0
    4.9122   -2.1729    6.2685 H   0  0  0  0  0  0  0  0  0  0  0  0
    4.2231   -0.8254    8.0997 H   0  0  0  0  0  0  0  0  0  0  0  0
    4.8099    0.4239    6.2612 H   0  0  0  0  0  0  0  0  0  0  0  0
    4.1282    1.2538    8.4393 H   0  0  0  0  0  0  0  0  0  0  0  0
    1.8297    1.0100    9.1632 H   0  0  0  0  0  0  0  0  0  0  0  0
    1.1968    1.0899    7.5644 H   0  0  0  0  0  0  0  0  0  0  0  0
    1.3557   -1.3338   10.0140 H   0  0  0  0  0  0  0  0  0  0  0  0
    3.0401   -0.8992   10.0103 H   0  0  0  0  0  0  0  0  0  0  0  0
    2.5704   -2.4889    9.4588 H   0  0  0  0  0  0  0  0  0  0  0  0
    1.0097   -3.6193    8.2699 H   0  0  0  0  0  0  0  0  0  0  0  0
   -0.4408   -3.3263    7.3425 H   0  0  0  0  0  0  0  0  0  0  0  0
   -0.2001   -2.4636    8.8555 H   0  0  0  0  0  0  0  0  0  0  0  0
   -2.5785   -0.4706    4.8410 H   0  0  0  0  0  0  0  0  0  0  0  0
   -2.0208    2.8266    4.6505 H   0  0  0  0  0  0  0  0  0  0  0  0
   -2.7723    4.1364    6.9789 H   0  0  0  0  0  0  0  0  0  0  0  0
   -2.8061    2.1859    8.8638 H   0  0  0  0  0  0  0  0  0  0  0  0
   -0.7307   -0.7237    3.2782 H   0  0  0  0  0  0  0  0  0  0  0  0
   -1.4157    0.8506    3.2458 H   0  0  0  0  0  0  0  0  0  0  0  0
    0.4317    1.8782    4.3003 H   0  0  0  0  0  0  0  0  0  0  0  0
    3.4978   -1.2208    4.1487 H   0  0  0  0  0  0  0  0  0  0  0  0
    2.1667    1.6342    5.7177 H   0  0  0  0  0  0  0  0  0  0  0  0
    4.6566    2.0342    4.3921 H   0  0  0  0  0  0  0  0  0  0  0  0
    2.0488    3.6123    4.1656 H   0  0  0  0  0  0  0  0  0  0  0  0
    2.7255    2.6053    2.9130 H   0  0  0  0  0  0  0  0  0  0  0  0
    3.5968    4.0213    3.4195 H   0  0  0  0  0  0  0  0  0  0  0  0
    6.1963    3.5676    5.7084 H   0  0  0  0  0  0  0  0  0  0  0  0
    5.9718    2.1506    6.7132 H   0  0  0  0  0  0  0  0  0  0  0  0
    5.8176    3.7476    7.4064 H   0  0  0  0  0  0  0  0  0  0  0  0
    4.1837    5.2190    5.2977 H   0  0  0  0  0  0  0  0  0  0  0  0
    3.9463    5.1935    7.0390 H   0  0  0  0  0  0  0  0  0  0  0  0
    2.6069    4.7980    5.9905 H   0  0  0  0  0  0  0  0  0  0  0  0
  1  2  2  0
  1 40  1  0
  1 41  1  0
  2 32  1  0
  2  3  1  0
  3  4  2  0
  3  5  1  0
  5  6  1  0
  6 32  1  0
  6  7  1  0
  6 42  1  6
  7  8  1  0
  7  9  1  0
  7 43  1  1
  8 44  1  0
  8 45  1  0
  8 46  1  0
  9 18  1  0
  9 10  2  0
 10 11  1  0
 10 47  1  0
 11 12  1  0
 11 48  1  0
 11 49  1  0
 12 16  1  0
 12 13  1  0
 12 50  1  1
 13 33  1  0
 13 14  1  0
 13 51  1  6
 14 39  1  0
 14 15  1  0
 14 52  1  1
 15 16  1  0
 15 53  1  0
 15 54  1  0
 16 17  1  1
 16 18  1  0
 17 55  1  0
 17 56  1  0
 17 57  1  0
 18 19  1  1
 18 20  1  0
 19 58  1  0
 19 59  1  0
 19 60  1  0
 20 21  1  0
 21 22  1  0
 22 23  1  0
 22 28  1  0
 22 61  1  6
 23 27  1  0
 23 24  2  0
 24 25  1  0
 24 62  1  0
 25 26  2  0
 25 63  1  0
 26 27  1  0
 26 64  1  0
 28 29  1  0
 28 65  1  0
 28 66  1  0
 29 31  1  0
 29 30  1  0
 29 67  1  1
 31 30  1  1
 31 32  1  0
 31 33  1  0
 32 68  1  1
 33 34  1  0
 33 69  1  1
 34 35  1  0
 34 36  1  0
 34 70  1  6
 35 71  1  0
 35 72  1  0
 35 73  1  0
 36 37  1  0
 36 38  1  0
 36 39  1  0
 37 74  1  0
 37 75  1  0
 37 76  1  0
 38 77  1  0
 38 78  1  0
 38 79  1  0
M  END
>  <i_m_ct_stereo_status>  (319) 
1

>  <s_m_source_file>  (319) 
/var/tmp/pbs.5076255.sched01/tmpk9_hntje/1089a46f3po.sdf

>  <i_m_source_file_index>  (319) 
47

>  <i_lp_mmshare_version>  (319) 
48012

>  <i_f3d_flags>  (319) 
0

>  <s_epik_input>  (319) 
W0NAQEhdMTJbQ0BASF0oW0NIM10pQyhbQ0gzXSkoW0NIM10pT1tDSF0oW0NIMl1bQ0BdMzRbQ0gzXSlbQ0BIXTFbQ0BASF0zW0NIMl1bQ0hdPUMoW0NASF0oW0NIM10pW0NASF01W0NASF02Qyg9W0NIMl0pQyg9TylPNSlbQ0BdNChbQ0gzXSlPT1tDQEhdKFtDSDJdW0NIXShPNylDMjY3KWM4W2NIXVtjSF1bY0hdbzg=

>  <s_epik_cmdline>  (319) 
J2VwaWtfcHl0aG9uJywgJy1waHQnLCAnMi4wJywgJy1waCcsICc3LjAnLCAnLXRuJywgJzgnLCAnLW1hJywgJzIwMCcsICctaW1hZScsICc8aW5maWxlLm1hZT4nLCAnLW9tYWUnLCAnPG91dGZpbGUubWFlPic=

>  <r_lp_tautomer_probability>  (319) 
1

>  <r_epik_Ionization_Penalty>  (319) 
1.84806e-11

>  <r_epik_Ionization_Penalty_Charging>  (319) 
0

>  <r_epik_Ionization_Penalty_Neutral>  (319) 
1.84806e-11

>  <r_epik_State_Penalty>  (319) 
-0

>  <r_epik_Charging_Adjusted_Penalty>  (319) 
0

>  <i_epik_Tot_Q>  (319) 
0

>  <i_epik_Tot_abs_Q>  (319) 
0

>  <s_epik_Chemistry_Notes>  (319) 
This compound has an ester and may undergo hydrolysis at high or low pH.

>  <s_lp_Force_Field>  (319) 
OPLS3e

>  <r_lp_Energy>  (319) 
186.32

>  <b_lp_Chiralities_Consistent>  (319) 
1

>  <s_lp_Variant>  (319) 
81:0-6

>  <s_i_glide_gridfile>  (319) 
pfpi4k_grid

>  <i_i_glide_lignum>  (319) 
47

>  <i_i_glide_rotatable_bonds>  (319) 
1

>  <r_i_docking_score>  (319) 
-2.25106

>  <r_i_glide_ligand_efficiency>  (319) 
-0.0577196

>  <r_i_glide_ligand_efficiency_sa>  (319) 
-0.195739

>  <r_i_glide_ligand_efficiency_ln>  (319) 
-0.482692

>  <r_i_glide_gscore>  (319) 
-2.25106

>  <r_i_glide_lipo>  (319) 
-0.254396

>  <r_i_glide_hbond>  (319) 
-0.179366

>  <r_i_glide_metal>  (319) 
-0

>  <r_i_glide_rewards>  (319) 
0

>  <r_i_glide_evdw>  (319) 
-24.7388

>  <r_i_glide_ecoul>  (319) 
-4.25235

>  <r_i_glide_erotb>  (319) 
0.0717077

>  <r_i_glide_esite>  (319) 
-0.0142138

>  <r_i_glide_emodel>  (319) 
-32.6027

>  <r_i_glide_energy>  (319) 
-28.9912

>  <r_i_glide_einternal>  (319) 
0.195702

>  <r_i_glide_intrahb_reward>  (319) 
-0

>  <i_i_glide_confnum>  (319) 
2

>  <i_i_glide_posenum>  (319) 
2

>  <r_i_glide_eff_state_penalty>  (319) 
0

>  <ligand_id>  (319) 
81

>  <original_smiles>  (319) 
C=C1C(=O)OC2C(C)C3=CCC4C5C6CC4(C)C3(C)OOC(c3ccco3)CC3OC3(C12)C5C(C)C(C)(C)O6

>  <smiles>  (319) 
[H]C([H])=C1C(=O)OC2([H])C([H])(C([H])([H])[H])C3=C([H])C([H])([H])C4([H])C5([H])C6([H])OC(C([H])([H])[H])(C([H])([H])[H])C([H])(C([H])([H])[H])C5([H])C5(OC5([H])C([H])([H])C([H])(c5oc([H])c([H])c5[H])OOC3(C([H])([H])[H])C4(C([H])([H])[H])C6([H])[H])C12[H]

$$$$
81:5:1
     RDKit          3D

 79 86  0  0  1  0  0  0  0  0999 V2000
    0.8903   -4.7513    7.1012 C   0  0  0  0  0  0  0  0  0  0  0  0
    0.4568   -3.5905    6.5792 C   0  0  0  0  0  0  0  0  0  0  0  0
   -0.9626   -3.2525    6.4811 C   0  0  0  0  0  0  0  0  0  0  0  0
   -1.8958   -3.8519    7.0171 O   0  0  0  0  0  0  0  0  0  0  0  0
   -1.0748   -2.1375    5.7345 O   0  0  0  0  0  0  0  0  0  0  0  0
    0.1268   -1.8579    5.0211 C   0  0  1  0  0  0  0  0  0  0  0  0
    0.2665   -0.4211    4.3757 C   0  0  1  0  0  0  0  0  0  0  0  0
   -1.0833    0.2992    4.2053 C   0  0  0  0  0  0  0  0  0  0  0  0
    1.2876    0.4433    5.1140 C   0  0  0  0  0  0  0  0  0  0  0  0
    0.9864    0.5854    6.4124 C   0  0  0  0  0  0  0  0  0  0  0  0
    1.9699    0.9675    7.4435 C   0  0  0  0  0  0  0  0  0  0  0  0
    3.3615    0.5945    6.9637 C   0  0  1  0  0  0  0  0  0  0  0  0
    3.9723   -0.8415    7.1811 C   0  0  2  0  0  0  0  0  0  0  0  0
    5.4059   -0.4139    6.8441 C   0  0  2  0  0  0  0  0  0  0  0  0
    5.1640    0.3865    5.5154 C   0  0  0  0  0  0  0  0  0  0  0  0
    3.8041    1.1930    5.6200 C   0  0  2  0  0  0  0  0  0  0  0  0
    4.1899    2.6836    5.8039 C   0  0  0  0  0  0  0  0  0  0  0  0
    2.6403    1.0188    4.4943 C   0  0  2  0  0  0  0  0  0  0  0  0
    2.1960    2.3346    3.8127 C   0  0  0  0  0  0  0  0  0  0  0  0
    3.3261    0.3674    3.3897 O   0  0  0  0  0  0  0  0  0  0  0  0
    2.4257   -0.1072    2.2570 O   0  0  0  0  0  0  0  0  0  0  0  0
    2.7912   -1.4368    1.7791 C   0  0  1  0  0  0  0  0  0  0  0  0
    4.2507   -1.4689    1.3909 C   0  0  0  0  0  0  0  0  0  0  0  0
    5.4108   -0.9302    1.9002 C   0  0  0  0  0  0  0  0  0  0  0  0
    6.4754   -1.3942    1.0796 C   0  0  0  0  0  0  0  0  0  0  0  0
    5.9024   -2.1507    0.1053 C   0  0  0  0  0  0  0  0  0  0  0  0
    4.5524   -2.2198    0.2896 O   0  0  0  0  0  0  0  0  0  0  0  0
    2.2682   -2.7142    2.5487 C   0  0  0  0  0  0  0  0  0  0  0  0
    2.9047   -2.9801    3.9124 C   0  0  1  0  0  0  0  0  0  0  0  0
    2.8358   -1.7005    4.4313 O   0  0  0  0  0  0  0  0  0  0  0  0
    2.6209   -2.5799    5.4366 C   0  0  1  0  0  0  0  0  0  0  0  0
    1.2087   -2.4090    6.0164 C   0  0  2  0  0  0  0  0  0  0  0  0
    3.8055   -2.2245    6.3837 C   0  0  2  0  0  0  0  0  0  0  0  0
    4.6136   -3.3221    7.1231 C   0  0  1  0  0  0  0  0  0  0  0  0
    4.6697   -4.6484    6.3271 C   0  0  0  0  0  0  0  0  0  0  0  0
    6.0516   -2.7293    7.4722 C   0  0  0  0  0  0  0  0  0  0  0  0
    6.2295   -2.4601    8.9841 C   0  0  0  0  0  0  0  0  0  0  0  0
    7.2244   -3.6414    7.0510 C   0  0  0  0  0  0  0  0  0  0  0  0
    6.3233   -1.5161    6.7260 O   0  0  0  0  0  0  0  0  0  0  0  0
    1.9325   -4.9882    7.1907 H   0  0  0  0  0  0  0  0  0  0  0  0
    0.1845   -5.4919    7.4566 H   0  0  0  0  0  0  0  0  0  0  0  0
    0.0305   -2.5582    4.1965 H   0  0  0  0  0  0  0  0  0  0  0  0
    0.5866   -0.5844    3.3630 H   0  0  0  0  0  0  0  0  0  0  0  0
   -0.9713    1.2145    3.6243 H   0  0  0  0  0  0  0  0  0  0  0  0
   -1.5322    0.5653    5.1607 H   0  0  0  0  0  0  0  0  0  0  0  0
   -1.7936   -0.3353    3.6794 H   0  0  0  0  0  0  0  0  0  0  0  0
    0.0570    0.2117    6.8201 H   0  0  0  0  0  0  0  0  0  0  0  0
    1.8914    2.0411    7.6173 H   0  0  0  0  0  0  0  0  0  0  0  0
    1.7521    0.4489    8.3785 H   0  0  0  0  0  0  0  0  0  0  0  0
    3.9071    1.1755    7.7087 H   0  0  0  0  0  0  0  0  0  0  0  0
    3.8546   -1.0664    8.2403 H   0  0  0  0  0  0  0  0  0  0  0  0
    5.8103    0.2462    7.6184 H   0  0  0  0  0  0  0  0  0  0  0  0
    6.0219    1.0243    5.2960 H   0  0  0  0  0  0  0  0  0  0  0  0
    5.1153   -0.3447    4.7238 H   0  0  0  0  0  0  0  0  0  0  0  0
    4.6010    3.0992    4.8848 H   0  0  0  0  0  0  0  0  0  0  0  0
    4.9643    2.8073    6.5605 H   0  0  0  0  0  0  0  0  0  0  0  0
    3.3409    3.2969    6.1070 H   0  0  0  0  0  0  0  0  0  0  0  0
    1.7407    3.0282    4.5219 H   0  0  0  0  0  0  0  0  0  0  0  0
    1.4368    2.1289    3.0561 H   0  0  0  0  0  0  0  0  0  0  0  0
    3.0168    2.8389    3.2980 H   0  0  0  0  0  0  0  0  0  0  0  0
    2.2353   -1.4872    0.8419 H   0  0  0  0  0  0  0  0  0  0  0  0
    5.5142   -0.2760    2.7457 H   0  0  0  0  0  0  0  0  0  0  0  0
    7.5263   -1.1769    1.1977 H   0  0  0  0  0  0  0  0  0  0  0  0
    6.2890   -2.6858   -0.7529 H   0  0  0  0  0  0  0  0  0  0  0  0
    1.1859   -2.6690    2.6166 H   0  0  0  0  0  0  0  0  0  0  0  0
    2.4630   -3.5877    1.9282 H   0  0  0  0  0  0  0  0  0  0  0  0
    3.9048   -3.3810    3.7767 H   0  0  0  0  0  0  0  0  0  0  0  0
    1.3099   -1.7871    6.9022 H   0  0  0  0  0  0  0  0  0  0  0  0
    4.5290   -2.1604    5.5755 H   0  0  0  0  0  0  0  0  0  0  0  0
    4.0987   -3.5469    8.0583 H   0  0  0  0  0  0  0  0  0  0  0  0
    5.2290   -4.5443    5.3981 H   0  0  0  0  0  0  0  0  0  0  0  0
    3.6835   -5.0054    6.0487 H   0  0  0  0  0  0  0  0  0  0  0  0
    5.1336   -5.4412    6.9128 H   0  0  0  0  0  0  0  0  0  0  0  0
    6.0852   -3.3755    9.5580 H   0  0  0  0  0  0  0  0  0  0  0  0
    5.5333   -1.7229    9.3751 H   0  0  0  0  0  0  0  0  0  0  0  0
    7.2337   -2.0956    9.2058 H   0  0  0  0  0  0  0  0  0  0  0  0
    7.1955   -4.6242    7.5262 H   0  0  0  0  0  0  0  0  0  0  0  0
    8.1776   -3.1823    7.3192 H   0  0  0  0  0  0  0  0  0  0  0  0
    7.2481   -3.7837    5.9691 H   0  0  0  0  0  0  0  0  0  0  0  0
  1  2  2  0
  1 40  1  0
  1 41  1  0
  2 32  1  0
  2  3  1  0
  3  4  2  0
  3  5  1  0
  5  6  1  0
  6 32  1  0
  6  7  1  0
  6 42  1  6
  7  8  1  0
  7  9  1  0
  7 43  1  6
  8 44  1  0
  8 45  1  0
  8 46  1  0
  9 18  1  0
  9 10  2  0
 10 11  1  0
 10 47  1  0
 11 12  1  0
 11 48  1  0
 11 49  1  0
 12 16  1  0
 12 13  1  0
 12 50  1  1
 13 33  1  0
 13 14  1  0
 13 51  1  1
 14 39  1  0
 14 15  1  0
 14 52  1  1
 15 16  1  0
 15 53  1  0
 15 54  1  0
 16 17  1  1
 16 18  1  0
 17 55  1  0
 17 56  1  0
 17 57  1  0
 18 19  1  6
 18 20  1  0
 19 58  1  0
 19 59  1  0
 19 60  1  0
 20 21  1  0
 21 22  1  0
 22 23  1  0
 22 28  1  0
 22 61  1  6
 23 27  1  0
 23 24  2  0
 24 25  1  0
 24 62  1  0
 25 26  2  0
 25 63  1  0
 26 27  1  0
 26 64  1  0
 28 29  1  0
 28 65  1  0
 28 66  1  0
 29 31  1  0
 29 30  1  0
 29 67  1  1
 31 30  1  6
 31 32  1  0
 31 33  1  0
 32 68  1  1
 33 34  1  0
 33 69  1  6
 34 35  1  0
 34 36  1  0
 34 70  1  1
 35 71  1  0
 35 72  1  0
 35 73  1  0
 36 37  1  0
 36 38  1  0
 36 39  1  0
 37 74  1  0
 37 75  1  0
 37 76  1  0
 38 77  1  0
 38 78  1  0
 38 79  1  0
M  END
>  <i_m_ct_stereo_status>  (320) 
1

>  <s_m_source_file>  (320) 
/var/tmp/pbs.5076255.sched01/tmpk9_hntje/1089a46f3po.sdf

>  <i_m_source_file_index>  (320) 
47

>  <i_lp_mmshare_version>  (320) 
48012

>  <i_f3d_flags>  (320) 
0

>  <s_epik_input>  (320) 
W0NAQEhdMTJbQ0BASF0oW0NIM10pQyhbQ0gzXSkoW0NIM10pT1tDSF0oW0NIMl1bQ0BdMzRbQ0gzXSlbQ0BIXTFbQ0BASF0zW0NIMl1bQ0hdPUMoW0NASF0oW0NIM10pW0NASF01W0NASF02Qyg9W0NIMl0pQyg9TylPNSlbQ0BdNChbQ0gzXSlPT1tDQEhdKFtDSDJdW0NIXShPNylDMjY3KWM4W2NIXVtjSF1bY0hdbzg=

>  <s_epik_cmdline>  (320) 
J2VwaWtfcHl0aG9uJywgJy1waHQnLCAnMi4wJywgJy1waCcsICc3LjAnLCAnLXRuJywgJzgnLCAnLW1hJywgJzIwMCcsICctaW1hZScsICc8aW5maWxlLm1hZT4nLCAnLW9tYWUnLCAnPG91dGZpbGUubWFlPic=

>  <r_lp_tautomer_probability>  (320) 
1

>  <r_epik_Ionization_Penalty>  (320) 
1.84806e-11

>  <r_epik_Ionization_Penalty_Charging>  (320) 
0

>  <r_epik_Ionization_Penalty_Neutral>  (320) 
1.84806e-11

>  <r_epik_State_Penalty>  (320) 
-0

>  <r_epik_Charging_Adjusted_Penalty>  (320) 
0

>  <i_epik_Tot_Q>  (320) 
0

>  <i_epik_Tot_abs_Q>  (320) 
0

>  <s_epik_Chemistry_Notes>  (320) 
This compound has an ester and may undergo hydrolysis at high or low pH.

>  <s_lp_Force_Field>  (320) 
OPLS3e

>  <r_lp_Energy>  (320) 
186.32

>  <b_lp_Chiralities_Consistent>  (320) 
1

>  <s_lp_Variant>  (320) 
81:0-6

>  <s_i_glide_gridfile>  (320) 
pfpi4k_grid

>  <i_i_glide_lignum>  (320) 
47

>  <i_i_glide_rotatable_bonds>  (320) 
1

>  <r_i_docking_score>  (320) 
-1.92302

>  <r_i_glide_ligand_efficiency>  (320) 
-0.0493081

>  <r_i_glide_ligand_efficiency_sa>  (320) 
-0.167214

>  <r_i_glide_ligand_efficiency_ln>  (320) 
-0.412349

>  <r_i_glide_gscore>  (320) 
-1.92302

>  <r_i_glide_lipo>  (320) 
-0.294759

>  <r_i_glide_hbond>  (320) 
0

>  <r_i_glide_metal>  (320) 
-0

>  <r_i_glide_rewards>  (320) 
0

>  <r_i_glide_evdw>  (320) 
-27.3355

>  <r_i_glide_ecoul>  (320) 
-1.96633

>  <r_i_glide_erotb>  (320) 
0.0717077

>  <r_i_glide_esite>  (320) 
-0.0382379

>  <r_i_glide_emodel>  (320) 
-31.4187

>  <r_i_glide_energy>  (320) 
-29.3019

>  <r_i_glide_einternal>  (320) 
1.7892

>  <r_i_glide_intrahb_reward>  (320) 
-0

>  <i_i_glide_confnum>  (320) 
2

>  <i_i_glide_posenum>  (320) 
11

>  <r_i_glide_eff_state_penalty>  (320) 
0

>  <ligand_id>  (320) 
81

>  <original_smiles>  (320) 
C=C1C(=O)OC2C(C)C3=CCC4C5C6CC4(C)C3(C)OOC(c3ccco3)CC3OC3(C12)C5C(C)C(C)(C)O6

>  <smiles>  (320) 
[H]C([H])=C1C(=O)OC2([H])C([H])(C([H])([H])[H])C3=C([H])C([H])([H])C4([H])C5([H])C6([H])OC(C([H])([H])[H])(C([H])([H])[H])C([H])(C([H])([H])[H])C5([H])C5(OC5([H])C([H])([H])C([H])(c5oc([H])c([H])c5[H])OOC3(C([H])([H])[H])C4(C([H])([H])[H])C6([H])[H])C12[H]

$$$$
81:5:2
     RDKit          3D

 79 86  0  0  1  0  0  0  0  0999 V2000
   -0.8525   -4.2442    7.8890 C   0  0  0  0  0  0  0  0  0  0  0  0
   -0.1015   -3.9061    6.8296 C   0  0  0  0  0  0  0  0  0  0  0  0
   -0.2848   -2.6573    6.0726 C   0  0  0  0  0  0  0  0  0  0  0  0
   -0.9701   -1.6959    6.4071 O   0  0  0  0  0  0  0  0  0  0  0  0
    0.4680   -2.7338    4.9659 O   0  0  0  0  0  0  0  0  0  0  0  0
    0.9046   -4.0618    4.7141 C   0  0  1  0  0  0  0  0  0  0  0  0
    2.0516   -4.2507    3.6450 C   0  0  1  0  0  0  0  0  0  0  0  0
    2.2239   -3.0292    2.7208 C   0  0  0  0  0  0  0  0  0  0  0  0
    3.3718   -4.6771    4.2911 C   0  0  0  0  0  0  0  0  0  0  0  0
    3.7887   -3.7991    5.2164 C   0  0  0  0  0  0  0  0  0  0  0  0
    4.7506   -4.1255    6.2876 C   0  0  0  0  0  0  0  0  0  0  0  0
    4.7137   -5.6216    6.5408 C   0  0  1  0  0  0  0  0  0  0  0  0
    3.6736   -6.2839    7.5214 C   0  0  2  0  0  0  0  0  0  0  0  0
    4.4008   -7.6329    7.5722 C   0  0  2  0  0  0  0  0  0  0  0  0
    4.6609   -7.9070    6.0447 C   0  0  0  0  0  0  0  0  0  0  0  0
    4.9914   -6.5305    5.3295 C   0  0  2  0  0  0  0  0  0  0  0  0
    6.5132   -6.5447    5.0263 C   0  0  0  0  0  0  0  0  0  0  0  0
    4.1339   -6.0538    4.0312 C   0  0  2  0  0  0  0  0  0  0  0  0
    4.9820   -5.7596    2.7706 C   0  0  0  0  0  0  0  0  0  0  0  0
    3.4341   -7.2637    3.6174 O   0  0  0  0  0  0  0  0  0  0  0  0
    2.3873   -7.0591    2.5327 O   0  0  0  0  0  0  0  0  0  0  0  0
    1.1664   -7.8072    2.8062 C   0  0  1  0  0  0  0  0  0  0  0  0
    1.4885   -9.2476    3.0771 C   0  0  0  0  0  0  0  0  0  0  0  0
    0.7920  -10.2490    3.6948 C   0  0  0  0  0  0  0  0  0  0  0  0
    1.5868  -11.4222    3.5950 C   0  0  0  0  0  0  0  0  0  0  0  0
    2.6951  -11.0618    2.8858 C   0  0  0  0  0  0  0  0  0  0  0  0
    2.6452   -9.7445    2.5427 O   0  0  0  0  0  0  0  0  0  0  0  0
    0.0767   -7.1921    3.7693 C   0  0  0  0  0  0  0  0  0  0  0  0
    0.4390   -7.1718    5.2564 C   0  0  1  0  0  0  0  0  0  0  0  0
    1.7261   -6.6723    5.1493 O   0  0  0  0  0  0  0  0  0  0  0  0
    1.1635   -6.1643    6.2729 C   0  0  1  0  0  0  0  0  0  0  0  0
    1.0415   -4.6338    6.1686 C   0  0  2  0  0  0  0  0  0  0  0  0
    2.1408   -6.7192    7.3528 C   0  0  2  0  0  0  0  0  0  0  0  0
    1.6305   -7.2694    8.7120 C   0  0  1  0  0  0  0  0  0  0  0  0
    0.2200   -7.8940    8.5998 C   0  0  0  0  0  0  0  0  0  0  0  0
    2.7255   -8.2752    9.2900 C   0  0  0  0  0  0  0  0  0  0  0  0
    3.4673   -7.6883   10.5165 C   0  0  0  0  0  0  0  0  0  0  0  0
    2.1595   -9.6487    9.7236 C   0  0  0  0  0  0  0  0  0  0  0  0
    3.6830   -8.6621    8.2748 O   0  0  0  0  0  0  0  0  0  0  0  0
   -0.6906   -5.1508    8.4423 H   0  0  0  0  0  0  0  0  0  0  0  0
   -1.6470   -3.6011    8.2390 H   0  0  0  0  0  0  0  0  0  0  0  0
    0.0030   -4.4767    4.2724 H   0  0  0  0  0  0  0  0  0  0  0  0
    1.7084   -5.0222    2.9810 H   0  0  0  0  0  0  0  0  0  0  0  0
    2.9171   -3.2479    1.9087 H   0  0  0  0  0  0  0  0  0  0  0  0
    2.6052   -2.1609    3.2546 H   0  0  0  0  0  0  0  0  0  0  0  0
    1.2784   -2.7283    2.2740 H   0  0  0  0  0  0  0  0  0  0  0  0
    3.2768   -2.8575    5.3658 H   0  0  0  0  0  0  0  0  0  0  0  0
    5.7427   -3.7964    5.9765 H   0  0  0  0  0  0  0  0  0  0  0  0
    4.4873   -3.5864    7.1985 H   0  0  0  0  0  0  0  0  0  0  0  0
    5.6298   -5.6657    7.1336 H   0  0  0  0  0  0  0  0  0  0  0  0
    3.7555   -5.7370    8.4600 H   0  0  0  0  0  0  0  0  0  0  0  0
    5.3534   -7.5267    8.0950 H   0  0  0  0  0  0  0  0  0  0  0  0
    5.4686   -8.6321    5.9431 H   0  0  0  0  0  0  0  0  0  0  0  0
    3.7947   -8.3984    5.6085 H   0  0  0  0  0  0  0  0  0  0  0  0
    6.7556   -7.2566    4.2384 H   0  0  0  0  0  0  0  0  0  0  0  0
    7.0947   -6.8465    5.8974 H   0  0  0  0  0  0  0  0  0  0  0  0
    6.8821   -5.5656    4.7277 H   0  0  0  0  0  0  0  0  0  0  0  0
    5.6693   -4.9261    2.9252 H   0  0  0  0  0  0  0  0  0  0  0  0
    4.3340   -5.4701    1.9430 H   0  0  0  0  0  0  0  0  0  0  0  0
    5.5507   -6.6266    2.4328 H   0  0  0  0  0  0  0  0  0  0  0  0
    0.6796   -7.8153    1.8285 H   0  0  0  0  0  0  0  0  0  0  0  0
   -0.1816  -10.1557    4.1572 H   0  0  0  0  0  0  0  0  0  0  0  0
    1.3602  -12.4091    3.9675 H   0  0  0  0  0  0  0  0  0  0  0  0
    3.5642  -11.6044    2.5337 H   0  0  0  0  0  0  0  0  0  0  0  0
   -0.2003   -6.2111    3.4097 H   0  0  0  0  0  0  0  0  0  0  0  0
   -0.8324   -7.7845    3.6738 H   0  0  0  0  0  0  0  0  0  0  0  0
    0.3593   -8.1725    5.6735 H   0  0  0  0  0  0  0  0  0  0  0  0
    1.8914   -4.2183    6.6993 H   0  0  0  0  0  0  0  0  0  0  0  0
    2.1990   -7.7092    6.9070 H   0  0  0  0  0  0  0  0  0  0  0  0
    1.5376   -6.4264    9.3993 H   0  0  0  0  0  0  0  0  0  0  0  0
    0.2188   -8.7900    7.9805 H   0  0  0  0  0  0  0  0  0  0  0  0
   -0.4928   -7.2112    8.1498 H   0  0  0  0  0  0  0  0  0  0  0  0
   -0.1738   -8.1631    9.5799 H   0  0  0  0  0  0  0  0  0  0  0  0
    2.7672   -7.4405   11.3148 H   0  0  0  0  0  0  0  0  0  0  0  0
    4.0244   -6.7825   10.2916 H   0  0  0  0  0  0  0  0  0  0  0  0
    4.1818   -8.4019   10.9285 H   0  0  0  0  0  0  0  0  0  0  0  0
    1.4030   -9.5687   10.5051 H   0  0  0  0  0  0  0  0  0  0  0  0
    2.9523  -10.2884   10.1156 H   0  0  0  0  0  0  0  0  0  0  0  0
    1.7311  -10.1915    8.8785 H   0  0  0  0  0  0  0  0  0  0  0  0
  1  2  2  0
  1 40  1  0
  1 41  1  0
  2 32  1  0
  2  3  1  0
  3  4  2  0
  3  5  1  0
  5  6  1  0
  6 32  1  0
  6  7  1  0
  6 42  1  6
  7  8  1  0
  7  9  1  0
  7 43  1  6
  8 44  1  0
  8 45  1  0
  8 46  1  0
  9 18  1  0
  9 10  2  0
 10 11  1  0
 10 47  1  0
 11 12  1  0
 11 48  1  0
 11 49  1  0
 12 16  1  0
 12 13  1  0
 12 50  1  1
 13 33  1  0
 13 14  1  0
 13 51  1  1
 14 39  1  0
 14 15  1  0
 14 52  1  1
 15 16  1  0
 15 53  1  0
 15 54  1  0
 16 17  1  6
 16 18  1  0
 17 55  1  0
 17 56  1  0
 17 57  1  0
 18 19  1  6
 18 20  1  0
 19 58  1  0
 19 59  1  0
 19 60  1  0
 20 21  1  0
 21 22  1  0
 22 23  1  0
 22 28  1  0
 22 61  1  6
 23 27  1  0
 23 24  2  0
 24 25  1  0
 24 62  1  0
 25 26  2  0
 25 63  1  0
 26 27  1  0
 26 64  1  0
 28 29  1  0
 28 65  1  0
 28 66  1  0
 29 31  1  0
 29 30  1  0
 29 67  1  1
 31 30  1  6
 31 32  1  0
 31 33  1  0
 32 68  1  1
 33 34  1  0
 33 69  1  6
 34 35  1  0
 34 36  1  0
 34 70  1  1
 35 71  1  0
 35 72  1  0
 35 73  1  0
 36 37  1  0
 36 38  1  0
 36 39  1  0
 37 74  1  0
 37 75  1  0
 37 76  1  0
 38 77  1  0
 38 78  1  0
 38 79  1  0
M  END
>  <i_m_ct_stereo_status>  (321) 
1

>  <s_m_source_file>  (321) 
/var/tmp/pbs.5076255.sched01/tmpk9_hntje/1089a46f3po.sdf

>  <i_m_source_file_index>  (321) 
47

>  <i_lp_mmshare_version>  (321) 
48012

>  <i_f3d_flags>  (321) 
0

>  <s_epik_input>  (321) 
W0NAQEhdMTJbQ0BASF0oW0NIM10pQyhbQ0gzXSkoW0NIM10pT1tDSF0oW0NIMl1bQ0BdMzRbQ0gzXSlbQ0BIXTFbQ0BASF0zW0NIMl1bQ0hdPUMoW0NASF0oW0NIM10pW0NASF01W0NASF02Qyg9W0NIMl0pQyg9TylPNSlbQ0BdNChbQ0gzXSlPT1tDQEhdKFtDSDJdW0NIXShPNylDMjY3KWM4W2NIXVtjSF1bY0hdbzg=

>  <s_epik_cmdline>  (321) 
J2VwaWtfcHl0aG9uJywgJy1waHQnLCAnMi4wJywgJy1waCcsICc3LjAnLCAnLXRuJywgJzgnLCAnLW1hJywgJzIwMCcsICctaW1hZScsICc8aW5maWxlLm1hZT4nLCAnLW9tYWUnLCAnPG91dGZpbGUubWFlPic=

>  <r_lp_tautomer_probability>  (321) 
1

>  <r_epik_Ionization_Penalty>  (321) 
1.84806e-11

>  <r_epik_Ionization_Penalty_Charging>  (321) 
0

>  <r_epik_Ionization_Penalty_Neutral>  (321) 
1.84806e-11

>  <r_epik_State_Penalty>  (321) 
-0

>  <r_epik_Charging_Adjusted_Penalty>  (321) 
0

>  <i_epik_Tot_Q>  (321) 
0

>  <i_epik_Tot_abs_Q>  (321) 
0

>  <s_epik_Chemistry_Notes>  (321) 
This compound has an ester and may undergo hydrolysis at high or low pH.

>  <s_lp_Force_Field>  (321) 
OPLS3e

>  <r_lp_Energy>  (321) 
186.32

>  <b_lp_Chiralities_Consistent>  (321) 
1

>  <s_lp_Variant>  (321) 
81:0-6

>  <s_i_glide_gridfile>  (321) 
pfpi4k_grid

>  <i_i_glide_lignum>  (321) 
47

>  <i_i_glide_rotatable_bonds>  (321) 
1

>  <r_i_docking_score>  (321) 
-1.59036

>  <r_i_glide_ligand_efficiency>  (321) 
-0.0407785

>  <r_i_glide_ligand_efficiency_sa>  (321) 
-0.138289

>  <r_i_glide_ligand_efficiency_ln>  (321) 
-0.341019

>  <r_i_glide_gscore>  (321) 
-1.59036

>  <r_i_glide_lipo>  (321) 
-0.148523

>  <r_i_glide_hbond>  (321) 
-0.00158778

>  <r_i_glide_metal>  (321) 
-0

>  <r_i_glide_rewards>  (321) 
0

>  <r_i_glide_evdw>  (321) 
-25.8593

>  <r_i_glide_ecoul>  (321) 
-1.29057

>  <r_i_glide_erotb>  (321) 
0.0717077

>  <r_i_glide_esite>  (321) 
-0.0254083

>  <r_i_glide_emodel>  (321) 
-29.7073

>  <r_i_glide_energy>  (321) 
-27.1499

>  <r_i_glide_einternal>  (321) 
0.101051

>  <r_i_glide_intrahb_reward>  (321) 
-0

>  <i_i_glide_confnum>  (321) 
4

>  <i_i_glide_posenum>  (321) 
8

>  <r_i_glide_eff_state_penalty>  (321) 
0

>  <ligand_id>  (321) 
81

>  <original_smiles>  (321) 
C=C1C(=O)OC2C(C)C3=CCC4C5C6CC4(C)C3(C)OOC(c3ccco3)CC3OC3(C12)C5C(C)C(C)(C)O6

>  <smiles>  (321) 
[H]C([H])=C1C(=O)OC2([H])C([H])(C([H])([H])[H])C3=C([H])C([H])([H])C4([H])C5([H])C6([H])OC(C([H])([H])[H])(C([H])([H])[H])C([H])(C([H])([H])[H])C5([H])C5(OC5([H])C([H])([H])C([H])(c5oc([H])c([H])c5[H])OOC3(C([H])([H])[H])C4(C([H])([H])[H])C6([H])[H])C12[H]

$$$$
81:6:0
     RDKit          3D

 79 86  0  0  1  0  0  0  0  0999 V2000
    5.6567   -1.9893    6.9484 C   0  0  0  0  0  0  0  0  0  0  0  0
    5.3470   -1.5347    5.7210 C   0  0  0  0  0  0  0  0  0  0  0  0
    5.3111   -0.1026    5.3841 C   0  0  0  0  0  0  0  0  0  0  0  0
    5.8180    0.8185    6.0232 O   0  0  0  0  0  0  0  0  0  0  0  0
    4.6502    0.0301    4.2204 O   0  0  0  0  0  0  0  0  0  0  0  0
    3.9367   -1.1588    3.8983 C   0  0  1  0  0  0  0  0  0  0  0  0
    3.3051   -1.2869    2.4491 C   0  0  1  0  0  0  0  0  0  0  0  0
    3.0166    0.0794    1.7984 C   0  0  0  0  0  0  0  0  0  0  0  0
    4.1218   -2.2088    1.5548 C   0  0  0  0  0  0  0  0  0  0  0  0
    5.4215   -1.8660    1.4705 C   0  0  0  0  0  0  0  0  0  0  0  0
    6.4730   -2.7952    1.0217 C   0  0  0  0  0  0  0  0  0  0  0  0
    5.9249   -4.2059    1.1154 C   0  0  1  0  0  0  0  0  0  0  0  0
    5.8423   -4.9840    2.4525 C   0  0  2  0  0  0  0  0  0  0  0  0
    5.2664   -6.3205    1.9876 C   0  0  1  0  0  0  0  0  0  0  0  0
    4.7111   -6.0678    0.5632 C   0  0  0  0  0  0  0  0  0  0  0  0
    4.6745   -4.5068    0.3285 C   0  0  2  0  0  0  0  0  0  0  0  0
    4.9517   -4.2498   -1.1671 C   0  0  0  0  0  0  0  0  0  0  0  0
    3.5255   -3.5267    0.9043 C   0  0  2  0  0  0  0  0  0  0  0  0
    2.6737   -2.9834   -0.2547 C   0  0  0  0  0  0  0  0  0  0  0  0
    2.3612   -4.0732    1.5935 O   0  0  0  0  0  0  0  0  0  0  0  0
    2.5909   -5.3604    2.3467 O   0  0  0  0  0  0  0  0  0  0  0  0
    1.5960   -5.4967    3.3820 C   0  0  1  0  0  0  0  0  0  0  0  0
    0.8500   -6.7604    3.0845 C   0  0  0  0  0  0  0  0  0  0  0  0
    1.1299   -7.8785    2.3500 C   0  0  0  0  0  0  0  0  0  0  0  0
    0.0184   -8.7492    2.4973 C   0  0  0  0  0  0  0  0  0  0  0  0
   -0.8702   -8.0926    3.3120 C   0  0  0  0  0  0  0  0  0  0  0  0
   -0.3770   -6.8776    3.6715 O   0  0  0  0  0  0  0  0  0  0  0  0
    2.1563   -5.4486    4.8543 C   0  0  0  0  0  0  0  0  0  0  0  0
    2.9984   -4.1971    5.1876 C   0  0  2  0  0  0  0  0  0  0  0  0
    3.0365   -3.4829    4.0086 O   0  0  0  0  0  0  0  0  0  0  0  0
    4.3369   -3.6998    4.5104 C   0  0  1  0  0  0  0  0  0  0  0  0
    4.9106   -2.2648    4.4723 C   0  0  2  0  0  0  0  0  0  0  0  0
    5.2082   -4.8575    3.8857 C   0  0  2  0  0  0  0  0  0  0  0  0
    6.1104   -5.8350    4.7127 C   0  0  1  0  0  0  0  0  0  0  0  0
    5.6726   -6.0101    6.1788 C   0  0  0  0  0  0  0  0  0  0  0  0
    6.3210   -7.2474    3.9460 C   0  0  0  0  0  0  0  0  0  0  0  0
    7.7437   -7.7645    4.2339 C   0  0  0  0  0  0  0  0  0  0  0  0
    5.2990   -8.3243    4.3840 C   0  0  0  0  0  0  0  0  0  0  0  0
    6.2545   -7.2228    2.4741 O   0  0  0  0  0  0  0  0  0  0  0  0
    5.6387   -3.0373    7.1905 H   0  0  0  0  0  0  0  0  0  0  0  0
    5.9264   -1.3062    7.7466 H   0  0  0  0  0  0  0  0  0  0  0  0
    3.0703   -1.1019    4.5627 H   0  0  0  0  0  0  0  0  0  0  0  0
    2.3232   -1.7489    2.5608 H   0  0  0  0  0  0  0  0  0  0  0  0
    2.4524   -0.0337    0.8730 H   0  0  0  0  0  0  0  0  0  0  0  0
    3.9326    0.6202    1.5633 H   0  0  0  0  0  0  0  0  0  0  0  0
    2.4259    0.7110    2.4623 H   0  0  0  0  0  0  0  0  0  0  0  0
    5.7907   -0.9557    1.9193 H   0  0  0  0  0  0  0  0  0  0  0  0
    6.7790   -2.5352    0.0060 H   0  0  0  0  0  0  0  0  0  0  0  0
    7.3434   -2.7215    1.6703 H   0  0  0  0  0  0  0  0  0  0  0  0
    6.7175   -4.7450    0.5887 H   0  0  0  0  0  0  0  0  0  0  0  0
    6.9186   -5.0625    2.6297 H   0  0  0  0  0  0  0  0  0  0  0  0
    4.3741   -6.7461    2.4312 H   0  0  0  0  0  0  0  0  0  0  0  0
    5.3991   -6.5444   -0.1324 H   0  0  0  0  0  0  0  0  0  0  0  0
    3.7426   -6.5460    0.3998 H   0  0  0  0  0  0  0  0  0  0  0  0
    4.1471   -4.6292   -1.7770 H   0  0  0  0  0  0  0  0  0  0  0  0
    5.8169   -4.7915   -1.4963 H   0  0  0  0  0  0  0  0  0  0  0  0
    5.1397   -3.2123   -1.4208 H   0  0  0  0  0  0  0  0  0  0  0  0
    3.2181   -2.3145   -0.9225 H   0  0  0  0  0  0  0  0  0  0  0  0
    1.9002   -2.3530    0.1813 H   0  0  0  0  0  0  0  0  0  0  0  0
    2.2007   -3.7624   -0.8591 H   0  0  0  0  0  0  0  0  0  0  0  0
    0.8948   -4.6704    3.2734 H   0  0  0  0  0  0  0  0  0  0  0  0
    2.0371   -8.0510    1.7816 H   0  0  0  0  0  0  0  0  0  0  0  0
   -0.1298   -9.7341    2.0865 H   0  0  0  0  0  0  0  0  0  0  0  0
   -1.8327   -8.3630    3.7114 H   0  0  0  0  0  0  0  0  0  0  0  0
    1.3245   -5.4873    5.5608 H   0  0  0  0  0  0  0  0  0  0  0  0
    2.7423   -6.3452    5.0556 H   0  0  0  0  0  0  0  0  0  0  0  0
    2.6834   -3.6432    6.0677 H   0  0  0  0  0  0  0  0  0  0  0  0
    5.8150   -2.3254    3.8835 H   0  0  0  0  0  0  0  0  0  0  0  0
    4.3772   -5.5199    3.8907 H   0  0  0  0  0  0  0  0  0  0  0  0
    7.0858   -5.3516    4.7776 H   0  0  0  0  0  0  0  0  0  0  0  0
    4.6731   -6.4317    6.2707 H   0  0  0  0  0  0  0  0  0  0  0  0
    5.6739   -5.0630    6.7063 H   0  0  0  0  0  0  0  0  0  0  0  0
    6.3552   -6.6685    6.7151 H   0  0  0  0  0  0  0  0  0  0  0  0
    7.9274   -7.8730    5.3046 H   0  0  0  0  0  0  0  0  0  0  0  0
    8.4948   -7.0780    3.8384 H   0  0  0  0  0  0  0  0  0  0  0  0
    7.9190   -8.7372    3.7698 H   0  0  0  0  0  0  0  0  0  0  0  0
    5.4393   -8.6230    5.4246 H   0  0  0  0  0  0  0  0  0  0  0  0
    5.4023   -9.2280    3.7802 H   0  0  0  0  0  0  0  0  0  0  0  0
    4.2697   -7.9823    4.2788 H   0  0  0  0  0  0  0  0  0  0  0  0
  1  2  2  0
  1 40  1  0
  1 41  1  0
  2 32  1  0
  2  3  1  0
  3  4  2  0
  3  5  1  0
  5  6  1  0
  6 32  1  0
  6  7  1  0
  6 42  1  1
  7  8  1  0
  7  9  1  0
  7 43  1  1
  8 44  1  0
  8 45  1  0
  8 46  1  0
  9 18  1  0
  9 10  2  0
 10 11  1  0
 10 47  1  0
 11 12  1  0
 11 48  1  0
 11 49  1  0
 12 16  1  0
 12 13  1  0
 12 50  1  6
 13 33  1  0
 13 14  1  0
 13 51  1  1
 14 39  1  0
 14 15  1  0
 14 52  1  1
 15 16  1  0
 15 53  1  0
 15 54  1  0
 16 17  1  6
 16 18  1  0
 17 55  1  0
 17 56  1  0
 17 57  1  0
 18 19  1  6
 18 20  1  0
 19 58  1  0
 19 59  1  0
 19 60  1  0
 20 21  1  0
 21 22  1  0
 22 23  1  0
 22 28  1  0
 22 61  1  1
 23 27  1  0
 23 24  2  0
 24 25  1  0
 24 62  1  0
 25 26  2  0
 25 63  1  0
 26 27  1  0
 26 64  1  0
 28 29  1  0
 28 65  1  0
 28 66  1  0
 29 31  1  0
 29 30  1  0
 29 67  1  1
 31 30  1  6
 31 32  1  0
 31 33  1  0
 32 68  1  6
 33 34  1  0
 33 69  1  6
 34 35  1  0
 34 36  1  0
 34 70  1  1
 35 71  1  0
 35 72  1  0
 35 73  1  0
 36 37  1  0
 36 38  1  0
 36 39  1  0
 37 74  1  0
 37 75  1  0
 37 76  1  0
 38 77  1  0
 38 78  1  0
 38 79  1  0
M  END
>  <i_m_ct_stereo_status>  (322) 
1

>  <s_m_source_file>  (322) 
/var/tmp/pbs.5076255.sched01/tmpk9_hntje/1089a46f3po.sdf

>  <i_m_source_file_index>  (322) 
48

>  <i_lp_mmshare_version>  (322) 
48012

>  <i_f3d_flags>  (322) 
0

>  <s_epik_input>  (322) 
W0NAQEhdMTJbQ0BASF0oW0NIM10pQyhbQ0gzXSkoW0NIM10pT1tDSF0oW0NIMl1bQ0BdMzRbQ0gzXSlbQ0BIXTFbQ0BASF0zW0NIMl1bQ0hdPUMoW0NASF0oW0NIM10pW0NASF01W0NASF02Qyg9W0NIMl0pQyg9TylPNSlbQ0BdNChbQ0gzXSlPT1tDQEhdKFtDSDJdW0NIXShPNylDMjY3KWM4W2NIXVtjSF1bY0hdbzg=

>  <s_epik_cmdline>  (322) 
J2VwaWtfcHl0aG9uJywgJy1waHQnLCAnMi4wJywgJy1waCcsICc3LjAnLCAnLXRuJywgJzgnLCAnLW1hJywgJzIwMCcsICctaW1hZScsICc8aW5maWxlLm1hZT4nLCAnLW9tYWUnLCAnPG91dGZpbGUubWFlPic=

>  <r_lp_tautomer_probability>  (322) 
1

>  <r_epik_Ionization_Penalty>  (322) 
1.84806e-11

>  <r_epik_Ionization_Penalty_Charging>  (322) 
0

>  <r_epik_Ionization_Penalty_Neutral>  (322) 
1.84806e-11

>  <r_epik_State_Penalty>  (322) 
-0

>  <r_epik_Charging_Adjusted_Penalty>  (322) 
0

>  <i_epik_Tot_Q>  (322) 
0

>  <i_epik_Tot_abs_Q>  (322) 
0

>  <s_epik_Chemistry_Notes>  (322) 
This compound has an ester and may undergo hydrolysis at high or low pH.

>  <s_lp_Force_Field>  (322) 
OPLS3e

>  <r_lp_Energy>  (322) 
201.774

>  <b_lp_Chiralities_Consistent>  (322) 
1

>  <s_lp_Variant>  (322) 
81:0-7

>  <s_i_glide_gridfile>  (322) 
pfpi4k_grid

>  <i_i_glide_lignum>  (322) 
48

>  <i_i_glide_rotatable_bonds>  (322) 
1

>  <r_i_docking_score>  (322) 
-2.07453

>  <r_i_glide_ligand_efficiency>  (322) 
-0.0531931

>  <r_i_glide_ligand_efficiency_sa>  (322) 
-0.180389

>  <r_i_glide_ligand_efficiency_ln>  (322) 
-0.444838

>  <r_i_glide_gscore>  (322) 
-2.07453

>  <r_i_glide_lipo>  (322) 
-0.555975

>  <r_i_glide_hbond>  (322) 
-0.0206409

>  <r_i_glide_metal>  (322) 
-0

>  <r_i_glide_rewards>  (322) 
-0.0602724

>  <r_i_glide_evdw>  (322) 
-26.4807

>  <r_i_glide_ecoul>  (322) 
-1.23542

>  <r_i_glide_erotb>  (322) 
0.0717077

>  <r_i_glide_esite>  (322) 
0

>  <r_i_glide_emodel>  (322) 
-30.5861

>  <r_i_glide_energy>  (322) 
-27.7162

>  <r_i_glide_einternal>  (322) 
0.891752

>  <r_i_glide_intrahb_reward>  (322) 
-0

>  <i_i_glide_confnum>  (322) 
3

>  <i_i_glide_posenum>  (322) 
4

>  <r_i_glide_eff_state_penalty>  (322) 
0

>  <ligand_id>  (322) 
81

>  <original_smiles>  (322) 
C=C1C(=O)OC2C(C)C3=CCC4C5C6CC4(C)C3(C)OOC(c3ccco3)CC3OC3(C12)C5C(C)C(C)(C)O6

>  <smiles>  (322) 
[H]C([H])=C1C(=O)OC2([H])C([H])(C([H])([H])[H])C3=C([H])C([H])([H])C4([H])C5([H])C6([H])OC(C([H])([H])[H])(C([H])([H])[H])C([H])(C([H])([H])[H])C5([H])C5(OC5([H])C([H])([H])C([H])(c5oc([H])c([H])c5[H])OOC3(C([H])([H])[H])C4(C([H])([H])[H])C6([H])[H])C12[H]

$$$$
81:6:1
     RDKit          3D

 79 86  0  0  1  0  0  0  0  0999 V2000
   -1.4400   -4.8855    7.0133 C   0  0  0  0  0  0  0  0  0  0  0  0
   -0.2461   -4.6499    7.5771 C   0  0  0  0  0  0  0  0  0  0  0  0
   -0.0909   -3.8399    8.7974 C   0  0  0  0  0  0  0  0  0  0  0  0
   -0.9817   -3.5275    9.5845 O   0  0  0  0  0  0  0  0  0  0  0  0
    1.2057   -3.5073    8.9032 O   0  0  0  0  0  0  0  0  0  0  0  0
    1.8947   -3.7282    7.6768 C   0  0  1  0  0  0  0  0  0  0  0  0
    3.4744   -3.6109    7.6644 C   0  0  1  0  0  0  0  0  0  0  0  0
    4.0191   -2.7272    8.8003 C   0  0  0  0  0  0  0  0  0  0  0  0
    4.1371   -4.9788    7.6133 C   0  0  0  0  0  0  0  0  0  0  0  0
    3.7186   -5.8103    8.5786 C   0  0  0  0  0  0  0  0  0  0  0  0
    3.8638   -7.2754    8.5142 C   0  0  0  0  0  0  0  0  0  0  0  0
    4.1518   -7.6540    7.0738 C   0  0  1  0  0  0  0  0  0  0  0  0
    3.0215   -7.7614    6.0182 C   0  0  2  0  0  0  0  0  0  0  0  0
    3.8051   -8.1931    4.7819 C   0  0  1  0  0  0  0  0  0  0  0  0
    5.2953   -7.9211    5.1077 C   0  0  0  0  0  0  0  0  0  0  0  0
    5.3603   -7.0199    6.4066 C   0  0  2  0  0  0  0  0  0  0  0  0
    6.6592   -7.4398    7.1523 C   0  0  0  0  0  0  0  0  0  0  0  0
    5.1146   -5.4103    6.4407 C   0  0  2  0  0  0  0  0  0  0  0  0
    6.4283   -4.6616    6.7964 C   0  0  0  0  0  0  0  0  0  0  0  0
    4.9381   -4.6752    5.1952 O   0  0  0  0  0  0  0  0  0  0  0  0
    4.2844   -5.4519    4.0703 O   0  0  0  0  0  0  0  0  0  0  0  0
    3.6750   -4.5422    3.1268 C   0  0  1  0  0  0  0  0  0  0  0  0
    4.3394   -4.7925    1.8060 C   0  0  0  0  0  0  0  0  0  0  0  0
    3.8676   -4.9560    0.5296 C   0  0  0  0  0  0  0  0  0  0  0  0
    5.0069   -5.1345   -0.3034 C   0  0  0  0  0  0  0  0  0  0  0  0
    6.0914   -5.0508    0.5246 C   0  0  0  0  0  0  0  0  0  0  0  0
    5.7028   -4.8340    1.8114 O   0  0  0  0  0  0  0  0  0  0  0  0
    2.1022   -4.6277    3.0389 C   0  0  0  0  0  0  0  0  0  0  0  0
    1.3572   -4.4856    4.3785 C   0  0  2  0  0  0  0  0  0  0  0  0
    2.3617   -4.3535    5.3151 O   0  0  0  0  0  0  0  0  0  0  0  0
    1.4706   -5.3926    5.6704 C   0  0  1  0  0  0  0  0  0  0  0  0
    1.1483   -5.0185    7.1373 C   0  0  2  0  0  0  0  0  0  0  0  0
    1.8895   -6.8815    5.3711 C   0  0  2  0  0  0  0  0  0  0  0  0
    0.9194   -7.9784    4.8152 C   0  0  1  0  0  0  0  0  0  0  0  0
   -0.2765   -7.4209    4.0188 C   0  0  0  0  0  0  0  0  0  0  0  0
    1.7234   -9.1354    4.0149 C   0  0  0  0  0  0  0  0  0  0  0  0
    1.0239  -10.4892    4.2557 C   0  0  0  0  0  0  0  0  0  0  0  0
    1.7920   -8.8750    2.4890 C   0  0  0  0  0  0  0  0  0  0  0  0
    3.1158   -9.3859    4.4262 O   0  0  0  0  0  0  0  0  0  0  0  0
   -1.5332   -5.4416    6.0978 H   0  0  0  0  0  0  0  0  0  0  0  0
   -2.3577   -4.5249    7.4647 H   0  0  0  0  0  0  0  0  0  0  0  0
    1.5651   -2.8790    7.0696 H   0  0  0  0  0  0  0  0  0  0  0  0
    3.7585   -3.0932    6.7493 H   0  0  0  0  0  0  0  0  0  0  0  0
    5.0897   -2.5569    8.6899 H   0  0  0  0  0  0  0  0  0  0  0  0
    3.8544   -3.1764    9.7789 H   0  0  0  0  0  0  0  0  0  0  0  0
    3.5308   -1.7529    8.8007 H   0  0  0  0  0  0  0  0  0  0  0  0
    3.0673   -5.4693    9.3707 H   0  0  0  0  0  0  0  0  0  0  0  0
    4.6601   -7.5920    9.1897 H   0  0  0  0  0  0  0  0  0  0  0  0
    2.9394   -7.7560    8.8427 H   0  0  0  0  0  0  0  0  0  0  0  0
    4.4298   -8.7036    7.2159 H   0  0  0  0  0  0  0  0  0  0  0  0
    2.4937   -8.6094    6.4649 H   0  0  0  0  0  0  0  0  0  0  0  0
    3.7519   -7.6451    3.8491 H   0  0  0  0  0  0  0  0  0  0  0  0
    5.7612   -8.8926    5.2837 H   0  0  0  0  0  0  0  0  0  0  0  0
    5.8340   -7.4795    4.2683 H   0  0  0  0  0  0  0  0  0  0  0  0
    7.5510   -7.1251    6.6091 H   0  0  0  0  0  0  0  0  0  0  0  0
    6.7397   -8.5214    7.2656 H   0  0  0  0  0  0  0  0  0  0  0  0
    6.7157   -7.0323    8.1607 H   0  0  0  0  0  0  0  0  0  0  0  0
    6.7841   -4.8779    7.8045 H   0  0  0  0  0  0  0  0  0  0  0  0
    6.2724   -3.5816    6.7706 H   0  0  0  0  0  0  0  0  0  0  0  0
    7.2323   -4.8775    6.0903 H   0  0  0  0  0  0  0  0  0  0  0  0
    3.9330   -3.5286    3.4303 H   0  0  0  0  0  0  0  0  0  0  0  0
    2.8320   -4.9541    0.2264 H   0  0  0  0  0  0  0  0  0  0  0  0
    5.0232   -5.3038   -1.3692 H   0  0  0  0  0  0  0  0  0  0  0  0
    7.1577   -5.1235    0.3683 H   0  0  0  0  0  0  0  0  0  0  0  0
    1.7392   -3.8478    2.3682 H   0  0  0  0  0  0  0  0  0  0  0  0
    1.8151   -5.5680    2.5645 H   0  0  0  0  0  0  0  0  0  0  0  0
    0.5861   -3.7214    4.4014 H   0  0  0  0  0  0  0  0  0  0  0  0
    1.3632   -5.9023    7.7356 H   0  0  0  0  0  0  0  0  0  0  0  0
    2.2476   -6.6184    4.4067 H   0  0  0  0  0  0  0  0  0  0  0  0
    0.4681   -8.4428    5.6926 H   0  0  0  0  0  0  0  0  0  0  0  0
    0.0336   -6.8710    3.1339 H   0  0  0  0  0  0  0  0  0  0  0  0
   -0.8775   -6.7537    4.6251 H   0  0  0  0  0  0  0  0  0  0  0  0
   -0.9339   -8.2257    3.6919 H   0  0  0  0  0  0  0  0  0  0  0  0
   -0.0252  -10.4662    3.9548 H   0  0  0  0  0  0  0  0  0  0  0  0
    1.0542  -10.7605    5.3141 H   0  0  0  0  0  0  0  0  0  0  0  0
    1.5082  -11.2963    3.7033 H   0  0  0  0  0  0  0  0  0  0  0  0
    0.8088   -8.9363    2.0198 H   0  0  0  0  0  0  0  0  0  0  0  0
    2.4221   -9.6179    1.9963 H   0  0  0  0  0  0  0  0  0  0  0  0
    2.2083   -7.8934    2.2588 H   0  0  0  0  0  0  0  0  0  0  0  0
  1  2  2  0
  1 40  1  0
  1 41  1  0
  2 32  1  0
  2  3  1  0
  3  4  2  0
  3  5  1  0
  5  6  1  0
  6 32  1  0
  6  7  1  0
  6 42  1  6
  7  8  1  0
  7  9  1  0
  7 43  1  6
  8 44  1  0
  8 45  1  0
  8 46  1  0
  9 18  1  0
  9 10  2  0
 10 11  1  0
 10 47  1  0
 11 12  1  0
 11 48  1  0
 11 49  1  0
 12 16  1  0
 12 13  1  0
 12 50  1  1
 13 33  1  0
 13 14  1  0
 13 51  1  1
 14 39  1  0
 14 15  1  0
 14 52  1  6
 15 16  1  0
 15 53  1  0
 15 54  1  0
 16 17  1  1
 16 18  1  0
 17 55  1  0
 17 56  1  0
 17 57  1  0
 18 19  1  1
 18 20  1  0
 19 58  1  0
 19 59  1  0
 19 60  1  0
 20 21  1  0
 21 22  1  0
 22 23  1  0
 22 28  1  0
 22 61  1  1
 23 27  1  0
 23 24  2  0
 24 25  1  0
 24 62  1  0
 25 26  2  0
 25 63  1  0
 26 27  1  0
 26 64  1  0
 28 29  1  0
 28 65  1  0
 28 66  1  0
 29 31  1  0
 29 30  1  0
 29 67  1  6
 31 30  1  1
 31 32  1  0
 31 33  1  0
 32 68  1  1
 33 34  1  0
 33 69  1  6
 34 35  1  0
 34 36  1  0
 34 70  1  1
 35 71  1  0
 35 72  1  0
 35 73  1  0
 36 37  1  0
 36 38  1  0
 36 39  1  0
 37 74  1  0
 37 75  1  0
 37 76  1  0
 38 77  1  0
 38 78  1  0
 38 79  1  0
M  END
>  <i_m_ct_stereo_status>  (323) 
1

>  <s_m_source_file>  (323) 
/var/tmp/pbs.5076255.sched01/tmpk9_hntje/1089a46f3po.sdf

>  <i_m_source_file_index>  (323) 
48

>  <i_lp_mmshare_version>  (323) 
48012

>  <i_f3d_flags>  (323) 
0

>  <s_epik_input>  (323) 
W0NAQEhdMTJbQ0BASF0oW0NIM10pQyhbQ0gzXSkoW0NIM10pT1tDSF0oW0NIMl1bQ0BdMzRbQ0gzXSlbQ0BIXTFbQ0BASF0zW0NIMl1bQ0hdPUMoW0NASF0oW0NIM10pW0NASF01W0NASF02Qyg9W0NIMl0pQyg9TylPNSlbQ0BdNChbQ0gzXSlPT1tDQEhdKFtDSDJdW0NIXShPNylDMjY3KWM4W2NIXVtjSF1bY0hdbzg=

>  <s_epik_cmdline>  (323) 
J2VwaWtfcHl0aG9uJywgJy1waHQnLCAnMi4wJywgJy1waCcsICc3LjAnLCAnLXRuJywgJzgnLCAnLW1hJywgJzIwMCcsICctaW1hZScsICc8aW5maWxlLm1hZT4nLCAnLW9tYWUnLCAnPG91dGZpbGUubWFlPic=

>  <r_lp_tautomer_probability>  (323) 
1

>  <r_epik_Ionization_Penalty>  (323) 
1.84806e-11

>  <r_epik_Ionization_Penalty_Charging>  (323) 
0

>  <r_epik_Ionization_Penalty_Neutral>  (323) 
1.84806e-11

>  <r_epik_State_Penalty>  (323) 
-0

>  <r_epik_Charging_Adjusted_Penalty>  (323) 
0

>  <i_epik_Tot_Q>  (323) 
0

>  <i_epik_Tot_abs_Q>  (323) 
0

>  <s_epik_Chemistry_Notes>  (323) 
This compound has an ester and may undergo hydrolysis at high or low pH.

>  <s_lp_Force_Field>  (323) 
OPLS3e

>  <r_lp_Energy>  (323) 
201.774

>  <b_lp_Chiralities_Consistent>  (323) 
1

>  <s_lp_Variant>  (323) 
81:0-7

>  <s_i_glide_gridfile>  (323) 
pfpi4k_grid

>  <i_i_glide_lignum>  (323) 
48

>  <i_i_glide_rotatable_bonds>  (323) 
1

>  <r_i_docking_score>  (323) 
-1.85652

>  <r_i_glide_ligand_efficiency>  (323) 
-0.0476032

>  <r_i_glide_ligand_efficiency_sa>  (323) 
-0.161432

>  <r_i_glide_ligand_efficiency_ln>  (323) 
-0.398091

>  <r_i_glide_gscore>  (323) 
-1.85652

>  <r_i_glide_lipo>  (323) 
-0.204061

>  <r_i_glide_hbond>  (323) 
-0.14562

>  <r_i_glide_metal>  (323) 
-0

>  <r_i_glide_rewards>  (323) 
0

>  <r_i_glide_evdw>  (323) 
-24.2476

>  <r_i_glide_ecoul>  (323) 
-2.25507

>  <r_i_glide_erotb>  (323) 
0.0717077

>  <r_i_glide_esite>  (323) 
-0.0279114

>  <r_i_glide_emodel>  (323) 
-29.5645

>  <r_i_glide_energy>  (323) 
-26.5027

>  <r_i_glide_einternal>  (323) 
0.000408626

>  <r_i_glide_intrahb_reward>  (323) 
-0

>  <i_i_glide_confnum>  (323) 
1

>  <i_i_glide_posenum>  (323) 
10

>  <r_i_glide_eff_state_penalty>  (323) 
0

>  <ligand_id>  (323) 
81

>  <original_smiles>  (323) 
C=C1C(=O)OC2C(C)C3=CCC4C5C6CC4(C)C3(C)OOC(c3ccco3)CC3OC3(C12)C5C(C)C(C)(C)O6

>  <smiles>  (323) 
[H]C([H])=C1C(=O)OC2([H])C([H])(C([H])([H])[H])C3=C([H])C([H])([H])C4([H])C5([H])C6([H])OC(C([H])([H])[H])(C([H])([H])[H])C([H])(C([H])([H])[H])C5([H])C5(OC5([H])C([H])([H])C([H])(c5oc([H])c([H])c5[H])OOC3(C([H])([H])[H])C4(C([H])([H])[H])C6([H])[H])C12[H]

$$$$
81:6:2
     RDKit          3D

 79 86  0  0  1  0  0  0  0  0999 V2000
   -1.5469   -4.7809    7.2650 C   0  0  0  0  0  0  0  0  0  0  0  0
   -0.3294   -4.5354    7.7721 C   0  0  0  0  0  0  0  0  0  0  0  0
   -0.1250   -3.7459    8.9953 C   0  0  0  0  0  0  0  0  0  0  0  0
   -0.9824   -3.4591    9.8291 O   0  0  0  0  0  0  0  0  0  0  0  0
    1.1683   -3.3950    9.0432 O   0  0  0  0  0  0  0  0  0  0  0  0
    1.7987   -3.5824    7.7817 C   0  0  1  0  0  0  0  0  0  0  0  0
    3.3749   -3.4353    7.6990 C   0  0  1  0  0  0  0  0  0  0  0  0
    3.9573   -2.5595    8.8221 C   0  0  0  0  0  0  0  0  0  0  0  0
    4.0580   -4.7881    7.5916 C   0  0  0  0  0  0  0  0  0  0  0  0
    3.7002   -5.6443    8.5635 C   0  0  0  0  0  0  0  0  0  0  0  0
    3.8682   -7.1048    8.4679 C   0  0  0  0  0  0  0  0  0  0  0  0
    4.0957   -7.4558    7.0108 C   0  0  1  0  0  0  0  0  0  0  0  0
    2.9180   -7.5671    6.0075 C   0  0  2  0  0  0  0  0  0  0  0  0
    3.6497   -7.9639    4.7282 C   0  0  1  0  0  0  0  0  0  0  0  0
    5.1476   -7.6699    4.9888 C   0  0  0  0  0  0  0  0  0  0  0  0
    5.2582   -6.7882    6.2968 C   0  0  2  0  0  0  0  0  0  0  0  0
    6.5991   -7.1946    6.9738 C   0  0  0  0  0  0  0  0  0  0  0  0
    4.9857   -5.1843    6.3681 C   0  0  2  0  0  0  0  0  0  0  0  0
    6.3013   -4.4176    6.6729 C   0  0  0  0  0  0  0  0  0  0  0  0
    4.7427   -4.4308    5.1444 O   0  0  0  0  0  0  0  0  0  0  0  0
    4.0459   -5.1968    4.0406 O   0  0  0  0  0  0  0  0  0  0  0  0
    3.3839   -4.2741    3.1492 C   0  0  1  0  0  0  0  0  0  0  0  0
    3.9954   -4.4883    1.7978 C   0  0  0  0  0  0  0  0  0  0  0  0
    4.5215   -3.6449    0.8573 C   0  0  0  0  0  0  0  0  0  0  0  0
    4.9092   -4.4579   -0.2475 C   0  0  0  0  0  0  0  0  0  0  0  0
    4.5764   -5.7374    0.0956 C   0  0  0  0  0  0  0  0  0  0  0  0
    4.0071   -5.7723    1.3328 O   0  0  0  0  0  0  0  0  0  0  0  0
    1.8135   -4.4047    3.1241 C   0  0  0  0  0  0  0  0  0  0  0  0
    1.1217   -4.2987    4.4992 C   0  0  2  0  0  0  0  0  0  0  0  0
    2.1622   -4.1614    5.3938 O   0  0  0  0  0  0  0  0  0  0  0  0
    1.3076   -5.2228    5.7716 C   0  0  1  0  0  0  0  0  0  0  0  0
    1.0484   -4.8761    7.2580 C   0  0  2  0  0  0  0  0  0  0  0  0
    1.7397   -6.6983    5.4296 C   0  0  2  0  0  0  0  0  0  0  0  0
    0.7644   -7.8044    4.9019 C   0  0  1  0  0  0  0  0  0  0  0  0
   -0.4782   -7.2577    4.1717 C   0  0  0  0  0  0  0  0  0  0  0  0
    1.5519   -8.9334    4.0459 C   0  0  0  0  0  0  0  0  0  0  0  0
    0.8917  -10.3033    4.2964 C   0  0  0  0  0  0  0  0  0  0  0  0
    1.5416   -8.6474    2.5232 C   0  0  0  0  0  0  0  0  0  0  0  0
    2.9670   -9.1640    4.3861 O   0  0  0  0  0  0  0  0  0  0  0  0
   -1.6764   -5.3255    6.3480 H   0  0  0  0  0  0  0  0  0  0  0  0
   -2.4486   -4.4470    7.7675 H   0  0  0  0  0  0  0  0  0  0  0  0
    1.4266   -2.7284    7.2071 H   0  0  0  0  0  0  0  0  0  0  0  0
    3.6055   -2.8989    6.7794 H   0  0  0  0  0  0  0  0  0  0  0  0
    5.0193   -2.3699    8.6640 H   0  0  0  0  0  0  0  0  0  0  0  0
    3.8479   -3.0279    9.7994 H   0  0  0  0  0  0  0  0  0  0  0  0
    3.4541   -1.5940    8.8619 H   0  0  0  0  0  0  0  0  0  0  0  0
    3.0817   -5.3257    9.3902 H   0  0  0  0  0  0  0  0  0  0  0  0
    4.7008   -7.4170    9.1006 H   0  0  0  0  0  0  0  0  0  0  0  0
    2.9687   -7.6066    8.8321 H   0  0  0  0  0  0  0  0  0  0  0  0
    4.3971   -8.5030    7.1229 H   0  0  0  0  0  0  0  0  0  0  0  0
    2.4259   -8.4307    6.4655 H   0  0  0  0  0  0  0  0  0  0  0  0
    3.5428   -7.4007    3.8083 H   0  0  0  0  0  0  0  0  0  0  0  0
    5.6389   -8.6358    5.1270 H   0  0  0  0  0  0  0  0  0  0  0  0
    5.6373   -7.2067    4.1317 H   0  0  0  0  0  0  0  0  0  0  0  0
    7.4589   -6.8543    6.3948 H   0  0  0  0  0  0  0  0  0  0  0  0
    6.7046   -8.2772    7.0666 H   0  0  0  0  0  0  0  0  0  0  0  0
    6.6949   -6.8013    7.9850 H   0  0  0  0  0  0  0  0  0  0  0  0
    6.7115   -4.6409    7.6582 H   0  0  0  0  0  0  0  0  0  0  0  0
    6.1250   -3.3412    6.6718 H   0  0  0  0  0  0  0  0  0  0  0  0
    7.0736   -4.6074    5.9260 H   0  0  0  0  0  0  0  0  0  0  0  0
    3.6281   -3.2607    3.4690 H   0  0  0  0  0  0  0  0  0  0  0  0
    4.6171   -2.5732    0.9534 H   0  0  0  0  0  0  0  0  0  0  0  0
    5.3599   -4.1569   -1.1811 H   0  0  0  0  0  0  0  0  0  0  0  0
    4.6566   -6.6905   -0.4100 H   0  0  0  0  0  0  0  0  0  0  0  0
    1.4085   -3.6225    2.4822 H   0  0  0  0  0  0  0  0  0  0  0  0
    1.5293   -5.3424    2.6428 H   0  0  0  0  0  0  0  0  0  0  0  0
    0.3363   -3.5525    4.5658 H   0  0  0  0  0  0  0  0  0  0  0  0
    1.3079   -5.7640    7.8306 H   0  0  0  0  0  0  0  0  0  0  0  0
    2.0464   -6.4133    4.4533 H   0  0  0  0  0  0  0  0  0  0  0  0
    0.3642   -8.2899    5.7924 H   0  0  0  0  0  0  0  0  0  0  0  0
   -0.2191   -6.6894    3.2824 H   0  0  0  0  0  0  0  0  0  0  0  0
   -1.0622   -6.6107    4.8169 H   0  0  0  0  0  0  0  0  0  0  0  0
   -1.1351   -8.0709    3.8640 H   0  0  0  0  0  0  0  0  0  0  0  0
   -0.1713  -10.2942    4.0471 H   0  0  0  0  0  0  0  0  0  0  0  0
    0.9768  -10.5915    5.3465 H   0  0  0  0  0  0  0  0  0  0  0  0
    1.3604  -11.0929    3.7070 H   0  0  0  0  0  0  0  0  0  0  0  0
    0.5394   -8.7213    2.0975 H   0  0  0  0  0  0  0  0  0  0  0  0
    2.1600   -9.3722    1.9900 H   0  0  0  0  0  0  0  0  0  0  0  0
    1.9299   -7.6558    2.2879 H   0  0  0  0  0  0  0  0  0  0  0  0
  1  2  2  0
  1 40  1  0
  1 41  1  0
  2 32  1  0
  2  3  1  0
  3  4  2  0
  3  5  1  0
  5  6  1  0
  6 32  1  0
  6  7  1  0
  6 42  1  6
  7  8  1  0
  7  9  1  0
  7 43  1  6
  8 44  1  0
  8 45  1  0
  8 46  1  0
  9 18  1  0
  9 10  2  0
 10 11  1  0
 10 47  1  0
 11 12  1  0
 11 48  1  0
 11 49  1  0
 12 16  1  0
 12 13  1  0
 12 50  1  1
 13 33  1  0
 13 14  1  0
 13 51  1  1
 14 39  1  0
 14 15  1  0
 14 52  1  6
 15 16  1  0
 15 53  1  0
 15 54  1  0
 16 17  1  1
 16 18  1  0
 17 55  1  0
 17 56  1  0
 17 57  1  0
 18 19  1  1
 18 20  1  0
 19 58  1  0
 19 59  1  0
 19 60  1  0
 20 21  1  0
 21 22  1  0
 22 23  1  0
 22 28  1  0
 22 61  1  1
 23 27  1  0
 23 24  2  0
 24 25  1  0
 24 62  1  0
 25 26  2  0
 25 63  1  0
 26 27  1  0
 26 64  1  0
 28 29  1  0
 28 65  1  0
 28 66  1  0
 29 31  1  0
 29 30  1  0
 29 67  1  6
 31 30  1  1
 31 32  1  0
 31 33  1  0
 32 68  1  1
 33 34  1  0
 33 69  1  6
 34 35  1  0
 34 36  1  0
 34 70  1  1
 35 71  1  0
 35 72  1  0
 35 73  1  0
 36 37  1  0
 36 38  1  0
 36 39  1  0
 37 74  1  0
 37 75  1  0
 37 76  1  0
 38 77  1  0
 38 78  1  0
 38 79  1  0
M  END
>  <i_m_ct_stereo_status>  (324) 
1

>  <s_m_source_file>  (324) 
/var/tmp/pbs.5076255.sched01/tmpk9_hntje/1089a46f3po.sdf

>  <i_m_source_file_index>  (324) 
48

>  <i_lp_mmshare_version>  (324) 
48012

>  <i_f3d_flags>  (324) 
0

>  <s_epik_input>  (324) 
W0NAQEhdMTJbQ0BASF0oW0NIM10pQyhbQ0gzXSkoW0NIM10pT1tDSF0oW0NIMl1bQ0BdMzRbQ0gzXSlbQ0BIXTFbQ0BASF0zW0NIMl1bQ0hdPUMoW0NASF0oW0NIM10pW0NASF01W0NASF02Qyg9W0NIMl0pQyg9TylPNSlbQ0BdNChbQ0gzXSlPT1tDQEhdKFtDSDJdW0NIXShPNylDMjY3KWM4W2NIXVtjSF1bY0hdbzg=

>  <s_epik_cmdline>  (324) 
J2VwaWtfcHl0aG9uJywgJy1waHQnLCAnMi4wJywgJy1waCcsICc3LjAnLCAnLXRuJywgJzgnLCAnLW1hJywgJzIwMCcsICctaW1hZScsICc8aW5maWxlLm1hZT4nLCAnLW9tYWUnLCAnPG91dGZpbGUubWFlPic=

>  <r_lp_tautomer_probability>  (324) 
1

>  <r_epik_Ionization_Penalty>  (324) 
1.84806e-11

>  <r_epik_Ionization_Penalty_Charging>  (324) 
0

>  <r_epik_Ionization_Penalty_Neutral>  (324) 
1.84806e-11

>  <r_epik_State_Penalty>  (324) 
-0

>  <r_epik_Charging_Adjusted_Penalty>  (324) 
0

>  <i_epik_Tot_Q>  (324) 
0

>  <i_epik_Tot_abs_Q>  (324) 
0

>  <s_epik_Chemistry_Notes>  (324) 
This compound has an ester and may undergo hydrolysis at high or low pH.

>  <s_lp_Force_Field>  (324) 
OPLS3e

>  <r_lp_Energy>  (324) 
201.774

>  <b_lp_Chiralities_Consistent>  (324) 
1

>  <s_lp_Variant>  (324) 
81:0-7

>  <s_i_glide_gridfile>  (324) 
pfpi4k_grid

>  <i_i_glide_lignum>  (324) 
48

>  <i_i_glide_rotatable_bonds>  (324) 
1

>  <r_i_docking_score>  (324) 
-1.77436

>  <r_i_glide_ligand_efficiency>  (324) 
-0.0454965

>  <r_i_glide_ligand_efficiency_sa>  (324) 
-0.154288

>  <r_i_glide_ligand_efficiency_ln>  (324) 
-0.380474

>  <r_i_glide_gscore>  (324) 
-1.77436

>  <r_i_glide_lipo>  (324) 
-0.172939

>  <r_i_glide_hbond>  (324) 
-0.130908

>  <r_i_glide_metal>  (324) 
-0

>  <r_i_glide_rewards>  (324) 
0

>  <r_i_glide_evdw>  (324) 
-25.1251

>  <r_i_glide_ecoul>  (324) 
-1.69463

>  <r_i_glide_erotb>  (324) 
0.0717077

>  <r_i_glide_esite>  (324) 
-0.0317744

>  <r_i_glide_emodel>  (324) 
-29.7046

>  <r_i_glide_energy>  (324) 
-26.8197

>  <r_i_glide_einternal>  (324) 
0.0575664

>  <r_i_glide_intrahb_reward>  (324) 
-0

>  <i_i_glide_confnum>  (324) 
5

>  <i_i_glide_posenum>  (324) 
17

>  <r_i_glide_eff_state_penalty>  (324) 
0

>  <ligand_id>  (324) 
81

>  <original_smiles>  (324) 
C=C1C(=O)OC2C(C)C3=CCC4C5C6CC4(C)C3(C)OOC(c3ccco3)CC3OC3(C12)C5C(C)C(C)(C)O6

>  <smiles>  (324) 
[H]C([H])=C1C(=O)OC2([H])C([H])(C([H])([H])[H])C3=C([H])C([H])([H])C4([H])C5([H])C6([H])OC(C([H])([H])[H])(C([H])([H])[H])C([H])(C([H])([H])[H])C5([H])C5(OC5([H])C([H])([H])C([H])(c5oc([H])c([H])c5[H])OOC3(C([H])([H])[H])C4(C([H])([H])[H])C6([H])[H])C12[H]

$$$$
81:7:0
     RDKit          3D

 79 86  0  0  1  0  0  0  0  0999 V2000
    6.3811   -3.2501    7.1163 C   0  0  0  0  0  0  0  0  0  0  0  0
    5.8143   -2.5744    6.0988 C   0  0  0  0  0  0  0  0  0  0  0  0
    5.7326   -1.1014    6.0821 C   0  0  0  0  0  0  0  0  0  0  0  0
    6.3383   -0.3251    6.8166 O   0  0  0  0  0  0  0  0  0  0  0  0
    4.9433   -0.7477    5.0549 O   0  0  0  0  0  0  0  0  0  0  0  0
    4.1883   -1.8531    4.5740 C   0  0  1  0  0  0  0  0  0  0  0  0
    3.4274   -1.6969    3.1999 C   0  0  1  0  0  0  0  0  0  0  0  0
    3.1195   -0.2311    2.8396 C   0  0  0  0  0  0  0  0  0  0  0  0
    4.1446   -2.4519    2.0888 C   0  0  0  0  0  0  0  0  0  0  0  0
    5.4157   -2.0709    1.8955 C   0  0  0  0  0  0  0  0  0  0  0  0
    6.4032   -2.8835    1.1602 C   0  0  0  0  0  0  0  0  0  0  0  0
    5.9299   -4.3242    1.1368 C   0  0  1  0  0  0  0  0  0  0  0  0
    6.1446   -5.2798    2.3534 C   0  0  2  0  0  0  0  0  0  0  0  0
    5.8350   -6.5599    1.5471 C   0  0  2  0  0  0  0  0  0  0  0  0
    4.6266   -6.1614    0.6375 C   0  0  0  0  0  0  0  0  0  0  0  0
    4.5557   -4.5863    0.5319 C   0  0  2  0  0  0  0  0  0  0  0  0
    4.6284   -4.2299   -0.9823 C   0  0  0  0  0  0  0  0  0  0  0  0
    3.4759   -3.6656    1.3275 C   0  0  2  0  0  0  0  0  0  0  0  0
    2.5783   -2.9244    0.3165 C   0  0  0  0  0  0  0  0  0  0  0  0
    2.3215   -4.2518    2.0099 O   0  0  0  0  0  0  0  0  0  0  0  0
    2.4540   -5.7129    2.3991 O   0  0  0  0  0  0  0  0  0  0  0  0
    1.6458   -6.0057    3.5545 C   0  0  1  0  0  0  0  0  0  0  0  0
    0.8269   -7.2046    3.1804 C   0  0  0  0  0  0  0  0  0  0  0  0
    0.8380   -8.5102    3.5968 C   0  0  0  0  0  0  0  0  0  0  0  0
   -0.2071   -9.1688    2.8898 C   0  0  0  0  0  0  0  0  0  0  0  0
   -0.7726   -8.2173    2.0913 C   0  0  0  0  0  0  0  0  0  0  0  0
   -0.1559   -7.0122    2.2517 O   0  0  0  0  0  0  0  0  0  0  0  0
    2.4700   -6.2533    4.8696 C   0  0  0  0  0  0  0  0  0  0  0  0
    3.3282   -5.0736    5.3391 C   0  0  2  0  0  0  0  0  0  0  0  0
    3.2345   -4.1442    4.3263 O   0  0  0  0  0  0  0  0  0  0  0  0
    4.5790   -4.4587    4.6188 C   0  0  1  0  0  0  0  0  0  0  0  0
    5.1923   -3.0486    4.8062 C   0  0  2  0  0  0  0  0  0  0  0  0
    5.3295   -5.5018    3.7108 C   0  0  2  0  0  0  0  0  0  0  0  0
    6.1493   -6.6056    4.4659 C   0  0  1  0  0  0  0  0  0  0  0  0
    5.7292   -6.9537    5.9146 C   0  0  0  0  0  0  0  0  0  0  0  0
    6.3219   -7.8768    3.5453 C   0  0  0  0  0  0  0  0  0  0  0  0
    7.8085   -8.1461    3.2300 C   0  0  0  0  0  0  0  0  0  0  0  0
    5.6926   -9.1707    4.1109 C   0  0  0  0  0  0  0  0  0  0  0  0
    5.5843   -7.7302    2.3239 O   0  0  0  0  0  0  0  0  0  0  0  0
    6.4739   -4.3189    7.1142 H   0  0  0  0  0  0  0  0  0  0  0  0
    6.7996   -2.7240    7.9652 H   0  0  0  0  0  0  0  0  0  0  0  0
    3.3993   -1.9355    5.3247 H   0  0  0  0  0  0  0  0  0  0  0  0
    2.4463   -2.1555    3.3205 H   0  0  0  0  0  0  0  0  0  0  0  0
    2.4809   -0.1662    1.9581 H   0  0  0  0  0  0  0  0  0  0  0  0
    4.0235    0.3421    2.6365 H   0  0  0  0  0  0  0  0  0  0  0  0
    2.5970    0.2670    3.6574 H   0  0  0  0  0  0  0  0  0  0  0  0
    5.8293   -1.2280    2.4280 H   0  0  0  0  0  0  0  0  0  0  0  0
    6.5234   -2.4745    0.1545 H   0  0  0  0  0  0  0  0  0  0  0  0
    7.3712   -2.8505    1.6560 H   0  0  0  0  0  0  0  0  0  0  0  0
    6.6467   -4.6938    0.3995 H   0  0  0  0  0  0  0  0  0  0  0  0
    7.2065   -5.2345    2.5954 H   0  0  0  0  0  0  0  0  0  0  0  0
    6.6918   -6.7974    0.9121 H   0  0  0  0  0  0  0  0  0  0  0  0
    4.8573   -6.5844   -0.3411 H   0  0  0  0  0  0  0  0  0  0  0  0
    3.7042   -6.6748    0.8766 H   0  0  0  0  0  0  0  0  0  0  0  0
    3.7046   -4.4859   -1.4876 H   0  0  0  0  0  0  0  0  0  0  0  0
    5.4181   -4.7661   -1.5030 H   0  0  0  0  0  0  0  0  0  0  0  0
    4.8091   -3.1729   -1.1665 H   0  0  0  0  0  0  0  0  0  0  0  0
    3.0984   -2.2079   -0.3218 H   0  0  0  0  0  0  0  0  0  0  0  0
    1.8419   -2.3260    0.8571 H   0  0  0  0  0  0  0  0  0  0  0  0
    2.0066   -3.6071   -0.3187 H   0  0  0  0  0  0  0  0  0  0  0  0
    0.9671   -5.1705    3.7173 H   0  0  0  0  0  0  0  0  0  0  0  0
    1.5146   -8.9442    4.3169 H   0  0  0  0  0  0  0  0  0  0  0  0
   -0.5087  -10.2036    2.9498 H   0  0  0  0  0  0  0  0  0  0  0  0
   -1.5800   -8.2494    1.3777 H   0  0  0  0  0  0  0  0  0  0  0  0
    1.7882   -6.5082    5.6819 H   0  0  0  0  0  0  0  0  0  0  0  0
    3.1001   -7.1303    4.7261 H   0  0  0  0  0  0  0  0  0  0  0  0
    3.1176   -4.7000    6.3356 H   0  0  0  0  0  0  0  0  0  0  0  0
    6.0190   -2.9973    4.1135 H   0  0  0  0  0  0  0  0  0  0  0  0
    4.4681   -6.0437    3.3705 H   0  0  0  0  0  0  0  0  0  0  0  0
    7.1404   -6.1716    4.6057 H   0  0  0  0  0  0  0  0  0  0  0  0
    4.8005   -7.5127    5.9782 H   0  0  0  0  0  0  0  0  0  0  0  0
    5.6007   -6.0751    6.5328 H   0  0  0  0  0  0  0  0  0  0  0  0
    6.4948   -7.5605    6.3988 H   0  0  0  0  0  0  0  0  0  0  0  0
    8.3717   -8.3620    4.1393 H   0  0  0  0  0  0  0  0  0  0  0  0
    8.2916   -7.2957    2.7472 H   0  0  0  0  0  0  0  0  0  0  0  0
    7.9119   -9.0019    2.5647 H   0  0  0  0  0  0  0  0  0  0  0  0
    6.1473   -9.4874    5.0513 H   0  0  0  0  0  0  0  0  0  0  0  0
    5.8068   -9.9988    3.4084 H   0  0  0  0  0  0  0  0  0  0  0  0
    4.6189   -9.0491    4.2722 H   0  0  0  0  0  0  0  0  0  0  0  0
  1  2  2  0
  1 40  1  0
  1 41  1  0
  2 32  1  0
  2  3  1  0
  3  4  2  0
  3  5  1  0
  5  6  1  0
  6 32  1  0
  6  7  1  0
  6 42  1  1
  7  8  1  0
  7  9  1  0
  7 43  1  1
  8 44  1  0
  8 45  1  0
  8 46  1  0
  9 18  1  0
  9 10  2  0
 10 11  1  0
 10 47  1  0
 11 12  1  0
 11 48  1  0
 11 49  1  0
 12 16  1  0
 12 13  1  0
 12 50  1  6
 13 33  1  0
 13 14  1  0
 13 51  1  1
 14 39  1  0
 14 15  1  0
 14 52  1  6
 15 16  1  0
 15 53  1  0
 15 54  1  0
 16 17  1  6
 16 18  1  0
 17 55  1  0
 17 56  1  0
 17 57  1  0
 18 19  1  6
 18 20  1  0
 19 58  1  0
 19 59  1  0
 19 60  1  0
 20 21  1  0
 21 22  1  0
 22 23  1  0
 22 28  1  0
 22 61  1  1
 23 27  1  0
 23 24  2  0
 24 25  1  0
 24 62  1  0
 25 26  2  0
 25 63  1  0
 26 27  1  0
 26 64  1  0
 28 29  1  0
 28 65  1  0
 28 66  1  0
 29 31  1  0
 29 30  1  0
 29 67  1  1
 31 30  1  6
 31 32  1  0
 31 33  1  0
 32 68  1  6
 33 34  1  0
 33 69  1  6
 34 35  1  0
 34 36  1  0
 34 70  1  1
 35 71  1  0
 35 72  1  0
 35 73  1  0
 36 37  1  0
 36 38  1  0
 36 39  1  0
 37 74  1  0
 37 75  1  0
 37 76  1  0
 38 77  1  0
 38 78  1  0
 38 79  1  0
M  END
>  <i_m_ct_stereo_status>  (325) 
1

>  <s_m_source_file>  (325) 
/var/tmp/pbs.5076255.sched01/tmpk9_hntje/1089a46f3po.sdf

>  <i_m_source_file_index>  (325) 
49

>  <i_lp_mmshare_version>  (325) 
48012

>  <i_f3d_flags>  (325) 
0

>  <s_epik_input>  (325) 
W0NAQEhdMTJbQ0BASF0oW0NIM10pQyhbQ0gzXSkoW0NIM10pT1tDSF0oW0NIMl1bQ0BdMzRbQ0gzXSlbQ0BIXTFbQ0BASF0zW0NIMl1bQ0hdPUMoW0NASF0oW0NIM10pW0NASF01W0NASF02Qyg9W0NIMl0pQyg9TylPNSlbQ0BdNChbQ0gzXSlPT1tDQEhdKFtDSDJdW0NIXShPNylDMjY3KWM4W2NIXVtjSF1bY0hdbzg=

>  <s_epik_cmdline>  (325) 
J2VwaWtfcHl0aG9uJywgJy1waHQnLCAnMi4wJywgJy1waCcsICc3LjAnLCAnLXRuJywgJzgnLCAnLW1hJywgJzIwMCcsICctaW1hZScsICc8aW5maWxlLm1hZT4nLCAnLW9tYWUnLCAnPG91dGZpbGUubWFlPic=

>  <r_lp_tautomer_probability>  (325) 
1

>  <r_epik_Ionization_Penalty>  (325) 
1.84806e-11

>  <r_epik_Ionization_Penalty_Charging>  (325) 
0

>  <r_epik_Ionization_Penalty_Neutral>  (325) 
1.84806e-11

>  <r_epik_State_Penalty>  (325) 
-0

>  <r_epik_Charging_Adjusted_Penalty>  (325) 
0

>  <i_epik_Tot_Q>  (325) 
0

>  <i_epik_Tot_abs_Q>  (325) 
0

>  <s_epik_Chemistry_Notes>  (325) 
This compound has an ester and may undergo hydrolysis at high or low pH.

>  <s_lp_Force_Field>  (325) 
OPLS3e

>  <r_lp_Energy>  (325) 
176.677

>  <b_lp_Chiralities_Consistent>  (325) 
1

>  <s_lp_Variant>  (325) 
81:0-8

>  <s_i_glide_gridfile>  (325) 
pfpi4k_grid

>  <i_i_glide_lignum>  (325) 
49

>  <i_i_glide_rotatable_bonds>  (325) 
1

>  <r_i_docking_score>  (325) 
-2.10982

>  <r_i_glide_ligand_efficiency>  (325) 
-0.0540979

>  <r_i_glide_ligand_efficiency_sa>  (325) 
-0.183457

>  <r_i_glide_ligand_efficiency_ln>  (325) 
-0.452405

>  <r_i_glide_gscore>  (325) 
-2.10982

>  <r_i_glide_lipo>  (325) 
-0.595217

>  <r_i_glide_hbond>  (325) 
-0.0722319

>  <r_i_glide_metal>  (325) 
-0

>  <r_i_glide_rewards>  (325) 
-0.0348949

>  <r_i_glide_evdw>  (325) 
-26.1257

>  <r_i_glide_ecoul>  (325) 
-1.15263

>  <r_i_glide_erotb>  (325) 
0.0717077

>  <r_i_glide_esite>  (325) 
0

>  <r_i_glide_emodel>  (325) 
-30.1445

>  <r_i_glide_energy>  (325) 
-27.2783

>  <r_i_glide_einternal>  (325) 
0.445146

>  <r_i_glide_intrahb_reward>  (325) 
-0

>  <i_i_glide_confnum>  (325) 
2

>  <i_i_glide_posenum>  (325) 
8

>  <r_i_glide_eff_state_penalty>  (325) 
0

>  <ligand_id>  (325) 
81

>  <original_smiles>  (325) 
C=C1C(=O)OC2C(C)C3=CCC4C5C6CC4(C)C3(C)OOC(c3ccco3)CC3OC3(C12)C5C(C)C(C)(C)O6

>  <smiles>  (325) 
[H]C([H])=C1C(=O)OC2([H])C([H])(C([H])([H])[H])C3=C([H])C([H])([H])C4([H])C5([H])C6([H])OC(C([H])([H])[H])(C([H])([H])[H])C([H])(C([H])([H])[H])C5([H])C5(OC5([H])C([H])([H])C([H])(c5oc([H])c([H])c5[H])OOC3(C([H])([H])[H])C4(C([H])([H])[H])C6([H])[H])C12[H]

$$$$
81:7:1
     RDKit          3D

 79 86  0  0  1  0  0  0  0  0999 V2000
    4.3754   -1.3382    5.7839 C   0  0  0  0  0  0  0  0  0  0  0  0
    4.7077   -1.8175    4.5742 C   0  0  0  0  0  0  0  0  0  0  0  0
    5.3559   -0.9813    3.5474 C   0  0  0  0  0  0  0  0  0  0  0  0
    5.8641    0.1254    3.7206 O   0  0  0  0  0  0  0  0  0  0  0  0
    5.3559   -1.6639    2.3936 O   0  0  0  0  0  0  0  0  0  0  0  0
    4.4433   -2.7540    2.4434 C   0  0  1  0  0  0  0  0  0  0  0  0
    4.4897   -3.8313    1.2860 C   0  0  1  0  0  0  0  0  0  0  0  0
    5.1366   -3.3033   -0.0080 C   0  0  0  0  0  0  0  0  0  0  0  0
    5.1023   -5.1312    1.7808 C   0  0  0  0  0  0  0  0  0  0  0  0
    6.3477   -4.9949    2.2548 C   0  0  0  0  0  0  0  0  0  0  0  0
    6.9994   -5.9688    3.1496 C   0  0  0  0  0  0  0  0  0  0  0  0
    5.9342   -6.8568    3.7651 C   0  0  1  0  0  0  0  0  0  0  0  0
    5.1260   -6.3990    5.0211 C   0  0  2  0  0  0  0  0  0  0  0  0
    4.5809   -7.8089    5.3261 C   0  0  2  0  0  0  0  0  0  0  0  0
    4.2319   -8.4021    3.9237 C   0  0  0  0  0  0  0  0  0  0  0  0
    4.9990   -7.5947    2.8053 C   0  0  2  0  0  0  0  0  0  0  0  0
    5.8419   -8.6418    2.0075 C   0  0  0  0  0  0  0  0  0  0  0  0
    4.2995   -6.4877    1.8395 C   0  0  2  0  0  0  0  0  0  0  0  0
    4.3828   -6.9376    0.3714 C   0  0  0  0  0  0  0  0  0  0  0  0
    2.8521   -6.3430    1.7583 O   0  0  0  0  0  0  0  0  0  0  0  0
    2.0850   -6.8495    2.9552 O   0  0  0  0  0  0  0  0  0  0  0  0
    0.8596   -6.1228    3.0967 C   0  0  1  0  0  0  0  0  0  0  0  0
   -0.2067   -7.1555    3.1841 C   0  0  0  0  0  0  0  0  0  0  0  0
   -1.1462   -7.4329    4.1388 C   0  0  0  0  0  0  0  0  0  0  0  0
   -1.8797   -8.5383    3.6480 C   0  0  0  0  0  0  0  0  0  0  0  0
   -1.3534   -8.8448    2.4228 C   0  0  0  0  0  0  0  0  0  0  0  0
   -0.3338   -7.9984    2.1206 O   0  0  0  0  0  0  0  0  0  0  0  0
    0.8181   -5.1362    4.3193 C   0  0  0  0  0  0  0  0  0  0  0  0
    1.8695   -4.0190    4.2888 C   0  0  2  0  0  0  0  0  0  0  0  0
    2.6743   -4.3216    3.2193 O   0  0  0  0  0  0  0  0  0  0  0  0
    3.4268   -4.1814    4.4022 C   0  0  1  0  0  0  0  0  0  0  0  0
    4.5400   -3.1908    3.9616 C   0  0  2  0  0  0  0  0  0  0  0  0
    3.8407   -5.4725    5.1925 C   0  0  2  0  0  0  0  0  0  0  0  0
    3.6003   -5.4353    6.7426 C   0  0  1  0  0  0  0  0  0  0  0  0
    2.5109   -4.4780    7.2854 C   0  0  0  0  0  0  0  0  0  0  0  0
    3.4760   -6.9054    7.3072 C   0  0  0  0  0  0  0  0  0  0  0  0
    4.6057   -7.2224    8.3112 C   0  0  0  0  0  0  0  0  0  0  0  0
    2.1184   -7.2231    7.9721 C   0  0  0  0  0  0  0  0  0  0  0  0
    3.4860   -7.8636    6.2406 O   0  0  0  0  0  0  0  0  0  0  0  0
    3.9110   -1.9438    6.5423 H   0  0  0  0  0  0  0  0  0  0  0  0
    4.5887   -0.3081    6.0500 H   0  0  0  0  0  0  0  0  0  0  0  0
    3.4811   -2.2539    2.3043 H   0  0  0  0  0  0  0  0  0  0  0  0
    3.4628   -4.0566    0.9998 H   0  0  0  0  0  0  0  0  0  0  0  0
    5.0461   -4.0263   -0.8182 H   0  0  0  0  0  0  0  0  0  0  0  0
    6.1946   -3.0819    0.1239 H   0  0  0  0  0  0  0  0  0  0  0  0
    4.6488   -2.3839   -0.3328 H   0  0  0  0  0  0  0  0  0  0  0  0
    6.8618   -4.0534    2.1527 H   0  0  0  0  0  0  0  0  0  0  0  0
    7.7272   -6.5463    2.5777 H   0  0  0  0  0  0  0  0  0  0  0  0
    7.5345   -5.4507    3.9490 H   0  0  0  0  0  0  0  0  0  0  0  0
    6.6043   -7.6225    4.1649 H   0  0  0  0  0  0  0  0  0  0  0  0
    5.8597   -6.0967    5.7685 H   0  0  0  0  0  0  0  0  0  0  0  0
    5.3776   -8.4057    5.7744 H   0  0  0  0  0  0  0  0  0  0  0  0
    4.5988   -9.4299    3.9510 H   0  0  0  0  0  0  0  0  0  0  0  0
    3.1752   -8.5577    3.7622 H   0  0  0  0  0  0  0  0  0  0  0  0
    5.2137   -9.2941    1.4002 H   0  0  0  0  0  0  0  0  0  0  0  0
    6.4121   -9.3000    2.6625 H   0  0  0  0  0  0  0  0  0  0  0  0
    6.5822   -8.1814    1.3547 H   0  0  0  0  0  0  0  0  0  0  0  0
    5.4082   -6.9766    0.0417 H   0  0  0  0  0  0  0  0  0  0  0  0
    3.8886   -6.2203   -0.2871 H   0  0  0  0  0  0  0  0  0  0  0  0
    3.9136   -7.9114    0.2085 H   0  0  0  0  0  0  0  0  0  0  0  0
    0.6938   -5.5644    2.1808 H   0  0  0  0  0  0  0  0  0  0  0  0
   -1.2797   -6.9236    5.0807 H   0  0  0  0  0  0  0  0  0  0  0  0
   -2.6812   -9.0601    4.1353 H   0  0  0  0  0  0  0  0  0  0  0  0
   -1.5743   -9.6082    1.6911 H   0  0  0  0  0  0  0  0  0  0  0  0
   -0.1637   -4.6641    4.3769 H   0  0  0  0  0  0  0  0  0  0  0  0
    0.9119   -5.7188    5.2359 H   0  0  0  0  0  0  0  0  0  0  0  0
    1.4788   -3.0076    4.3029 H   0  0  0  0  0  0  0  0  0  0  0  0
    5.4877   -3.6677    4.2005 H   0  0  0  0  0  0  0  0  0  0  0  0
    3.0513   -6.1125    4.8511 H   0  0  0  0  0  0  0  0  0  0  0  0
    4.5152   -5.0058    7.1529 H   0  0  0  0  0  0  0  0  0  0  0  0
    1.4978   -4.8081    7.0779 H   0  0  0  0  0  0  0  0  0  0  0  0
    2.5958   -3.4773    6.8825 H   0  0  0  0  0  0  0  0  0  0  0  0
    2.5927   -4.3822    8.3683 H   0  0  0  0  0  0  0  0  0  0  0  0
    4.5505   -6.5657    9.1810 H   0  0  0  0  0  0  0  0  0  0  0  0
    5.5941   -7.0927    7.8698 H   0  0  0  0  0  0  0  0  0  0  0  0
    4.5382   -8.2502    8.6705 H   0  0  0  0  0  0  0  0  0  0  0  0
    1.9241   -6.6077    8.8534 H   0  0  0  0  0  0  0  0  0  0  0  0
    2.0878   -8.2652    8.2975 H   0  0  0  0  0  0  0  0  0  0  0  0
    1.2940   -7.0920    7.2666 H   0  0  0  0  0  0  0  0  0  0  0  0
  1  2  2  0
  1 40  1  0
  1 41  1  0
  2 32  1  0
  2  3  1  0
  3  4  2  0
  3  5  1  0
  5  6  1  0
  6 32  1  0
  6  7  1  0
  6 42  1  1
  7  8  1  0
  7  9  1  0
  7 43  1  6
  8 44  1  0
  8 45  1  0
  8 46  1  0
  9 18  1  0
  9 10  2  0
 10 11  1  0
 10 47  1  0
 11 12  1  0
 11 48  1  0
 11 49  1  0
 12 16  1  0
 12 13  1  0
 12 50  1  1
 13 33  1  0
 13 14  1  0
 13 51  1  1
 14 39  1  0
 14 15  1  0
 14 52  1  1
 15 16  1  0
 15 53  1  0
 15 54  1  0
 16 17  1  6
 16 18  1  0
 17 55  1  0
 17 56  1  0
 17 57  1  0
 18 19  1  6
 18 20  1  0
 19 58  1  0
 19 59  1  0
 19 60  1  0
 20 21  1  0
 21 22  1  0
 22 23  1  0
 22 28  1  0
 22 61  1  6
 23 27  1  0
 23 24  2  0
 24 25  1  0
 24 62  1  0
 25 26  2  0
 25 63  1  0
 26 27  1  0
 26 64  1  0
 28 29  1  0
 28 65  1  0
 28 66  1  0
 29 31  1  0
 29 30  1  0
 29 67  1  6
 31 30  1  6
 31 32  1  0
 31 33  1  0
 32 68  1  6
 33 34  1  0
 33 69  1  6
 34 35  1  0
 34 36  1  0
 34 70  1  1
 35 71  1  0
 35 72  1  0
 35 73  1  0
 36 37  1  0
 36 38  1  0
 36 39  1  0
 37 74  1  0
 37 75  1  0
 37 76  1  0
 38 77  1  0
 38 78  1  0
 38 79  1  0
M  END
>  <i_m_ct_stereo_status>  (326) 
1

>  <s_m_source_file>  (326) 
/var/tmp/pbs.5076255.sched01/tmpk9_hntje/1089a46f3po.sdf

>  <i_m_source_file_index>  (326) 
49

>  <i_lp_mmshare_version>  (326) 
48012

>  <i_f3d_flags>  (326) 
0

>  <s_epik_input>  (326) 
W0NAQEhdMTJbQ0BASF0oW0NIM10pQyhbQ0gzXSkoW0NIM10pT1tDSF0oW0NIMl1bQ0BdMzRbQ0gzXSlbQ0BIXTFbQ0BASF0zW0NIMl1bQ0hdPUMoW0NASF0oW0NIM10pW0NASF01W0NASF02Qyg9W0NIMl0pQyg9TylPNSlbQ0BdNChbQ0gzXSlPT1tDQEhdKFtDSDJdW0NIXShPNylDMjY3KWM4W2NIXVtjSF1bY0hdbzg=

>  <s_epik_cmdline>  (326) 
J2VwaWtfcHl0aG9uJywgJy1waHQnLCAnMi4wJywgJy1waCcsICc3LjAnLCAnLXRuJywgJzgnLCAnLW1hJywgJzIwMCcsICctaW1hZScsICc8aW5maWxlLm1hZT4nLCAnLW9tYWUnLCAnPG91dGZpbGUubWFlPic=

>  <r_lp_tautomer_probability>  (326) 
1

>  <r_epik_Ionization_Penalty>  (326) 
1.84806e-11

>  <r_epik_Ionization_Penalty_Charging>  (326) 
0

>  <r_epik_Ionization_Penalty_Neutral>  (326) 
1.84806e-11

>  <r_epik_State_Penalty>  (326) 
-0

>  <r_epik_Charging_Adjusted_Penalty>  (326) 
0

>  <i_epik_Tot_Q>  (326) 
0

>  <i_epik_Tot_abs_Q>  (326) 
0

>  <s_epik_Chemistry_Notes>  (326) 
This compound has an ester and may undergo hydrolysis at high or low pH.

>  <s_lp_Force_Field>  (326) 
OPLS3e

>  <r_lp_Energy>  (326) 
176.677

>  <b_lp_Chiralities_Consistent>  (326) 
1

>  <s_lp_Variant>  (326) 
81:0-8

>  <s_i_glide_gridfile>  (326) 
pfpi4k_grid

>  <i_i_glide_lignum>  (326) 
49

>  <i_i_glide_rotatable_bonds>  (326) 
1

>  <r_i_docking_score>  (326) 
-1.94294

>  <r_i_glide_ligand_efficiency>  (326) 
-0.0498189

>  <r_i_glide_ligand_efficiency_sa>  (326) 
-0.168946

>  <r_i_glide_ligand_efficiency_ln>  (326) 
-0.416621

>  <r_i_glide_gscore>  (326) 
-1.94294

>  <r_i_glide_lipo>  (326) 
-0.57471

>  <r_i_glide_hbond>  (326) 
0

>  <r_i_glide_metal>  (326) 
-0

>  <r_i_glide_rewards>  (326) 
-0.127852

>  <r_i_glide_evdw>  (326) 
-26.6378

>  <r_i_glide_ecoul>  (326) 
0.132062

>  <r_i_glide_erotb>  (326) 
0.0717077

>  <r_i_glide_esite>  (326) 
0

>  <r_i_glide_emodel>  (326) 
-29.3167

>  <r_i_glide_energy>  (326) 
-26.5058

>  <r_i_glide_einternal>  (326) 
0.170348

>  <r_i_glide_intrahb_reward>  (326) 
-0

>  <i_i_glide_confnum>  (326) 
2

>  <i_i_glide_posenum>  (326) 
14

>  <r_i_glide_eff_state_penalty>  (326) 
0

>  <ligand_id>  (326) 
81

>  <original_smiles>  (326) 
C=C1C(=O)OC2C(C)C3=CCC4C5C6CC4(C)C3(C)OOC(c3ccco3)CC3OC3(C12)C5C(C)C(C)(C)O6

>  <smiles>  (326) 
[H]C([H])=C1C(=O)OC2([H])C([H])(C([H])([H])[H])C3=C([H])C([H])([H])C4([H])C5([H])C6([H])OC(C([H])([H])[H])(C([H])([H])[H])C([H])(C([H])([H])[H])C5([H])C5(OC5([H])C([H])([H])C([H])(c5oc([H])c([H])c5[H])OOC3(C([H])([H])[H])C4(C([H])([H])[H])C6([H])[H])C12[H]

$$$$
81:7:2
     RDKit          3D

 79 86  0  0  1  0  0  0  0  0999 V2000
   -1.3999   -5.0136    7.1237 C   0  0  0  0  0  0  0  0  0  0  0  0
   -0.2053   -4.6703    7.6289 C   0  0  0  0  0  0  0  0  0  0  0  0
   -0.0733   -3.7985    8.8074 C   0  0  0  0  0  0  0  0  0  0  0  0
   -0.9775   -3.4640    9.5722 O   0  0  0  0  0  0  0  0  0  0  0  0
    1.2136   -3.4436    8.9153 O   0  0  0  0  0  0  0  0  0  0  0  0
    1.9242   -3.7038    7.7106 C   0  0  1  0  0  0  0  0  0  0  0  0
    3.5010   -3.6076    7.7370 C   0  0  1  0  0  0  0  0  0  0  0  0
    4.0351   -2.7227    8.8775 C   0  0  0  0  0  0  0  0  0  0  0  0
    4.1329   -4.9902    7.7110 C   0  0  0  0  0  0  0  0  0  0  0  0
    3.7278   -5.7842    8.7146 C   0  0  0  0  0  0  0  0  0  0  0  0
    3.8496   -7.2517    8.6972 C   0  0  0  0  0  0  0  0  0  0  0  0
    4.0349   -7.7116    7.2631 C   0  0  1  0  0  0  0  0  0  0  0  0
    2.8089   -7.9048    6.3160 C   0  0  2  0  0  0  0  0  0  0  0  0
    3.5985   -8.7104    5.2641 C   0  0  2  0  0  0  0  0  0  0  0  0
    4.9804   -7.9825    5.1767 C   0  0  0  0  0  0  0  0  0  0  0  0
    5.1985   -7.1016    6.4719 C   0  0  2  0  0  0  0  0  0  0  0  0
    6.5372   -7.5879    7.1067 C   0  0  0  0  0  0  0  0  0  0  0  0
    5.0564   -5.4760    6.5221 C   0  0  2  0  0  0  0  0  0  0  0  0
    6.4145   -4.8068    6.8769 C   0  0  0  0  0  0  0  0  0  0  0  0
    4.9272   -4.6871    5.3008 O   0  0  0  0  0  0  0  0  0  0  0  0
    4.4304   -5.4415    4.0824 O   0  0  0  0  0  0  0  0  0  0  0  0
    3.7673   -4.5469    3.1680 C   0  0  1  0  0  0  0  0  0  0  0  0
    4.4060   -4.7666    1.8281 C   0  0  0  0  0  0  0  0  0  0  0  0
    3.9022   -4.8953    0.5605 C   0  0  0  0  0  0  0  0  0  0  0  0
    5.0198   -5.0555   -0.3053 C   0  0  0  0  0  0  0  0  0  0  0  0
    6.1249   -4.9973    0.4993 C   0  0  0  0  0  0  0  0  0  0  0  0
    5.7695   -4.8126    1.7997 O   0  0  0  0  0  0  0  0  0  0  0  0
    2.2076   -4.7294    3.1021 C   0  0  0  0  0  0  0  0  0  0  0  0
    1.4568   -4.5210    4.4246 C   0  0  2  0  0  0  0  0  0  0  0  0
    2.4460   -4.3596    5.3679 O   0  0  0  0  0  0  0  0  0  0  0  0
    1.5577   -5.3966    5.7309 C   0  0  1  0  0  0  0  0  0  0  0  0
    1.1988   -5.0109    7.1901 C   0  0  2  0  0  0  0  0  0  0  0  0
    1.9650   -6.8820    5.4285 C   0  0  2  0  0  0  0  0  0  0  0  0
    0.8608   -7.7752    4.7639 C   0  0  1  0  0  0  0  0  0  0  0  0
   -0.2500   -7.0649    3.9503 C   0  0  0  0  0  0  0  0  0  0  0  0
    1.5336   -8.9779    3.9908 C   0  0  0  0  0  0  0  0  0  0  0  0
    1.1192  -10.3401    4.5900 C   0  0  0  0  0  0  0  0  0  0  0  0
    1.2499   -8.9965    2.4736 C   0  0  0  0  0  0  0  0  0  0  0  0
    2.9625   -8.8508    3.9947 O   0  0  0  0  0  0  0  0  0  0  0  0
   -1.4973   -5.6496    6.2647 H   0  0  0  0  0  0  0  0  0  0  0  0
   -2.3212   -4.6740    7.5846 H   0  0  0  0  0  0  0  0  0  0  0  0
    1.6110   -2.8725    7.0710 H   0  0  0  0  0  0  0  0  0  0  0  0
    3.8156   -3.0968    6.8280 H   0  0  0  0  0  0  0  0  0  0  0  0
    5.1129   -2.5843    8.7950 H   0  0  0  0  0  0  0  0  0  0  0  0
    3.8302   -3.1516    9.8577 H   0  0  0  0  0  0  0  0  0  0  0  0
    3.5744   -1.7349    8.8503 H   0  0  0  0  0  0  0  0  0  0  0  0
    3.1038   -5.4034    9.5095 H   0  0  0  0  0  0  0  0  0  0  0  0
    4.6882   -7.5461    9.3291 H   0  0  0  0  0  0  0  0  0  0  0  0
    2.9461   -7.7026    9.1128 H   0  0  0  0  0  0  0  0  0  0  0  0
    4.3393   -8.7384    7.4857 H   0  0  0  0  0  0  0  0  0  0  0  0
    2.1072   -8.5504    6.8456 H   0  0  0  0  0  0  0  0  0  0  0  0
    3.7517   -9.7250    5.6358 H   0  0  0  0  0  0  0  0  0  0  0  0
    5.7153   -8.7895    5.1502 H   0  0  0  0  0  0  0  0  0  0  0  0
    5.1633   -7.4993    4.2272 H   0  0  0  0  0  0  0  0  0  0  0  0
    7.3986   -7.2955    6.5061 H   0  0  0  0  0  0  0  0  0  0  0  0
    6.5854   -8.6738    7.1958 H   0  0  0  0  0  0  0  0  0  0  0  0
    6.6834   -7.2087    8.1170 H   0  0  0  0  0  0  0  0  0  0  0  0
    6.7725   -5.0631    7.8744 H   0  0  0  0  0  0  0  0  0  0  0  0
    6.3151   -3.7198    6.8818 H   0  0  0  0  0  0  0  0  0  0  0  0
    7.1977   -5.0425    6.1534 H   0  0  0  0  0  0  0  0  0  0  0  0
    3.9870   -3.5257    3.4734 H   0  0  0  0  0  0  0  0  0  0  0  0
    2.8597   -4.8807    0.2820 H   0  0  0  0  0  0  0  0  0  0  0  0
    5.0188   -5.1934   -1.3746 H   0  0  0  0  0  0  0  0  0  0  0  0
    7.1868   -5.0684    0.3168 H   0  0  0  0  0  0  0  0  0  0  0  0
    1.7919   -4.0334    2.3731 H   0  0  0  0  0  0  0  0  0  0  0  0
    2.0013   -5.7261    2.7111 H   0  0  0  0  0  0  0  0  0  0  0  0
    0.6946   -3.7473    4.4146 H   0  0  0  0  0  0  0  0  0  0  0  0
    1.4202   -5.8832    7.8016 H   0  0  0  0  0  0  0  0  0  0  0  0
    2.6288   -6.6870    4.6096 H   0  0  0  0  0  0  0  0  0  0  0  0
    0.3040   -8.1987    5.6004 H   0  0  0  0  0  0  0  0  0  0  0  0
    0.0934   -6.6724    2.9988 H   0  0  0  0  0  0  0  0  0  0  0  0
   -0.6924   -6.2346    4.4843 H   0  0  0  0  0  0  0  0  0  0  0  0
   -1.0627   -7.7584    3.7321 H   0  0  0  0  0  0  0  0  0  0  0  0
    0.0432  -10.4904    4.4983 H   0  0  0  0  0  0  0  0  0  0  0  0
    1.3654  -10.4188    5.6501 H   0  0  0  0  0  0  0  0  0  0  0  0
    1.6095  -11.1692    4.0792 H   0  0  0  0  0  0  0  0  0  0  0  0
    0.1897   -9.1190    2.2411 H   0  0  0  0  0  0  0  0  0  0  0  0
    1.7750   -9.8249    1.9931 H   0  0  0  0  0  0  0  0  0  0  0  0
    1.6068   -8.0818    1.9925 H   0  0  0  0  0  0  0  0  0  0  0  0
  1  2  2  0
  1 40  1  0
  1 41  1  0
  2 32  1  0
  2  3  1  0
  3  4  2  0
  3  5  1  0
  5  6  1  0
  6 32  1  0
  6  7  1  0
  6 42  1  6
  7  8  1  0
  7  9  1  0
  7 43  1  6
  8 44  1  0
  8 45  1  0
  8 46  1  0
  9 18  1  0
  9 10  2  0
 10 11  1  0
 10 47  1  0
 11 12  1  0
 11 48  1  0
 11 49  1  0
 12 16  1  0
 12 13  1  0
 12 50  1  1
 13 33  1  0
 13 14  1  0
 13 51  1  1
 14 39  1  0
 14 15  1  0
 14 52  1  1
 15 16  1  0
 15 53  1  0
 15 54  1  0
 16 17  1  1
 16 18  1  0
 17 55  1  0
 17 56  1  0
 17 57  1  0
 18 19  1  1
 18 20  1  0
 19 58  1  0
 19 59  1  0
 19 60  1  0
 20 21  1  0
 21 22  1  0
 22 23  1  0
 22 28  1  0
 22 61  1  1
 23 27  1  0
 23 24  2  0
 24 25  1  0
 24 62  1  0
 25 26  2  0
 25 63  1  0
 26 27  1  0
 26 64  1  0
 28 29  1  0
 28 65  1  0
 28 66  1  0
 29 31  1  0
 29 30  1  0
 29 67  1  6
 31 30  1  1
 31 32  1  0
 31 33  1  0
 32 68  1  1
 33 34  1  0
 33 69  1  6
 34 35  1  0
 34 36  1  0
 34 70  1  1
 35 71  1  0
 35 72  1  0
 35 73  1  0
 36 37  1  0
 36 38  1  0
 36 39  1  0
 37 74  1  0
 37 75  1  0
 37 76  1  0
 38 77  1  0
 38 78  1  0
 38 79  1  0
M  END
>  <i_m_ct_stereo_status>  (327) 
1

>  <s_m_source_file>  (327) 
/var/tmp/pbs.5076255.sched01/tmpk9_hntje/1089a46f3po.sdf

>  <i_m_source_file_index>  (327) 
49

>  <i_lp_mmshare_version>  (327) 
48012

>  <i_f3d_flags>  (327) 
0

>  <s_epik_input>  (327) 
W0NAQEhdMTJbQ0BASF0oW0NIM10pQyhbQ0gzXSkoW0NIM10pT1tDSF0oW0NIMl1bQ0BdMzRbQ0gzXSlbQ0BIXTFbQ0BASF0zW0NIMl1bQ0hdPUMoW0NASF0oW0NIM10pW0NASF01W0NASF02Qyg9W0NIMl0pQyg9TylPNSlbQ0BdNChbQ0gzXSlPT1tDQEhdKFtDSDJdW0NIXShPNylDMjY3KWM4W2NIXVtjSF1bY0hdbzg=

>  <s_epik_cmdline>  (327) 
J2VwaWtfcHl0aG9uJywgJy1waHQnLCAnMi4wJywgJy1waCcsICc3LjAnLCAnLXRuJywgJzgnLCAnLW1hJywgJzIwMCcsICctaW1hZScsICc8aW5maWxlLm1hZT4nLCAnLW9tYWUnLCAnPG91dGZpbGUubWFlPic=

>  <r_lp_tautomer_probability>  (327) 
1

>  <r_epik_Ionization_Penalty>  (327) 
1.84806e-11

>  <r_epik_Ionization_Penalty_Charging>  (327) 
0

>  <r_epik_Ionization_Penalty_Neutral>  (327) 
1.84806e-11

>  <r_epik_State_Penalty>  (327) 
-0

>  <r_epik_Charging_Adjusted_Penalty>  (327) 
0

>  <i_epik_Tot_Q>  (327) 
0

>  <i_epik_Tot_abs_Q>  (327) 
0

>  <s_epik_Chemistry_Notes>  (327) 
This compound has an ester and may undergo hydrolysis at high or low pH.

>  <s_lp_Force_Field>  (327) 
OPLS3e

>  <r_lp_Energy>  (327) 
176.677

>  <b_lp_Chiralities_Consistent>  (327) 
1

>  <s_lp_Variant>  (327) 
81:0-8

>  <s_i_glide_gridfile>  (327) 
pfpi4k_grid

>  <i_i_glide_lignum>  (327) 
49

>  <i_i_glide_rotatable_bonds>  (327) 
1

>  <r_i_docking_score>  (327) 
-1.91146

>  <r_i_glide_ligand_efficiency>  (327) 
-0.0490118

>  <r_i_glide_ligand_efficiency_sa>  (327) 
-0.16621

>  <r_i_glide_ligand_efficiency_ln>  (327) 
-0.409872

>  <r_i_glide_gscore>  (327) 
-1.91146

>  <r_i_glide_lipo>  (327) 
-0.225551

>  <r_i_glide_hbond>  (327) 
-0.153715

>  <r_i_glide_metal>  (327) 
-0

>  <r_i_glide_rewards>  (327) 
0

>  <r_i_glide_evdw>  (327) 
-23.7388

>  <r_i_glide_ecoul>  (327) 
-2.58961

>  <r_i_glide_erotb>  (327) 
0.0717077

>  <r_i_glide_esite>  (327) 
-0.0285205

>  <r_i_glide_emodel>  (327) 
-29.1948

>  <r_i_glide_energy>  (327) 
-26.3284

>  <r_i_glide_einternal>  (327) 
0.057267

>  <r_i_glide_intrahb_reward>  (327) 
-0

>  <i_i_glide_confnum>  (327) 
3

>  <i_i_glide_posenum>  (327) 
3

>  <r_i_glide_eff_state_penalty>  (327) 
0

>  <ligand_id>  (327) 
81

>  <original_smiles>  (327) 
C=C1C(=O)OC2C(C)C3=CCC4C5C6CC4(C)C3(C)OOC(c3ccco3)CC3OC3(C12)C5C(C)C(C)(C)O6

>  <smiles>  (327) 
[H]C([H])=C1C(=O)OC2([H])C([H])(C([H])([H])[H])C3=C([H])C([H])([H])C4([H])C5([H])C6([H])OC(C([H])([H])[H])(C([H])([H])[H])C([H])(C([H])([H])[H])C5([H])C5(OC5([H])C([H])([H])C([H])(c5oc([H])c([H])c5[H])OOC3(C([H])([H])[H])C4(C([H])([H])[H])C6([H])[H])C12[H]

$$$$
83:0:0
     RDKit          3D

 40 42  0  0  1  0  0  0  0  0999 V2000
   -9.8429   -4.0448   -7.1441 C   0  0  0  0  0  0  0  0  0  0  0  0
   -9.1984   -5.2288   -7.5942 O   0  0  0  0  0  0  0  0  0  0  0  0
   -8.2296   -5.7911   -6.7954 C   0  0  0  0  0  0  0  0  0  0  0  0
   -7.5739   -5.0919   -5.7485 C   0  0  0  0  0  0  0  0  0  0  0  0
   -6.5757   -5.7208   -4.9730 C   0  0  0  0  0  0  0  0  0  0  0  0
   -6.1990   -7.0537   -5.2295 C   0  0  0  0  0  0  0  0  0  0  0  0
   -6.8546   -7.7451   -6.2635 C   0  0  0  0  0  0  0  0  0  0  0  0
   -7.8500   -7.1322   -7.0268 C   0  0  0  0  0  0  0  0  0  0  0  0
   -8.4559   -8.1099   -8.0189 C   0  0  1  0  0  0  0  0  0  0  0  0
   -9.9865   -8.0961   -8.1459 C   0  0  0  0  0  0  0  0  0  0  0  0
   -7.7823   -8.0644   -9.3150 N   0  0  0  0  0  0  0  0  0  0  0  0
   -7.3574   -9.4573   -9.2169 C   0  0  0  0  0  0  0  0  0  0  0  0
   -7.7456   -9.4455   -7.7459 C   0  0  2  0  0  0  0  0  0  0  0  0
   -8.7237  -10.4054   -7.3436 O   0  0  0  0  0  0  0  0  0  0  0  0
   -8.3063  -11.7544   -7.2253 C   0  0  0  0  0  0  0  0  0  0  0  0
   -6.6506   -9.1187   -6.7225 C   0  0  0  0  0  0  0  0  0  0  0  0
   -5.6330   -9.9169   -6.3548 C   0  0  0  0  0  0  0  0  0  0  0  0
   -5.4620  -11.1674   -6.8968 O   0  0  0  0  0  0  0  0  0  0  0  0
   -4.3518  -11.8656   -6.6049 C   0  0  0  0  0  0  0  0  0  0  0  0
   -4.4318  -13.0959   -7.2147 N   0  0  0  0  0  0  0  0  0  0  0  0
   -3.4092  -11.4784   -5.9199 O   0  0  0  0  0  0  0  0  0  0  0  0
  -10.5884   -3.7816   -7.8851 H   0  0  0  0  0  0  0  0  0  0  0  0
   -9.1581   -3.2031   -7.0522 H   0  0  0  0  0  0  0  0  0  0  0  0
  -10.3654   -4.1994   -6.2010 H   0  0  0  0  0  0  0  0  0  0  0  0
   -7.8249   -4.0671   -5.5138 H   0  0  0  0  0  0  0  0  0  0  0  0
   -6.0979   -5.1655   -4.1827 H   0  0  0  0  0  0  0  0  0  0  0  0
   -5.4446   -7.5357   -4.6241 H   0  0  0  0  0  0  0  0  0  0  0  0
  -10.4570   -8.2643   -7.1805 H   0  0  0  0  0  0  0  0  0  0  0  0
  -10.3458   -8.9038   -8.7861 H   0  0  0  0  0  0  0  0  0  0  0  0
  -10.3783   -7.1633   -8.5483 H   0  0  0  0  0  0  0  0  0  0  0  0
   -8.4296   -7.9168  -10.0751 H   0  0  0  0  0  0  0  0  0  0  0  0
   -7.9664  -10.1154   -9.8358 H   0  0  0  0  0  0  0  0  0  0  0  0
   -6.2911   -9.5855   -9.3795 H   0  0  0  0  0  0  0  0  0  0  0  0
   -9.1882  -12.3919   -7.1524 H   0  0  0  0  0  0  0  0  0  0  0  0
   -7.7262  -11.9072   -6.3157 H   0  0  0  0  0  0  0  0  0  0  0  0
   -7.7247  -12.0754   -8.0905 H   0  0  0  0  0  0  0  0  0  0  0  0
   -4.8879   -9.6346   -5.6217 H   0  0  0  0  0  0  0  0  0  0  0  0
   -5.2669  -13.3275   -7.7311 H   0  0  0  0  0  0  0  0  0  0  0  0
   -3.6886  -13.7508   -7.0257 H   0  0  0  0  0  0  0  0  0  0  0  0
   -7.0006   -7.4282   -9.3041 H   0  0  0  0  0  0  0  0  0  0  0  0
  1  2  1  0
  1 22  1  0
  1 23  1  0
  1 24  1  0
  2  3  1  0
  3  8  2  0
  3  4  1  0
  4  5  2  0
  4 25  1  0
  5  6  1  0
  5 26  1  0
  6  7  2  0
  6 27  1  0
  7 16  1  0
  7  8  1  0
  8  9  1  0
  9 13  1  0
  9 10  1  6
  9 11  1  0
 10 28  1  0
 10 29  1  0
 10 30  1  0
 11 12  1  0
 11 31  1  0
 11 40  1  0
 12 13  1  0
 12 32  1  0
 12 33  1  0
 13 14  1  1
 13 16  1  0
 14 15  1  0
 15 34  1  0
 15 35  1  0
 15 36  1  0
 16 17  2  3
 17 18  1  0
 17 37  1  0
 18 19  1  0
 19 20  1  0
 19 21  2  0
 20 38  1  0
 20 39  1  0
M  CHG  1  11   1
M  END
>  <i_m_ct_stereo_status>  (328) 
1

>  <s_m_source_file>  (328) 
/var/tmp/pbs.5076255.sched01/tmpk9_hntje/1089a46f3po.sdf

>  <i_m_source_file_index>  (328) 
51

>  <i_lp_mmshare_version>  (328) 
48012

>  <i_f3d_flags>  (328) 
0

>  <s_epik_input>  (328) 
W0NIM11PYzFbY0hdW2NIXVtjSF1jKGMxW0NAQF0yM1tDSDNdKS9DKFtDQEBdMyhbQ0gyXVtOSF0yKU9bQ0gzXSk9W0NIXS9PQyg9TylbTkgyXQ==

>  <s_epik_cmdline>  (328) 
J2VwaWtfcHl0aG9uJywgJy1waHQnLCAnMi4wJywgJy1waCcsICc3LjAnLCAnLXRuJywgJzgnLCAnLW1hJywgJzIwMCcsICctaW1hZScsICc8aW5maWxlLm1hZT4nLCAnLW9tYWUnLCAnPG91dGZpbGUubWFlPic=

>  <r_epik_Ionization_Penalty>  (328) 
0.169446

>  <r_epik_Ionization_Penalty_Charging>  (328) 
0.169444

>  <r_epik_Ionization_Penalty_Neutral>  (328) 
2.66269e-06

>  <r_epik_State_Penalty>  (328) 
0.158817

>  <r_epik_Charging_Adjusted_Penalty>  (328) 
0.32826

>  <i_epik_Tot_Q>  (328) 
1

>  <i_epik_Tot_abs_Q>  (328) 
1

>  <s_lp_Force_Field>  (328) 
OPLS3e

>  <r_lp_Energy>  (328) 
25.0764

>  <b_lp_Chiralities_Consistent>  (328) 
1

>  <s_lp_Variant>  (328) 
83:0-1

>  <s_i_glide_gridfile>  (328) 
pfpi4k_grid

>  <i_i_glide_lignum>  (328) 
51

>  <i_i_glide_rotatable_bonds>  (328) 
4

>  <r_i_docking_score>  (328) 
-5.21503

>  <r_i_glide_ligand_efficiency>  (328) 
-0.248335

>  <r_i_glide_ligand_efficiency_sa>  (328) 
-0.685137

>  <r_i_glide_ligand_efficiency_ln>  (328) 
-1.28941

>  <r_i_glide_gscore>  (328) 
-5.21503

>  <r_i_glide_lipo>  (328) 
-2.38291

>  <r_i_glide_hbond>  (328) 
0

>  <r_i_glide_metal>  (328) 
-0

>  <r_i_glide_rewards>  (328) 
-2.01306

>  <r_i_glide_evdw>  (328) 
-25.5813

>  <r_i_glide_ecoul>  (328) 
1.97392

>  <r_i_glide_erotb>  (328) 
0.21491

>  <r_i_glide_esite>  (328) 
-0.0510015

>  <r_i_glide_emodel>  (328) 
-34.2854

>  <r_i_glide_energy>  (328) 
-23.6073

>  <r_i_glide_einternal>  (328) 
3.10083

>  <r_i_glide_intrahb_reward>  (328) 
-0

>  <i_i_glide_confnum>  (328) 
2

>  <i_i_glide_posenum>  (328) 
8

>  <r_i_glide_eff_state_penalty>  (328) 
0

>  <ligand_id>  (328) 
83

>  <original_smiles>  (328) 
COc1cccc2c1C1(C)NCC1(OC)C2=COC(N)=O

>  <smiles>  (328) 
[H]C(OC(=O)N([H])[H])=C1c2c([H])c([H])c([H])c(OC([H])([H])[H])c2C2(C([H])([H])[H])C1(OC([H])([H])[H])C([H])([H])[N+]2([H])[H]

$$$$
83:0:1
     RDKit          3D

 40 42  0  0  1  0  0  0  0  0999 V2000
    4.2294    1.0542    4.2587 C   0  0  0  0  0  0  0  0  0  0  0  0
    3.2579    2.0729    4.1059 O   0  0  0  0  0  0  0  0  0  0  0  0
    2.0283    1.7252    3.6015 C   0  0  0  0  0  0  0  0  0  0  0  0
    1.7226    0.4561    3.0517 C   0  0  0  0  0  0  0  0  0  0  0  0
    0.4390    0.1672    2.5351 C   0  0  0  0  0  0  0  0  0  0  0  0
   -0.5674    1.1495    2.5432 C   0  0  0  0  0  0  0  0  0  0  0  0
   -0.2621    2.4038    3.1026 C   0  0  0  0  0  0  0  0  0  0  0  0
    1.0056    2.6900    3.6296 C   0  0  0  0  0  0  0  0  0  0  0  0
    1.0623    4.0888    4.1898 C   0  0  1  0  0  0  0  0  0  0  0  0
    1.8193    4.2534    5.5172 C   0  0  0  0  0  0  0  0  0  0  0  0
    1.4489    5.0722    3.1858 N   0  0  0  0  0  0  0  0  0  0  0  0
    0.1974    5.8001    3.2973 C   0  0  0  0  0  0  0  0  0  0  0  0
   -0.3816    4.6077    4.0463 C   0  0  2  0  0  0  0  0  0  0  0  0
   -1.0187    4.9227    5.2793 O   0  0  0  0  0  0  0  0  0  0  0  0
   -1.4569    3.8221    6.0904 C   0  0  0  0  0  0  0  0  0  0  0  0
   -1.1059    3.5664    3.1930 C   0  0  0  0  0  0  0  0  0  0  0  0
   -2.2982    3.6822    2.5684 C   0  0  0  0  0  0  0  0  0  0  0  0
   -3.0179    4.8522    2.5042 O   0  0  0  0  0  0  0  0  0  0  0  0
   -4.3389    4.9397    2.0207 C   0  0  0  0  0  0  0  0  0  0  0  0
   -4.9607    3.6973    1.8485 N   0  0  0  0  0  0  0  0  0  0  0  0
   -4.8424    6.0051    1.8062 O   0  0  0  0  0  0  0  0  0  0  0  0
    5.1224    1.4987    4.6859 H   0  0  0  0  0  0  0  0  0  0  0  0
    4.4922    0.6111    3.3023 H   0  0  0  0  0  0  0  0  0  0  0  0
    3.8771    0.2883    4.9431 H   0  0  0  0  0  0  0  0  0  0  0  0
    2.4617   -0.3326    3.0145 H   0  0  0  0  0  0  0  0  0  0  0  0
    0.2476   -0.8040    2.1242 H   0  0  0  0  0  0  0  0  0  0  0  0
   -1.5475    0.9363    2.1447 H   0  0  0  0  0  0  0  0  0  0  0  0
    1.4827    3.5127    6.2568 H   0  0  0  0  0  0  0  0  0  0  0  0
    1.6254    5.2418    5.9449 H   0  0  0  0  0  0  0  0  0  0  0  0
    2.9020    4.1445    5.4112 H   0  0  0  0  0  0  0  0  0  0  0  0
    2.2373    5.6371    3.4791 H   0  0  0  0  0  0  0  0  0  0  0  0
    0.2912    6.7111    3.8966 H   0  0  0  0  0  0  0  0  0  0  0  0
   -0.2528    6.0198    2.3171 H   0  0  0  0  0  0  0  0  0  0  0  0
   -2.1088    4.1945    6.8775 H   0  0  0  0  0  0  0  0  0  0  0  0
   -0.6277    3.2976    6.5769 H   0  0  0  0  0  0  0  0  0  0  0  0
   -2.0308    3.0848    5.5375 H   0  0  0  0  0  0  0  0  0  0  0  0
   -2.6803    2.8462    1.9986 H   0  0  0  0  0  0  0  0  0  0  0  0
   -4.4659    2.8603    2.1233 H   0  0  0  0  0  0  0  0  0  0  0  0
   -5.8953    3.6928    1.4911 H   0  0  0  0  0  0  0  0  0  0  0  0
    1.5163    4.6547    2.2584 H   0  0  0  0  0  0  0  0  0  0  0  0
  1  2  1  0
  1 22  1  0
  1 23  1  0
  1 24  1  0
  2  3  1  0
  3  8  2  0
  3  4  1  0
  4  5  2  0
  4 25  1  0
  5  6  1  0
  5 26  1  0
  6  7  2  0
  6 27  1  0
  7 16  1  0
  7  8  1  0
  8  9  1  0
  9 13  1  0
  9 10  1  1
  9 11  1  0
 10 28  1  0
 10 29  1  0
 10 30  1  0
 11 12  1  0
 11 31  1  0
 11 40  1  0
 12 13  1  0
 12 32  1  0
 12 33  1  0
 13 14  1  1
 13 16  1  0
 14 15  1  0
 15 34  1  0
 15 35  1  0
 15 36  1  0
 16 17  2  3
 17 18  1  0
 17 37  1  0
 18 19  1  0
 19 20  1  0
 19 21  2  0
 20 38  1  0
 20 39  1  0
M  CHG  1  11   1
M  END
>  <i_m_ct_stereo_status>  (329) 
1

>  <s_m_source_file>  (329) 
/var/tmp/pbs.5076255.sched01/tmpk9_hntje/1089a46f3po.sdf

>  <i_m_source_file_index>  (329) 
51

>  <i_lp_mmshare_version>  (329) 
48012

>  <i_f3d_flags>  (329) 
0

>  <s_epik_input>  (329) 
W0NIM11PYzFbY0hdW2NIXVtjSF1jKGMxW0NAQF0yM1tDSDNdKS9DKFtDQEBdMyhbQ0gyXVtOSF0yKU9bQ0gzXSk9W0NIXS9PQyg9TylbTkgyXQ==

>  <s_epik_cmdline>  (329) 
J2VwaWtfcHl0aG9uJywgJy1waHQnLCAnMi4wJywgJy1waCcsICc3LjAnLCAnLXRuJywgJzgnLCAnLW1hJywgJzIwMCcsICctaW1hZScsICc8aW5maWxlLm1hZT4nLCAnLW9tYWUnLCAnPG91dGZpbGUubWFlPic=

>  <r_epik_Ionization_Penalty>  (329) 
0.169446

>  <r_epik_Ionization_Penalty_Charging>  (329) 
0.169444

>  <r_epik_Ionization_Penalty_Neutral>  (329) 
2.66269e-06

>  <r_epik_State_Penalty>  (329) 
0.158817

>  <r_epik_Charging_Adjusted_Penalty>  (329) 
0.32826

>  <i_epik_Tot_Q>  (329) 
1

>  <i_epik_Tot_abs_Q>  (329) 
1

>  <s_lp_Force_Field>  (329) 
OPLS3e

>  <r_lp_Energy>  (329) 
25.0764

>  <b_lp_Chiralities_Consistent>  (329) 
1

>  <s_lp_Variant>  (329) 
83:0-1

>  <s_i_glide_gridfile>  (329) 
pfpi4k_grid

>  <i_i_glide_lignum>  (329) 
51

>  <i_i_glide_rotatable_bonds>  (329) 
4

>  <r_i_docking_score>  (329) 
-4.34849

>  <r_i_glide_ligand_efficiency>  (329) 
-0.207071

>  <r_i_glide_ligand_efficiency_sa>  (329) 
-0.571294

>  <r_i_glide_ligand_efficiency_ln>  (329) 
-1.07516

>  <r_i_glide_gscore>  (329) 
-4.34849

>  <r_i_glide_lipo>  (329) 
-0.00102727

>  <r_i_glide_hbond>  (329) 
-0.570877

>  <r_i_glide_metal>  (329) 
-0

>  <r_i_glide_rewards>  (329) 
-1.4228

>  <r_i_glide_evdw>  (329) 
-16.8664

>  <r_i_glide_ecoul>  (329) 
-10.833

>  <r_i_glide_erotb>  (329) 
0.21491

>  <r_i_glide_esite>  (329) 
-0.100426

>  <r_i_glide_emodel>  (329) 
-32.4355

>  <r_i_glide_energy>  (329) 
-27.6994

>  <r_i_glide_einternal>  (329) 
10.3253

>  <r_i_glide_intrahb_reward>  (329) 
-0

>  <i_i_glide_confnum>  (329) 
2

>  <i_i_glide_posenum>  (329) 
24

>  <r_i_glide_eff_state_penalty>  (329) 
0

>  <ligand_id>  (329) 
83

>  <original_smiles>  (329) 
COc1cccc2c1C1(C)NCC1(OC)C2=COC(N)=O

>  <smiles>  (329) 
[H]C(OC(=O)N([H])[H])=C1c2c([H])c([H])c([H])c(OC([H])([H])[H])c2C2(C([H])([H])[H])C1(OC([H])([H])[H])C([H])([H])[N+]2([H])[H]

$$$$
83:0:2
     RDKit          3D

 40 42  0  0  1  0  0  0  0  0999 V2000
   -2.2276    4.2030    2.6295 C   0  0  0  0  0  0  0  0  0  0  0  0
   -1.8444    4.1961    4.0042 O   0  0  0  0  0  0  0  0  0  0  0  0
   -0.5024    4.0328    4.2625 C   0  0  0  0  0  0  0  0  0  0  0  0
    0.1594    5.0536    4.9814 C   0  0  0  0  0  0  0  0  0  0  0  0
    1.5316    4.9617    5.2880 C   0  0  0  0  0  0  0  0  0  0  0  0
    2.2812    3.8343    4.8957 C   0  0  0  0  0  0  0  0  0  0  0  0
    1.6210    2.7964    4.2188 C   0  0  0  0  0  0  0  0  0  0  0  0
    0.2563    2.8854    3.9102 C   0  0  0  0  0  0  0  0  0  0  0  0
   -0.2143    1.6211    3.2234 C   0  0  1  0  0  0  0  0  0  0  0  0
   -1.5407    1.0639    3.7474 C   0  0  0  0  0  0  0  0  0  0  0  0
   -0.1153    1.7222    1.7553 N   0  0  0  0  0  0  0  0  0  0  0  0
    0.8251    0.6120    1.6737 C   0  0  0  0  0  0  0  0  0  0  0  0
    1.0089    0.6979    3.1889 C   0  0  2  0  0  0  0  0  0  0  0  0
    0.7033   -0.4801    3.9406 O   0  0  0  0  0  0  0  0  0  0  0  0
    1.6084   -1.5651    3.8375 C   0  0  0  0  0  0  0  0  0  0  0  0
    2.1698    1.5437    3.7068 C   0  0  0  0  0  0  0  0  0  0  0  0
    3.4740    1.2355    3.6360 C   0  0  0  0  0  0  0  0  0  0  0  0
    3.9188    0.0974    3.0066 O   0  0  0  0  0  0  0  0  0  0  0  0
    5.1665   -0.3480    3.2478 C   0  0  0  0  0  0  0  0  0  0  0  0
    5.3875   -1.4586    2.4672 N   0  0  0  0  0  0  0  0  0  0  0  0
    5.9766    0.1445    4.0298 O   0  0  0  0  0  0  0  0  0  0  0  0
   -3.3160    4.2212    2.5347 H   0  0  0  0  0  0  0  0  0  0  0  0
   -1.9220    3.3126    2.0932 H   0  0  0  0  0  0  0  0  0  0  0  0
   -1.7980    5.0620    2.1068 H   0  0  0  0  0  0  0  0  0  0  0  0
   -0.4014    5.9261    5.2884 H   0  0  0  0  0  0  0  0  0  0  0  0
    2.0063    5.7684    5.8242 H   0  0  0  0  0  0  0  0  0  0  0  0
    3.3272    3.7689    5.1413 H   0  0  0  0  0  0  0  0  0  0  0  0
   -1.4951    0.9149    4.8305 H   0  0  0  0  0  0  0  0  0  0  0  0
   -1.7783    0.0914    3.3129 H   0  0  0  0  0  0  0  0  0  0  0  0
   -2.3907    1.7161    3.5686 H   0  0  0  0  0  0  0  0  0  0  0  0
   -0.9705    1.4763    1.2820 H   0  0  0  0  0  0  0  0  0  0  0  0
    0.3195   -0.2956    1.3517 H   0  0  0  0  0  0  0  0  0  0  0  0
    1.7018    0.8400    1.0680 H   0  0  0  0  0  0  0  0  0  0  0  0
    1.1389   -2.4568    4.2575 H   0  0  0  0  0  0  0  0  0  0  0  0
    2.5141   -1.3720    4.4139 H   0  0  0  0  0  0  0  0  0  0  0  0
    1.8680   -1.7722    2.7970 H   0  0  0  0  0  0  0  0  0  0  0  0
    4.2648    1.8817    3.9981 H   0  0  0  0  0  0  0  0  0  0  0  0
    4.6477   -1.7844    1.8643 H   0  0  0  0  0  0  0  0  0  0  0  0
    6.2916   -1.8971    2.5294 H   0  0  0  0  0  0  0  0  0  0  0  0
    0.2476    2.6285    1.4696 H   0  0  0  0  0  0  0  0  0  0  0  0
  1  2  1  0
  1 22  1  0
  1 23  1  0
  1 24  1  0
  2  3  1  0
  3  8  2  0
  3  4  1  0
  4  5  2  0
  4 25  1  0
  5  6  1  0
  5 26  1  0
  6  7  2  0
  6 27  1  0
  7 16  1  0
  7  8  1  0
  8  9  1  0
  9 13  1  0
  9 10  1  6
  9 11  1  0
 10 28  1  0
 10 29  1  0
 10 30  1  0
 11 12  1  0
 11 31  1  0
 11 40  1  0
 12 13  1  0
 12 32  1  0
 12 33  1  0
 13 14  1  1
 13 16  1  0
 14 15  1  0
 15 34  1  0
 15 35  1  0
 15 36  1  0
 16 17  2  3
 17 18  1  0
 17 37  1  0
 18 19  1  0
 19 20  1  0
 19 21  2  0
 20 38  1  0
 20 39  1  0
M  CHG  1  11   1
M  END
>  <i_m_ct_stereo_status>  (330) 
1

>  <s_m_source_file>  (330) 
/var/tmp/pbs.5076255.sched01/tmpk9_hntje/1089a46f3po.sdf

>  <i_m_source_file_index>  (330) 
51

>  <i_lp_mmshare_version>  (330) 
48012

>  <i_f3d_flags>  (330) 
0

>  <s_epik_input>  (330) 
W0NIM11PYzFbY0hdW2NIXVtjSF1jKGMxW0NAQF0yM1tDSDNdKS9DKFtDQEBdMyhbQ0gyXVtOSF0yKU9bQ0gzXSk9W0NIXS9PQyg9TylbTkgyXQ==

>  <s_epik_cmdline>  (330) 
J2VwaWtfcHl0aG9uJywgJy1waHQnLCAnMi4wJywgJy1waCcsICc3LjAnLCAnLXRuJywgJzgnLCAnLW1hJywgJzIwMCcsICctaW1hZScsICc8aW5maWxlLm1hZT4nLCAnLW9tYWUnLCAnPG91dGZpbGUubWFlPic=

>  <r_epik_Ionization_Penalty>  (330) 
0.169446

>  <r_epik_Ionization_Penalty_Charging>  (330) 
0.169444

>  <r_epik_Ionization_Penalty_Neutral>  (330) 
2.66269e-06

>  <r_epik_State_Penalty>  (330) 
0.158817

>  <r_epik_Charging_Adjusted_Penalty>  (330) 
0.32826

>  <i_epik_Tot_Q>  (330) 
1

>  <i_epik_Tot_abs_Q>  (330) 
1

>  <s_lp_Force_Field>  (330) 
OPLS3e

>  <r_lp_Energy>  (330) 
25.0764

>  <b_lp_Chiralities_Consistent>  (330) 
1

>  <s_lp_Variant>  (330) 
83:0-1

>  <s_i_glide_gridfile>  (330) 
pfpi4k_grid

>  <i_i_glide_lignum>  (330) 
51

>  <i_i_glide_rotatable_bonds>  (330) 
4

>  <r_i_docking_score>  (330) 
-3.72109

>  <r_i_glide_ligand_efficiency>  (330) 
-0.177195

>  <r_i_glide_ligand_efficiency_sa>  (330) 
-0.488868

>  <r_i_glide_ligand_efficiency_ln>  (330) 
-0.920033

>  <r_i_glide_gscore>  (330) 
-3.72109

>  <r_i_glide_lipo>  (330) 
0

>  <r_i_glide_hbond>  (330) 
-0.292802

>  <r_i_glide_metal>  (330) 
-0

>  <r_i_glide_rewards>  (330) 
-1.62561

>  <r_i_glide_evdw>  (330) 
-17.8793

>  <r_i_glide_ecoul>  (330) 
-6.96712

>  <r_i_glide_erotb>  (330) 
0.21491

>  <r_i_glide_esite>  (330) 
-0.0785632

>  <r_i_glide_emodel>  (330) 
-28.7015

>  <r_i_glide_energy>  (330) 
-24.8464

>  <r_i_glide_einternal>  (330) 
8.89127

>  <r_i_glide_intrahb_reward>  (330) 
-0

>  <i_i_glide_confnum>  (330) 
4

>  <i_i_glide_posenum>  (330) 
25

>  <r_i_glide_eff_state_penalty>  (330) 
0

>  <ligand_id>  (330) 
83

>  <original_smiles>  (330) 
COc1cccc2c1C1(C)NCC1(OC)C2=COC(N)=O

>  <smiles>  (330) 
[H]C(OC(=O)N([H])[H])=C1c2c([H])c([H])c([H])c(OC([H])([H])[H])c2C2(C([H])([H])[H])C1(OC([H])([H])[H])C([H])([H])[N+]2([H])[H]

$$$$
83:1:0
     RDKit          3D

 40 42  0  0  1  0  0  0  0  0999 V2000
    4.0517    0.6980   -3.9670 C   0  0  0  0  0  0  0  0  0  0  0  0
    4.2462    0.0107   -2.7401 O   0  0  0  0  0  0  0  0  0  0  0  0
    3.6097   -1.1920   -2.5645 C   0  0  0  0  0  0  0  0  0  0  0  0
    2.8154   -1.7918   -3.5743 C   0  0  0  0  0  0  0  0  0  0  0  0
    2.1263   -2.9850   -3.3236 C   0  0  0  0  0  0  0  0  0  0  0  0
    2.1539   -3.5658   -2.0483 C   0  0  0  0  0  0  0  0  0  0  0  0
    2.9964   -3.0317   -1.0666 C   0  0  0  0  0  0  0  0  0  0  0  0
    3.7026   -1.8634   -1.3182 C   0  0  0  0  0  0  0  0  0  0  0  0
    4.4985   -1.4659   -0.0983 C   0  0  1  0  0  0  0  0  0  0  0  0
    5.9221   -1.0485   -0.3981 C   0  0  0  0  0  0  0  0  0  0  0  0
    3.7584   -0.5398    0.7662 N   0  0  0  0  0  0  0  0  0  0  0  0
    3.7371   -1.4912    1.8778 C   0  0  0  0  0  0  0  0  0  0  0  0
    4.2618   -2.5656    0.9324 C   0  0  2  0  0  0  0  0  0  0  0  0
    5.5163   -3.1540    1.2845 O   0  0  0  0  0  0  0  0  0  0  0  0
    5.5049   -4.1604    2.2810 C   0  0  0  0  0  0  0  0  0  0  0  0
    3.2334   -3.4981    0.2999 C   0  0  0  0  0  0  0  0  0  0  0  0
    2.6677   -4.5360    0.9432 C   0  0  0  0  0  0  0  0  0  0  0  0
    1.7772   -5.4184    0.3814 O   0  0  0  0  0  0  0  0  0  0  0  0
    1.2380   -6.4000    1.1502 C   0  0  0  0  0  0  0  0  0  0  0  0
    2.1899   -7.0718    1.8897 N   0  0  0  0  0  0  0  0  0  0  0  0
    0.0363   -6.6598    1.1334 O   0  0  0  0  0  0  0  0  0  0  0  0
    4.5651    1.6575   -3.9202 H   0  0  0  0  0  0  0  0  0  0  0  0
    2.9993    0.8818   -4.1666 H   0  0  0  0  0  0  0  0  0  0  0  0
    4.4656    0.1330   -4.7983 H   0  0  0  0  0  0  0  0  0  0  0  0
    2.6754   -1.3341   -4.5421 H   0  0  0  0  0  0  0  0  0  0  0  0
    1.5387   -3.4351   -4.1061 H   0  0  0  0  0  0  0  0  0  0  0  0
    1.6047   -4.4714   -1.8714 H   0  0  0  0  0  0  0  0  0  0  0  0
    6.4361   -1.8307   -0.9658 H   0  0  0  0  0  0  0  0  0  0  0  0
    6.5003   -0.8526    0.5070 H   0  0  0  0  0  0  0  0  0  0  0  0
    5.9249   -0.1584   -1.0013 H   0  0  0  0  0  0  0  0  0  0  0  0
    4.2955    0.2794    0.9811 H   0  0  0  0  0  0  0  0  0  0  0  0
    4.4443   -1.2248    2.6611 H   0  0  0  0  0  0  0  0  0  0  0  0
    2.7292   -1.6670    2.2514 H   0  0  0  0  0  0  0  0  0  0  0  0
    6.5282   -4.3485    2.6010 H   0  0  0  0  0  0  0  0  0  0  0  0
    5.1294   -5.1014    1.8808 H   0  0  0  0  0  0  0  0  0  0  0  0
    4.9107   -3.8630    3.1462 H   0  0  0  0  0  0  0  0  0  0  0  0
    2.8922   -4.7272    1.9890 H   0  0  0  0  0  0  0  0  0  0  0  0
    3.1613   -6.8173    1.7843 H   0  0  0  0  0  0  0  0  0  0  0  0
    1.8923   -7.8433    2.4680 H   0  0  0  0  0  0  0  0  0  0  0  0
    2.8378   -0.3621    0.4016 H   0  0  0  0  0  0  0  0  0  0  0  0
  1  2  1  0
  1 22  1  0
  1 23  1  0
  1 24  1  0
  2  3  1  0
  3  8  2  0
  3  4  1  0
  4  5  2  0
  4 25  1  0
  5  6  1  0
  5 26  1  0
  6  7  2  0
  6 27  1  0
  7 16  1  0
  7  8  1  0
  8  9  1  0
  9 13  1  0
  9 10  1  6
  9 11  1  0
 10 28  1  0
 10 29  1  0
 10 30  1  0
 11 12  1  0
 11 31  1  0
 11 40  1  0
 12 13  1  0
 12 32  1  0
 12 33  1  0
 13 14  1  1
 13 16  1  0
 14 15  1  0
 15 34  1  0
 15 35  1  0
 15 36  1  0
 16 17  2  3
 17 18  1  0
 17 37  1  0
 18 19  1  0
 19 20  1  0
 19 21  2  0
 20 38  1  0
 20 39  1  0
M  CHG  1  11   1
M  END
>  <i_m_ct_stereo_status>  (331) 
1

>  <s_m_source_file>  (331) 
/var/tmp/pbs.5076255.sched01/tmpk9_hntje/1089a46f3po.sdf

>  <i_m_source_file_index>  (331) 
52

>  <i_lp_mmshare_version>  (331) 
48012

>  <i_f3d_flags>  (331) 
0

>  <s_epik_input>  (331) 
W0NIM11PYzFbY0hdW2NIXVtjSF1jKGMxW0NAQF0yM1tDSDNdKS9DKFtDQEBdMyhbQ0gyXVtOSF0yKU9bQ0gzXSk9W0NIXS9PQyg9TylbTkgyXQ==

>  <s_epik_cmdline>  (331) 
J2VwaWtfcHl0aG9uJywgJy1waHQnLCAnMi4wJywgJy1waCcsICc3LjAnLCAnLXRuJywgJzgnLCAnLW1hJywgJzIwMCcsICctaW1hZScsICc8aW5maWxlLm1hZT4nLCAnLW9tYWUnLCAnPG91dGZpbGUubWFlPic=

>  <r_epik_Ionization_Penalty>  (331) 
0.169446

>  <r_epik_Ionization_Penalty_Charging>  (331) 
0.169444

>  <r_epik_Ionization_Penalty_Neutral>  (331) 
2.66269e-06

>  <r_epik_State_Penalty>  (331) 
0.158817

>  <r_epik_Charging_Adjusted_Penalty>  (331) 
0.32826

>  <i_epik_Tot_Q>  (331) 
1

>  <i_epik_Tot_abs_Q>  (331) 
1

>  <s_lp_Force_Field>  (331) 
OPLS3e

>  <r_lp_Energy>  (331) 
25.3202

>  <b_lp_Chiralities_Consistent>  (331) 
1

>  <s_lp_Variant>  (331) 
83:0-2

>  <s_i_glide_gridfile>  (331) 
pfpi4k_grid

>  <i_i_glide_lignum>  (331) 
52

>  <i_i_glide_rotatable_bonds>  (331) 
4

>  <r_i_docking_score>  (331) 
-3.84443

>  <r_i_glide_ligand_efficiency>  (331) 
-0.183068

>  <r_i_glide_ligand_efficiency_sa>  (331) 
-0.505071

>  <r_i_glide_ligand_efficiency_ln>  (331) 
-0.950527

>  <r_i_glide_gscore>  (331) 
-3.84443

>  <r_i_glide_lipo>  (331) 
-0.594352

>  <r_i_glide_hbond>  (331) 
-0.259214

>  <r_i_glide_metal>  (331) 
-0

>  <r_i_glide_rewards>  (331) 
-1.4228

>  <r_i_glide_evdw>  (331) 
-17.7297

>  <r_i_glide_ecoul>  (331) 
-5.34172

>  <r_i_glide_erotb>  (331) 
0.21491

>  <r_i_glide_esite>  (331) 
-0.0952281

>  <r_i_glide_emodel>  (331) 
-22.8772

>  <r_i_glide_energy>  (331) 
-23.0714

>  <r_i_glide_einternal>  (331) 
9.46577

>  <r_i_glide_intrahb_reward>  (331) 
-0

>  <i_i_glide_confnum>  (331) 
2

>  <i_i_glide_posenum>  (331) 
9

>  <r_i_glide_eff_state_penalty>  (331) 
0

>  <ligand_id>  (331) 
83

>  <original_smiles>  (331) 
COc1cccc2c1C1(C)NCC1(OC)C2=COC(N)=O

>  <smiles>  (331) 
[H]C(OC(=O)N([H])[H])=C1c2c([H])c([H])c([H])c(OC([H])([H])[H])c2C2(C([H])([H])[H])C1(OC([H])([H])[H])C([H])([H])[N+]2([H])[H]

$$$$
83:2:0
     RDKit          3D

 39 41  0  0  1  0  0  0  0  0999 V2000
    1.3836   -2.2369    9.1774 C   0  0  0  0  0  0  0  0  0  0  0  0
    0.8751   -1.0125    8.6864 O   0  0  0  0  0  0  0  0  0  0  0  0
    0.2172   -0.9987    7.4811 C   0  0  0  0  0  0  0  0  0  0  0  0
   -0.0686   -2.1483    6.7044 C   0  0  0  0  0  0  0  0  0  0  0  0
   -0.7393   -2.0418    5.4704 C   0  0  0  0  0  0  0  0  0  0  0  0
   -1.1166   -0.7859    4.9730 C   0  0  0  0  0  0  0  0  0  0  0  0
   -0.8301    0.3542    5.7301 C   0  0  0  0  0  0  0  0  0  0  0  0
   -0.2084    0.2495    6.9849 C   0  0  0  0  0  0  0  0  0  0  0  0
   -0.0564    1.6000    7.6236 C   0  0  1  0  0  0  0  0  0  0  0  0
   -0.5351    1.6551    9.0777 C   0  0  0  0  0  0  0  0  0  0  0  0
    1.2785    2.1683    7.4614 N   0  0  0  0  0  0  0  0  0  0  0  0
    0.8614    3.0949    6.4084 C   0  0  0  0  0  0  0  0  0  0  0  0
   -0.5824    2.5928    6.5588 C   0  0  2  0  0  0  0  0  0  0  0  0
   -1.5216    3.5625    7.0354 O   0  0  0  0  0  0  0  0  0  0  0  0
   -2.8673    3.1220    7.1817 C   0  0  0  0  0  0  0  0  0  0  0  0
   -1.0546    1.7395    5.3845 C   0  0  0  0  0  0  0  0  0  0  0  0
   -1.6069    2.1586    4.2270 C   0  0  0  0  0  0  0  0  0  0  0  0
   -1.8070    3.4778    3.9309 O   0  0  0  0  0  0  0  0  0  0  0  0
   -2.5999    3.9213    2.9095 C   0  0  0  0  0  0  0  0  0  0  0  0
   -3.4704    2.9510    2.3952 N   0  0  0  0  0  0  0  0  0  0  0  0
   -2.5839    5.0665    2.4944 O   0  0  0  0  0  0  0  0  0  0  0  0
    1.9013   -2.0666   10.1258 H   0  0  0  0  0  0  0  0  0  0  0  0
    2.0955   -2.6752    8.4790 H   0  0  0  0  0  0  0  0  0  0  0  0
    0.5679   -2.9331    9.3595 H   0  0  0  0  0  0  0  0  0  0  0  0
    0.2526   -3.1220    7.0336 H   0  0  0  0  0  0  0  0  0  0  0  0
   -0.9438   -2.9329    4.9053 H   0  0  0  0  0  0  0  0  0  0  0  0
   -1.6184   -0.6940    4.0222 H   0  0  0  0  0  0  0  0  0  0  0  0
   -1.5697    1.3014    9.1819 H   0  0  0  0  0  0  0  0  0  0  0  0
   -0.5503    2.6816    9.4527 H   0  0  0  0  0  0  0  0  0  0  0  0
    0.0902    1.0990    9.7910 H   0  0  0  0  0  0  0  0  0  0  0  0
    1.4954    2.6899    8.2970 H   0  0  0  0  0  0  0  0  0  0  0  0
    1.0375    4.1339    6.6728 H   0  0  0  0  0  0  0  0  0  0  0  0
    1.3179    2.8586    5.4443 H   0  0  0  0  0  0  0  0  0  0  0  0
   -3.3712    3.8365    7.8342 H   0  0  0  0  0  0  0  0  0  0  0  0
   -2.9271    2.1353    7.6299 H   0  0  0  0  0  0  0  0  0  0  0  0
   -3.3753    3.1450    6.2143 H   0  0  0  0  0  0  0  0  0  0  0  0
   -1.9094    1.4541    3.4590 H   0  0  0  0  0  0  0  0  0  0  0  0
   -3.5091    1.9934    2.7576 H   0  0  0  0  0  0  0  0  0  0  0  0
   -3.9899    3.2366    1.5890 H   0  0  0  0  0  0  0  0  0  0  0  0
  1  2  1  0
  1 22  1  0
  1 23  1  0
  1 24  1  0
  2  3  1  0
  3  8  2  0
  3  4  1  0
  4  5  2  0
  4 25  1  0
  5  6  1  0
  5 26  1  0
  6  7  2  0
  6 27  1  0
  7 16  1  0
  7  8  1  0
  8  9  1  0
  9 13  1  0
  9 10  1  1
  9 11  1  0
 10 28  1  0
 10 29  1  0
 10 30  1  0
 11 12  1  0
 11 31  1  0
 12 13  1  0
 12 32  1  0
 12 33  1  0
 13 14  1  1
 13 16  1  0
 14 15  1  0
 15 34  1  0
 15 35  1  0
 15 36  1  0
 16 17  2  3
 17 18  1  0
 17 37  1  0
 18 19  1  0
 19 20  1  0
 19 21  2  0
 20 38  1  0
 20 39  1  0
M  END
>  <i_m_ct_stereo_status>  (332) 
1

>  <s_m_source_file>  (332) 
/var/tmp/pbs.5076255.sched01/tmpk9_hntje/1089a46f3po.sdf

>  <i_m_source_file_index>  (332) 
53

>  <i_lp_mmshare_version>  (332) 
48012

>  <i_f3d_flags>  (332) 
0

>  <s_epik_input>  (332) 
W0NIM11PYzFbY0hdW2NIXVtjSF1jKGMxW0NAQF0yM1tDSDNdKS9DKFtDQEBdMyhbQ0gyXVtOSF0yKU9bQ0gzXSk9W0NIXS9PQyg9TylbTkgyXQ==

>  <s_epik_cmdline>  (332) 
J2VwaWtfcHl0aG9uJywgJy1waHQnLCAnMi4wJywgJy1waCcsICc3LjAnLCAnLXRuJywgJzgnLCAnLW1hJywgJzIwMCcsICctaW1hZScsICc8aW5maWxlLm1hZT4nLCAnLW9tYWUnLCAnPG91dGZpbGUubWFlPic=

>  <r_epik_Ionization_Penalty>  (332) 
0.824384

>  <r_epik_Ionization_Penalty_Charging>  (332) 
0

>  <r_epik_Ionization_Penalty_Neutral>  (332) 
0.824384

>  <r_epik_State_Penalty>  (332) 
0.857688

>  <r_epik_Charging_Adjusted_Penalty>  (332) 
0.857688

>  <i_epik_Tot_Q>  (332) 
0

>  <i_epik_Tot_abs_Q>  (332) 
0

>  <s_lp_Force_Field>  (332) 
OPLS3e

>  <r_lp_Energy>  (332) 
27.2071

>  <b_lp_Chiralities_Consistent>  (332) 
1

>  <s_lp_Variant>  (332) 
83:0-3

>  <s_i_glide_gridfile>  (332) 
pfpi4k_grid

>  <i_i_glide_lignum>  (332) 
53

>  <i_i_glide_rotatable_bonds>  (332) 
4

>  <r_i_docking_score>  (332) 
-3.87997

>  <r_i_glide_ligand_efficiency>  (332) 
-0.18476

>  <r_i_glide_ligand_efficiency_sa>  (332) 
-0.50974

>  <r_i_glide_ligand_efficiency_ln>  (332) 
-0.959315

>  <r_i_glide_gscore>  (332) 
-3.87997

>  <r_i_glide_lipo>  (332) 
-0.169913

>  <r_i_glide_hbond>  (332) 
-0.48

>  <r_i_glide_metal>  (332) 
-0

>  <r_i_glide_rewards>  (332) 
-1.42967

>  <r_i_glide_evdw>  (332) 
-15.3364

>  <r_i_glide_ecoul>  (332) 
-7.80017

>  <r_i_glide_erotb>  (332) 
0.216214

>  <r_i_glide_esite>  (332) 
-0.0797485

>  <r_i_glide_emodel>  (332) 
-24.2242

>  <r_i_glide_energy>  (332) 
-23.1366

>  <r_i_glide_einternal>  (332) 
9.98842

>  <r_i_glide_intrahb_reward>  (332) 
-0

>  <i_i_glide_confnum>  (332) 
2

>  <i_i_glide_posenum>  (332) 
3

>  <r_i_glide_eff_state_penalty>  (332) 
0

>  <ligand_id>  (332) 
83

>  <original_smiles>  (332) 
COc1cccc2c1C1(C)NCC1(OC)C2=COC(N)=O

>  <smiles>  (332) 
[H]C(OC(=O)N([H])[H])=C1c2c([H])c([H])c([H])c(OC([H])([H])[H])c2C2(C([H])([H])[H])N([H])C([H])([H])C12OC([H])([H])[H]

$$$$
83:2:1
     RDKit          3D

 39 41  0  0  1  0  0  0  0  0999 V2000
   -2.4189    2.6609   10.2143 C   0  0  0  0  0  0  0  0  0  0  0  0
   -1.3953    2.1253    9.3936 O   0  0  0  0  0  0  0  0  0  0  0  0
   -1.4710    2.2963    8.0373 C   0  0  0  0  0  0  0  0  0  0  0  0
   -2.5754    2.8669    7.3452 C   0  0  0  0  0  0  0  0  0  0  0  0
   -2.5882    2.9462    5.9455 C   0  0  0  0  0  0  0  0  0  0  0  0
   -1.5139    2.4472    5.1850 C   0  0  0  0  0  0  0  0  0  0  0  0
   -0.4333    1.8819    5.8644 C   0  0  0  0  0  0  0  0  0  0  0  0
   -0.3954    1.8261    7.2674 C   0  0  0  0  0  0  0  0  0  0  0  0
    0.8955    1.2173    7.7515 C   0  0  1  0  0  0  0  0  0  0  0  0
    1.6157    2.0646    8.8168 C   0  0  0  0  0  0  0  0  0  0  0  0
    0.7602   -0.1944    8.1152 N   0  0  0  0  0  0  0  0  0  0  0  0
    1.4071   -0.6722    6.8923 C   0  0  0  0  0  0  0  0  0  0  0  0
    1.6346    0.7846    6.4575 C   0  0  2  0  0  0  0  0  0  0  0  0
    2.9976    1.2192    6.3818 O   0  0  0  0  0  0  0  0  0  0  0  0
    3.2210    2.5740    5.9793 C   0  0  0  0  0  0  0  0  0  0  0  0
    0.7510    1.2525    5.3115 C   0  0  0  0  0  0  0  0  0  0  0  0
    1.0493    1.2013    4.0125 C   0  0  0  0  0  0  0  0  0  0  0  0
    2.2203    0.6622    3.5415 O   0  0  0  0  0  0  0  0  0  0  0  0
    2.2963    0.0715    2.3121 C   0  0  0  0  0  0  0  0  0  0  0  0
    1.0738   -0.0103    1.6880 N   0  0  0  0  0  0  0  0  0  0  0  0
    3.3732   -0.2777    1.8319 O   0  0  0  0  0  0  0  0  0  0  0  0
   -2.1871    2.4686   11.2636 H   0  0  0  0  0  0  0  0  0  0  0  0
   -3.3834    2.2036    9.9854 H   0  0  0  0  0  0  0  0  0  0  0  0
   -2.4822    3.7403   10.0765 H   0  0  0  0  0  0  0  0  0  0  0  0
   -3.4306    3.2100    7.8991 H   0  0  0  0  0  0  0  0  0  0  0  0
   -3.4357    3.3786    5.4490 H   0  0  0  0  0  0  0  0  0  0  0  0
   -1.5251    2.5040    4.1073 H   0  0  0  0  0  0  0  0  0  0  0  0
    1.7935    3.0826    8.4319 H   0  0  0  0  0  0  0  0  0  0  0  0
    2.6035    1.6428    9.0400 H   0  0  0  0  0  0  0  0  0  0  0  0
    1.0855    2.1026    9.7938 H   0  0  0  0  0  0  0  0  0  0  0  0
    1.3872   -0.3482    8.8942 H   0  0  0  0  0  0  0  0  0  0  0  0
    2.3087   -1.2345    7.0813 H   0  0  0  0  0  0  0  0  0  0  0  0
    0.7227   -1.2117    6.2424 H   0  0  0  0  0  0  0  0  0  0  0  0
    4.2511    2.8399    6.2369 H   0  0  0  0  0  0  0  0  0  0  0  0
    2.5284    3.2366    6.4825 H   0  0  0  0  0  0  0  0  0  0  0  0
    3.1656    2.6439    4.8816 H   0  0  0  0  0  0  0  0  0  0  0  0
    0.4827    1.7299    3.2705 H   0  0  0  0  0  0  0  0  0  0  0  0
    0.2741    0.4362    2.1063 H   0  0  0  0  0  0  0  0  0  0  0  0
    1.0463   -0.3315    0.7163 H   0  0  0  0  0  0  0  0  0  0  0  0
  1  2  1  0
  1 22  1  0
  1 23  1  0
  1 24  1  0
  2  3  1  0
  3  8  2  0
  3  4  1  0
  4  5  2  0
  4 25  1  0
  5  6  1  0
  5 26  1  0
  6  7  2  0
  6 27  1  0
  7 16  1  0
  7  8  1  0
  8  9  1  0
  9 13  1  0
  9 10  1  1
  9 11  1  0
 10 28  1  0
 10 29  1  0
 10 30  1  0
 11 12  1  0
 11 31  1  0
 12 13  1  0
 12 32  1  0
 12 33  1  0
 13 14  1  6
 13 16  1  0
 14 15  1  0
 15 34  1  0
 15 35  1  0
 15 36  1  0
 16 17  2  3
 17 18  1  0
 17 37  1  0
 18 19  1  0
 19 20  1  0
 19 21  2  0
 20 38  1  0
 20 39  1  0
M  END
>  <i_m_ct_stereo_status>  (333) 
1

>  <s_m_source_file>  (333) 
/var/tmp/pbs.5076255.sched01/tmpk9_hntje/1089a46f3po.sdf

>  <i_m_source_file_index>  (333) 
53

>  <i_lp_mmshare_version>  (333) 
48012

>  <i_f3d_flags>  (333) 
0

>  <s_epik_input>  (333) 
W0NIM11PYzFbY0hdW2NIXVtjSF1jKGMxW0NAQF0yM1tDSDNdKS9DKFtDQEBdMyhbQ0gyXVtOSF0yKU9bQ0gzXSk9W0NIXS9PQyg9TylbTkgyXQ==

>  <s_epik_cmdline>  (333) 
J2VwaWtfcHl0aG9uJywgJy1waHQnLCAnMi4wJywgJy1waCcsICc3LjAnLCAnLXRuJywgJzgnLCAnLW1hJywgJzIwMCcsICctaW1hZScsICc8aW5maWxlLm1hZT4nLCAnLW9tYWUnLCAnPG91dGZpbGUubWFlPic=

>  <r_epik_Ionization_Penalty>  (333) 
0.824384

>  <r_epik_Ionization_Penalty_Charging>  (333) 
0

>  <r_epik_Ionization_Penalty_Neutral>  (333) 
0.824384

>  <r_epik_State_Penalty>  (333) 
0.857688

>  <r_epik_Charging_Adjusted_Penalty>  (333) 
0.857688

>  <i_epik_Tot_Q>  (333) 
0

>  <i_epik_Tot_abs_Q>  (333) 
0

>  <s_lp_Force_Field>  (333) 
OPLS3e

>  <r_lp_Energy>  (333) 
27.2071

>  <b_lp_Chiralities_Consistent>  (333) 
1

>  <s_lp_Variant>  (333) 
83:0-3

>  <s_i_glide_gridfile>  (333) 
pfpi4k_grid

>  <i_i_glide_lignum>  (333) 
53

>  <i_i_glide_rotatable_bonds>  (333) 
4

>  <r_i_docking_score>  (333) 
-3.36555

>  <r_i_glide_ligand_efficiency>  (333) 
-0.160264

>  <r_i_glide_ligand_efficiency_sa>  (333) 
-0.442157

>  <r_i_glide_ligand_efficiency_ln>  (333) 
-0.832125

>  <r_i_glide_gscore>  (333) 
-3.36555

>  <r_i_glide_lipo>  (333) 
-0.222116

>  <r_i_glide_hbond>  (333) 
-0.16

>  <r_i_glide_metal>  (333) 
-0

>  <r_i_glide_rewards>  (333) 
-1.42967

>  <r_i_glide_evdw>  (333) 
-14.4766

>  <r_i_glide_ecoul>  (333) 
-6.17779

>  <r_i_glide_erotb>  (333) 
0.216214

>  <r_i_glide_esite>  (333) 
-0.119469

>  <r_i_glide_emodel>  (333) 
-20.0564

>  <r_i_glide_energy>  (333) 
-20.6544

>  <r_i_glide_einternal>  (333) 
10.2233

>  <r_i_glide_intrahb_reward>  (333) 
-0

>  <i_i_glide_confnum>  (333) 
4

>  <i_i_glide_posenum>  (333) 
35

>  <r_i_glide_eff_state_penalty>  (333) 
0

>  <ligand_id>  (333) 
83

>  <original_smiles>  (333) 
COc1cccc2c1C1(C)NCC1(OC)C2=COC(N)=O

>  <smiles>  (333) 
[H]C(OC(=O)N([H])[H])=C1c2c([H])c([H])c([H])c(OC([H])([H])[H])c2C2(C([H])([H])[H])N([H])C([H])([H])C12OC([H])([H])[H]

$$$$
83:2:2
     RDKit          3D

 39 41  0  0  1  0  0  0  0  0999 V2000
   -0.5282    1.6438   11.6672 C   0  0  0  0  0  0  0  0  0  0  0  0
    0.0611    1.6697   10.3703 O   0  0  0  0  0  0  0  0  0  0  0  0
   -0.7161    2.0834    9.3036 C   0  0  0  0  0  0  0  0  0  0  0  0
   -2.0427    2.5701    9.4297 C   0  0  0  0  0  0  0  0  0  0  0  0
   -2.7748    2.9476    8.2800 C   0  0  0  0  0  0  0  0  0  0  0  0
   -2.2260    2.8071    6.9926 C   0  0  0  0  0  0  0  0  0  0  0  0
   -0.9420    2.2810    6.8674 C   0  0  0  0  0  0  0  0  0  0  0  0
   -0.1850    1.9852    7.9975 C   0  0  0  0  0  0  0  0  0  0  0  0
    1.2025    1.5102    7.6088 C   0  0  1  0  0  0  0  0  0  0  0  0
    2.3307    2.2814    8.3269 C   0  0  0  0  0  0  0  0  0  0  0  0
    1.3533    0.0605    7.6640 N   0  0  0  0  0  0  0  0  0  0  0  0
    1.3093   -0.0883    6.2128 C   0  0  0  0  0  0  0  0  0  0  0  0
    1.1973    1.4364    6.0578 C   0  0  2  0  0  0  0  0  0  0  0  0
    2.3505    2.1366    5.5339 O   0  0  0  0  0  0  0  0  0  0  0  0
    2.9176    1.7528    4.2790 C   0  0  0  0  0  0  0  0  0  0  0  0
   -0.1858    1.9862    5.6341 C   0  0  0  0  0  0  0  0  0  0  0  0
   -0.6075    2.2424    4.3882 C   0  0  0  0  0  0  0  0  0  0  0  0
    0.1794    2.0695    3.3002 O   0  0  0  0  0  0  0  0  0  0  0  0
   -0.2486    1.3303    2.2650 C   0  0  0  0  0  0  0  0  0  0  0  0
    0.7953    0.9484    1.4535 N   0  0  0  0  0  0  0  0  0  0  0  0
   -1.3745    0.9557    2.1073 O   0  0  0  0  0  0  0  0  0  0  0  0
    0.1976    1.2878   12.4064 H   0  0  0  0  0  0  0  0  0  0  0  0
   -1.3569    0.9477   11.6687 H   0  0  0  0  0  0  0  0  0  0  0  0
   -0.8740    2.6321   11.9894 H   0  0  0  0  0  0  0  0  0  0  0  0
   -2.5197    2.6693   10.3901 H   0  0  0  0  0  0  0  0  0  0  0  0
   -3.7745    3.3349    8.3947 H   0  0  0  0  0  0  0  0  0  0  0  0
   -2.7903    3.0759    6.1136 H   0  0  0  0  0  0  0  0  0  0  0  0
    2.2376    3.3448    8.1153 H   0  0  0  0  0  0  0  0  0  0  0  0
    3.3216    1.9850    7.9732 H   0  0  0  0  0  0  0  0  0  0  0  0
    2.3302    2.1769    9.4143 H   0  0  0  0  0  0  0  0  0  0  0  0
    2.2748   -0.1671    8.0320 H   0  0  0  0  0  0  0  0  0  0  0  0
    2.2026   -0.5586    5.8119 H   0  0  0  0  0  0  0  0  0  0  0  0
    0.4043   -0.6129    5.9164 H   0  0  0  0  0  0  0  0  0  0  0  0
    3.5799    2.5717    3.9666 H   0  0  0  0  0  0  0  0  0  0  0  0
    2.1888    1.6143    3.5106 H   0  0  0  0  0  0  0  0  0  0  0  0
    3.4937    0.8324    4.3780 H   0  0  0  0  0  0  0  0  0  0  0  0
   -1.6010    2.6433    4.1723 H   0  0  0  0  0  0  0  0  0  0  0  0
    1.6823    1.2900    1.7039 H   0  0  0  0  0  0  0  0  0  0  0  0
    0.5839    0.3990    0.6143 H   0  0  0  0  0  0  0  0  0  0  0  0
  1  2  1  0
  1 22  1  0
  1 23  1  0
  1 24  1  0
  2  3  1  0
  3  8  2  0
  3  4  1  0
  4  5  2  0
  4 25  1  0
  5  6  1  0
  5 26  1  0
  6  7  2  0
  6 27  1  0
  7 16  1  0
  7  8  1  0
  8  9  1  0
  9 13  1  0
  9 10  1  6
  9 11  1  0
 10 28  1  0
 10 29  1  0
 10 30  1  0
 11 12  1  0
 11 31  1  0
 12 13  1  0
 12 32  1  0
 12 33  1  0
 13 14  1  6
 13 16  1  0
 14 15  1  0
 15 34  1  0
 15 35  1  0
 15 36  1  0
 16 17  2  3
 17 18  1  0
 17 37  1  0
 18 19  1  0
 19 20  1  0
 19 21  2  0
 20 38  1  0
 20 39  1  0
M  END
>  <i_m_ct_stereo_status>  (334) 
1

>  <s_m_source_file>  (334) 
/var/tmp/pbs.5076255.sched01/tmpk9_hntje/1089a46f3po.sdf

>  <i_m_source_file_index>  (334) 
53

>  <i_lp_mmshare_version>  (334) 
48012

>  <i_f3d_flags>  (334) 
0

>  <s_epik_input>  (334) 
W0NIM11PYzFbY0hdW2NIXVtjSF1jKGMxW0NAQF0yM1tDSDNdKS9DKFtDQEBdMyhbQ0gyXVtOSF0yKU9bQ0gzXSk9W0NIXS9PQyg9TylbTkgyXQ==

>  <s_epik_cmdline>  (334) 
J2VwaWtfcHl0aG9uJywgJy1waHQnLCAnMi4wJywgJy1waCcsICc3LjAnLCAnLXRuJywgJzgnLCAnLW1hJywgJzIwMCcsICctaW1hZScsICc8aW5maWxlLm1hZT4nLCAnLW9tYWUnLCAnPG91dGZpbGUubWFlPic=

>  <r_epik_Ionization_Penalty>  (334) 
0.824384

>  <r_epik_Ionization_Penalty_Charging>  (334) 
0

>  <r_epik_Ionization_Penalty_Neutral>  (334) 
0.824384

>  <r_epik_State_Penalty>  (334) 
0.857688

>  <r_epik_Charging_Adjusted_Penalty>  (334) 
0.857688

>  <i_epik_Tot_Q>  (334) 
0

>  <i_epik_Tot_abs_Q>  (334) 
0

>  <s_lp_Force_Field>  (334) 
OPLS3e

>  <r_lp_Energy>  (334) 
27.2071

>  <b_lp_Chiralities_Consistent>  (334) 
1

>  <s_lp_Variant>  (334) 
83:0-3

>  <s_i_glide_gridfile>  (334) 
pfpi4k_grid

>  <i_i_glide_lignum>  (334) 
53

>  <i_i_glide_rotatable_bonds>  (334) 
4

>  <r_i_docking_score>  (334) 
-3.07827

>  <r_i_glide_ligand_efficiency>  (334) 
-0.146584

>  <r_i_glide_ligand_efficiency_sa>  (334) 
-0.404415

>  <r_i_glide_ligand_efficiency_ln>  (334) 
-0.761097

>  <r_i_glide_gscore>  (334) 
-3.07827

>  <r_i_glide_lipo>  (334) 
-0.201507

>  <r_i_glide_hbond>  (334) 
-0.228177

>  <r_i_glide_metal>  (334) 
-0

>  <r_i_glide_rewards>  (334) 
-1.42967

>  <r_i_glide_evdw>  (334) 
-15.727

>  <r_i_glide_ecoul>  (334) 
-3.27873

>  <r_i_glide_erotb>  (334) 
0.216214

>  <r_i_glide_esite>  (334) 
-0.156967

>  <r_i_glide_emodel>  (334) 
-20.184

>  <r_i_glide_energy>  (334) 
-19.0057

>  <r_i_glide_einternal>  (334) 
3.85894

>  <r_i_glide_intrahb_reward>  (334) 
-0

>  <i_i_glide_confnum>  (334) 
4

>  <i_i_glide_posenum>  (334) 
40

>  <r_i_glide_eff_state_penalty>  (334) 
0

>  <ligand_id>  (334) 
83

>  <original_smiles>  (334) 
COc1cccc2c1C1(C)NCC1(OC)C2=COC(N)=O

>  <smiles>  (334) 
[H]C(OC(=O)N([H])[H])=C1c2c([H])c([H])c([H])c(OC([H])([H])[H])c2C2(C([H])([H])[H])N([H])C([H])([H])C12OC([H])([H])[H]

$$$$
83:3:0
     RDKit          3D

 39 41  0  0  1  0  0  0  0  0999 V2000
    2.6808   -3.6262    5.9770 C   0  0  0  0  0  0  0  0  0  0  0  0
    2.6495   -2.3467    5.3586 O   0  0  0  0  0  0  0  0  0  0  0  0
    1.4306   -1.7314    5.1604 C   0  0  0  0  0  0  0  0  0  0  0  0
    0.1862   -2.2955    5.5386 C   0  0  0  0  0  0  0  0  0  0  0  0
   -1.0230   -1.6144    5.2780 C   0  0  0  0  0  0  0  0  0  0  0  0
   -1.0291   -0.3714    4.6099 C   0  0  0  0  0  0  0  0  0  0  0  0
    0.2039    0.1927    4.2289 C   0  0  0  0  0  0  0  0  0  0  0  0
    1.4034   -0.4685    4.5268 C   0  0  0  0  0  0  0  0  0  0  0  0
    2.5971    0.3277    4.0433 C   0  0  1  0  0  0  0  0  0  0  0  0
    3.7411    0.4713    5.0524 C   0  0  0  0  0  0  0  0  0  0  0  0
    3.0401   -0.1048    2.7205 N   0  0  0  0  0  0  0  0  0  0  0  0
    2.5836    1.1076    2.0523 C   0  0  0  0  0  0  0  0  0  0  0  0
    1.9950    1.5776    3.3842 C   0  0  2  0  0  0  0  0  0  0  0  0
    2.5477    2.8368    3.7755 O   0  0  0  0  0  0  0  0  0  0  0  0
    2.1503    3.3585    5.0374 C   0  0  0  0  0  0  0  0  0  0  0  0
    0.4813    1.4401    3.5037 C   0  0  0  0  0  0  0  0  0  0  0  0
   -0.3911    2.3510    3.0298 C   0  0  0  0  0  0  0  0  0  0  0  0
   -1.7504    2.2119    3.0815 O   0  0  0  0  0  0  0  0  0  0  0  0
   -2.5103    3.3270    3.0377 C   0  0  0  0  0  0  0  0  0  0  0  0
   -3.7730    2.9452    2.6636 N   0  0  0  0  0  0  0  0  0  0  0  0
   -2.1562    4.4831    3.2791 O   0  0  0  0  0  0  0  0  0  0  0  0
    3.7153   -3.9594    6.0631 H   0  0  0  0  0  0  0  0  0  0  0  0
    2.1428   -4.3675    5.3863 H   0  0  0  0  0  0  0  0  0  0  0  0
    2.2621   -3.5886    6.9822 H   0  0  0  0  0  0  0  0  0  0  0  0
    0.1379   -3.2552    6.0264 H   0  0  0  0  0  0  0  0  0  0  0  0
   -1.9554   -2.0630    5.5791 H   0  0  0  0  0  0  0  0  0  0  0  0
   -1.9554    0.1356    4.3996 H   0  0  0  0  0  0  0  0  0  0  0  0
    3.3584    0.7742    6.0258 H   0  0  0  0  0  0  0  0  0  0  0  0
    4.4536    1.2357    4.7439 H   0  0  0  0  0  0  0  0  0  0  0  0
    4.2959   -0.4493    5.2226 H   0  0  0  0  0  0  0  0  0  0  0  0
    4.0498   -0.1600    2.7034 H   0  0  0  0  0  0  0  0  0  0  0  0
    3.4086    1.7154    1.6957 H   0  0  0  0  0  0  0  0  0  0  0  0
    1.8531    0.9065    1.2644 H   0  0  0  0  0  0  0  0  0  0  0  0
    2.7785    4.2182    5.2676 H   0  0  0  0  0  0  0  0  0  0  0  0
    2.2657    2.6503    5.8538 H   0  0  0  0  0  0  0  0  0  0  0  0
    1.1152    3.6954    5.0293 H   0  0  0  0  0  0  0  0  0  0  0  0
   -0.0673    3.2487    2.5185 H   0  0  0  0  0  0  0  0  0  0  0  0
   -3.9183    1.9551    2.4912 H   0  0  0  0  0  0  0  0  0  0  0  0
   -4.4735    3.6575    2.5342 H   0  0  0  0  0  0  0  0  0  0  0  0
  1  2  1  0
  1 22  1  0
  1 23  1  0
  1 24  1  0
  2  3  1  0
  3  8  2  0
  3  4  1  0
  4  5  2  0
  4 25  1  0
  5  6  1  0
  5 26  1  0
  6  7  2  0
  6 27  1  0
  7 16  1  0
  7  8  1  0
  8  9  1  0
  9 13  1  0
  9 10  1  1
  9 11  1  0
 10 28  1  0
 10 29  1  0
 10 30  1  0
 11 12  1  0
 11 31  1  0
 12 13  1  0
 12 32  1  0
 12 33  1  0
 13 14  1  1
 13 16  1  0
 14 15  1  0
 15 34  1  0
 15 35  1  0
 15 36  1  0
 16 17  2  3
 17 18  1  0
 17 37  1  0
 18 19  1  0
 19 20  1  0
 19 21  2  0
 20 38  1  0
 20 39  1  0
M  END
>  <i_m_ct_stereo_status>  (335) 
1

>  <s_m_source_file>  (335) 
/var/tmp/pbs.5076255.sched01/tmpk9_hntje/1089a46f3po.sdf

>  <i_m_source_file_index>  (335) 
54

>  <i_lp_mmshare_version>  (335) 
48012

>  <i_f3d_flags>  (335) 
0

>  <s_epik_input>  (335) 
W0NIM11PYzFbY0hdW2NIXVtjSF1jKGMxW0NAQF0yM1tDSDNdKS9DKFtDQEBdMyhbQ0gyXVtOSF0yKU9bQ0gzXSk9W0NIXS9PQyg9TylbTkgyXQ==

>  <s_epik_cmdline>  (335) 
J2VwaWtfcHl0aG9uJywgJy1waHQnLCAnMi4wJywgJy1waCcsICc3LjAnLCAnLXRuJywgJzgnLCAnLW1hJywgJzIwMCcsICctaW1hZScsICc8aW5maWxlLm1hZT4nLCAnLW9tYWUnLCAnPG91dGZpbGUubWFlPic=

>  <r_epik_Ionization_Penalty>  (335) 
0.824384

>  <r_epik_Ionization_Penalty_Charging>  (335) 
0

>  <r_epik_Ionization_Penalty_Neutral>  (335) 
0.824384

>  <r_epik_State_Penalty>  (335) 
0.857688

>  <r_epik_Charging_Adjusted_Penalty>  (335) 
0.857688

>  <i_epik_Tot_Q>  (335) 
0

>  <i_epik_Tot_abs_Q>  (335) 
0

>  <s_lp_Force_Field>  (335) 
OPLS3e

>  <r_lp_Energy>  (335) 
25.5358

>  <b_lp_Chiralities_Consistent>  (335) 
1

>  <s_lp_Variant>  (335) 
83:0-4

>  <s_i_glide_gridfile>  (335) 
pfpi4k_grid

>  <i_i_glide_lignum>  (335) 
54

>  <i_i_glide_rotatable_bonds>  (335) 
4

>  <r_i_docking_score>  (335) 
-3.4342

>  <r_i_glide_ligand_efficiency>  (335) 
-0.163533

>  <r_i_glide_ligand_efficiency_sa>  (335) 
-0.451176

>  <r_i_glide_ligand_efficiency_ln>  (335) 
-0.849099

>  <r_i_glide_gscore>  (335) 
-3.4342

>  <r_i_glide_lipo>  (335) 
-0.00885737

>  <r_i_glide_hbond>  (335) 
-0.48

>  <r_i_glide_metal>  (335) 
-0

>  <r_i_glide_rewards>  (335) 
-1.42967

>  <r_i_glide_evdw>  (335) 
-17.2639

>  <r_i_glide_ecoul>  (335) 
-5.29545

>  <r_i_glide_erotb>  (335) 
0.216214

>  <r_i_glide_esite>  (335) 
-0.0743659

>  <r_i_glide_emodel>  (335) 
-26.3494

>  <r_i_glide_energy>  (335) 
-22.5594

>  <r_i_glide_einternal>  (335) 
3.84992

>  <r_i_glide_intrahb_reward>  (335) 
-0

>  <i_i_glide_confnum>  (335) 
2

>  <i_i_glide_posenum>  (335) 
2

>  <r_i_glide_eff_state_penalty>  (335) 
0

>  <ligand_id>  (335) 
83

>  <original_smiles>  (335) 
COc1cccc2c1C1(C)NCC1(OC)C2=COC(N)=O

>  <smiles>  (335) 
[H]C(OC(=O)N([H])[H])=C1c2c([H])c([H])c([H])c(OC([H])([H])[H])c2C2(C([H])([H])[H])N([H])C([H])([H])C12OC([H])([H])[H]

$$$$
83:3:1
     RDKit          3D

 39 41  0  0  1  0  0  0  0  0999 V2000
    2.7521   -1.9468    6.3498 C   0  0  0  0  0  0  0  0  0  0  0  0
    2.5133   -0.6621    5.7989 O   0  0  0  0  0  0  0  0  0  0  0  0
    1.2313   -0.3441    5.3912 C   0  0  0  0  0  0  0  0  0  0  0  0
    0.1289   -1.2300    5.4837 C   0  0  0  0  0  0  0  0  0  0  0  0
   -1.1498   -0.8430    5.0225 C   0  0  0  0  0  0  0  0  0  0  0  0
   -1.3541    0.4257    4.4387 C   0  0  0  0  0  0  0  0  0  0  0  0
   -0.2588    1.3004    4.3232 C   0  0  0  0  0  0  0  0  0  0  0  0
    0.9977    0.9281    4.8247 C   0  0  0  0  0  0  0  0  0  0  0  0
    2.0050    2.0397    4.6219 C   0  0  1  0  0  0  0  0  0  0  0  0
    2.8793    2.3529    5.8489 C   0  0  0  0  0  0  0  0  0  0  0  0
    2.7714    1.8569    3.3877 N   0  0  0  0  0  0  0  0  0  0  0  0
    2.1577    2.9862    2.7017 C   0  0  0  0  0  0  0  0  0  0  0  0
    1.2371    3.1629    3.9095 C   0  0  2  0  0  0  0  0  0  0  0  0
    1.3606    4.4740    4.4674 O   0  0  0  0  0  0  0  0  0  0  0  0
    0.6257    4.7546    5.6523 C   0  0  0  0  0  0  0  0  0  0  0  0
   -0.1868    2.6412    3.7228 C   0  0  0  0  0  0  0  0  0  0  0  0
   -1.1703    3.3436    3.1343 C   0  0  0  0  0  0  0  0  0  0  0  0
   -2.4343    2.8656    2.9108 O   0  0  0  0  0  0  0  0  0  0  0  0
   -3.3745    3.7315    2.4831 C   0  0  0  0  0  0  0  0  0  0  0  0
   -4.4371    3.0097    2.0237 N   0  0  0  0  0  0  0  0  0  0  0  0
   -3.2889    4.9613    2.4809 O   0  0  0  0  0  0  0  0  0  0  0  0
    3.8051   -2.0264    6.6244 H   0  0  0  0  0  0  0  0  0  0  0  0
    2.5377   -2.7369    5.6298 H   0  0  0  0  0  0  0  0  0  0  0  0
    2.1633   -2.1054    7.2517 H   0  0  0  0  0  0  0  0  0  0  0  0
    0.2372   -2.2208    5.9075 H   0  0  0  0  0  0  0  0  0  0  0  0
   -1.9810   -1.5299    5.1073 H   0  0  0  0  0  0  0  0  0  0  0  0
   -2.3289    0.7228    4.0894 H   0  0  0  0  0  0  0  0  0  0  0  0
    2.2581    2.4520    6.7330 H   0  0  0  0  0  0  0  0  0  0  0  0
    3.4078    3.2969    5.7210 H   0  0  0  0  0  0  0  0  0  0  0  0
    3.6095    1.5829    6.0832 H   0  0  0  0  0  0  0  0  0  0  0  0
    3.7463    2.0605    3.5534 H   0  0  0  0  0  0  0  0  0  0  0  0
    2.8588    3.8073    2.5547 H   0  0  0  0  0  0  0  0  0  0  0  0
    1.6611    2.6889    1.7801 H   0  0  0  0  0  0  0  0  0  0  0  0
    0.9621    5.7124    6.0436 H   0  0  0  0  0  0  0  0  0  0  0  0
    0.7717    4.0269    6.4444 H   0  0  0  0  0  0  0  0  0  0  0  0
   -0.4442    4.8228    5.4628 H   0  0  0  0  0  0  0  0  0  0  0  0
   -1.0024    4.3399    2.7398 H   0  0  0  0  0  0  0  0  0  0  0  0
   -4.3511    2.0010    2.0820 H   0  0  0  0  0  0  0  0  0  0  0  0
   -5.2391    3.4946    1.6540 H   0  0  0  0  0  0  0  0  0  0  0  0
  1  2  1  0
  1 22  1  0
  1 23  1  0
  1 24  1  0
  2  3  1  0
  3  8  2  0
  3  4  1  0
  4  5  2  0
  4 25  1  0
  5  6  1  0
  5 26  1  0
  6  7  2  0
  6 27  1  0
  7 16  1  0
  7  8  1  0
  8  9  1  0
  9 13  1  0
  9 10  1  1
  9 11  1  0
 10 28  1  0
 10 29  1  0
 10 30  1  0
 11 12  1  0
 11 31  1  0
 12 13  1  0
 12 32  1  0
 12 33  1  0
 13 14  1  1
 13 16  1  0
 14 15  1  0
 15 34  1  0
 15 35  1  0
 15 36  1  0
 16 17  2  3
 17 18  1  0
 17 37  1  0
 18 19  1  0
 19 20  1  0
 19 21  2  0
 20 38  1  0
 20 39  1  0
M  END
>  <i_m_ct_stereo_status>  (336) 
1

>  <s_m_source_file>  (336) 
/var/tmp/pbs.5076255.sched01/tmpk9_hntje/1089a46f3po.sdf

>  <i_m_source_file_index>  (336) 
54

>  <i_lp_mmshare_version>  (336) 
48012

>  <i_f3d_flags>  (336) 
0

>  <s_epik_input>  (336) 
W0NIM11PYzFbY0hdW2NIXVtjSF1jKGMxW0NAQF0yM1tDSDNdKS9DKFtDQEBdMyhbQ0gyXVtOSF0yKU9bQ0gzXSk9W0NIXS9PQyg9TylbTkgyXQ==

>  <s_epik_cmdline>  (336) 
J2VwaWtfcHl0aG9uJywgJy1waHQnLCAnMi4wJywgJy1waCcsICc3LjAnLCAnLXRuJywgJzgnLCAnLW1hJywgJzIwMCcsICctaW1hZScsICc8aW5maWxlLm1hZT4nLCAnLW9tYWUnLCAnPG91dGZpbGUubWFlPic=

>  <r_epik_Ionization_Penalty>  (336) 
0.824384

>  <r_epik_Ionization_Penalty_Charging>  (336) 
0

>  <r_epik_Ionization_Penalty_Neutral>  (336) 
0.824384

>  <r_epik_State_Penalty>  (336) 
0.857688

>  <r_epik_Charging_Adjusted_Penalty>  (336) 
0.857688

>  <i_epik_Tot_Q>  (336) 
0

>  <i_epik_Tot_abs_Q>  (336) 
0

>  <s_lp_Force_Field>  (336) 
OPLS3e

>  <r_lp_Energy>  (336) 
25.5358

>  <b_lp_Chiralities_Consistent>  (336) 
1

>  <s_lp_Variant>  (336) 
83:0-4

>  <s_i_glide_gridfile>  (336) 
pfpi4k_grid

>  <i_i_glide_lignum>  (336) 
54

>  <i_i_glide_rotatable_bonds>  (336) 
4

>  <r_i_docking_score>  (336) 
-3.3691

>  <r_i_glide_ligand_efficiency>  (336) 
-0.160434

>  <r_i_glide_ligand_efficiency_sa>  (336) 
-0.442624

>  <r_i_glide_ligand_efficiency_ln>  (336) 
-0.833004

>  <r_i_glide_gscore>  (336) 
-3.3691

>  <r_i_glide_lipo>  (336) 
0

>  <r_i_glide_hbond>  (336) 
-0.454087

>  <r_i_glide_metal>  (336) 
-0

>  <r_i_glide_rewards>  (336) 
-1.48696

>  <r_i_glide_evdw>  (336) 
-14.5947

>  <r_i_glide_ecoul>  (336) 
-6.0969

>  <r_i_glide_erotb>  (336) 
0.216214

>  <r_i_glide_esite>  (336) 
0

>  <r_i_glide_emodel>  (336) 
-24.8187

>  <r_i_glide_energy>  (336) 
-20.6916

>  <r_i_glide_einternal>  (336) 
2.90633

>  <r_i_glide_intrahb_reward>  (336) 
-0

>  <i_i_glide_confnum>  (336) 
4

>  <i_i_glide_posenum>  (336) 
12

>  <r_i_glide_eff_state_penalty>  (336) 
0

>  <ligand_id>  (336) 
83

>  <original_smiles>  (336) 
COc1cccc2c1C1(C)NCC1(OC)C2=COC(N)=O

>  <smiles>  (336) 
[H]C(OC(=O)N([H])[H])=C1c2c([H])c([H])c([H])c(OC([H])([H])[H])c2C2(C([H])([H])[H])N([H])C([H])([H])C12OC([H])([H])[H]

$$$$
83:3:2
     RDKit          3D

 39 41  0  0  1  0  0  0  0  0999 V2000
    0.1874    7.6992    5.7670 C   0  0  0  0  0  0  0  0  0  0  0  0
   -0.1696    6.3488    5.4951 O   0  0  0  0  0  0  0  0  0  0  0  0
    0.6827    5.5835    4.7274 C   0  0  0  0  0  0  0  0  0  0  0  0
    1.8709    6.0743    4.1282 C   0  0  0  0  0  0  0  0  0  0  0  0
    2.6761    5.2363    3.3286 C   0  0  0  0  0  0  0  0  0  0  0  0
    2.3123    3.8955    3.0938 C   0  0  0  0  0  0  0  0  0  0  0  0
    1.1312    3.3996    3.6807 C   0  0  0  0  0  0  0  0  0  0  0  0
    0.3526    4.2252    4.4976 C   0  0  0  0  0  0  0  0  0  0  0  0
   -0.8540    3.4808    5.0269 C   0  0  1  0  0  0  0  0  0  0  0  0
   -1.1063    3.6460    6.5274 C   0  0  0  0  0  0  0  0  0  0  0  0
   -2.0465    3.7025    4.2129 N   0  0  0  0  0  0  0  0  0  0  0  0
   -2.0567    2.3480    3.6737 C   0  0  0  0  0  0  0  0  0  0  0  0
   -0.7501    2.0764    4.4169 C   0  0  2  0  0  0  0  0  0  0  0  0
   -0.8899    0.9738    5.3192 O   0  0  0  0  0  0  0  0  0  0  0  0
    0.2269    0.6638    6.1459 C   0  0  0  0  0  0  0  0  0  0  0  0
    0.4994    2.0778    3.5456 C   0  0  0  0  0  0  0  0  0  0  0  0
    0.9247    1.0205    2.8311 C   0  0  0  0  0  0  0  0  0  0  0  0
    2.0726    1.0246    2.0858 O   0  0  0  0  0  0  0  0  0  0  0  0
    2.6560   -0.1554    1.7920 C   0  0  0  0  0  0  0  0  0  0  0  0
    3.8162    0.1001    1.1032 N   0  0  0  0  0  0  0  0  0  0  0  0
    2.2478   -1.2770    2.1017 O   0  0  0  0  0  0  0  0  0  0  0  0
   -0.5800    8.1530    6.3942 H   0  0  0  0  0  0  0  0  0  0  0  0
    0.2541    8.2876    4.8520 H   0  0  0  0  0  0  0  0  0  0  0  0
    1.1318    7.7569    6.3072 H   0  0  0  0  0  0  0  0  0  0  0  0
    2.1769    7.0999    4.2575 H   0  0  0  0  0  0  0  0  0  0  0  0
    3.5748    5.6302    2.8813 H   0  0  0  0  0  0  0  0  0  0  0  0
    2.9274    3.2740    2.4662 H   0  0  0  0  0  0  0  0  0  0  0  0
   -0.1888    3.4929    7.0956 H   0  0  0  0  0  0  0  0  0  0  0  0
   -1.8319    2.9213    6.8964 H   0  0  0  0  0  0  0  0  0  0  0  0
   -1.4559    4.6356    6.8100 H   0  0  0  0  0  0  0  0  0  0  0  0
   -2.8455    3.8262    4.8194 H   0  0  0  0  0  0  0  0  0  0  0  0
   -2.9031    1.7757    4.0468 H   0  0  0  0  0  0  0  0  0  0  0  0
   -1.9845    2.3178    2.5832 H   0  0  0  0  0  0  0  0  0  0  0  0
   -0.0845   -0.0690    6.8905 H   0  0  0  0  0  0  0  0  0  0  0  0
    0.6178    1.5215    6.6882 H   0  0  0  0  0  0  0  0  0  0  0  0
    1.0449    0.2278    5.5744 H   0  0  0  0  0  0  0  0  0  0  0  0
    0.3864    0.0796    2.8133 H   0  0  0  0  0  0  0  0  0  0  0  0
    4.0511    1.0623    0.9072 H   0  0  0  0  0  0  0  0  0  0  0  0
    4.3674   -0.6862    0.8067 H   0  0  0  0  0  0  0  0  0  0  0  0
  1  2  1  0
  1 22  1  0
  1 23  1  0
  1 24  1  0
  2  3  1  0
  3  8  2  0
  3  4  1  0
  4  5  2  0
  4 25  1  0
  5  6  1  0
  5 26  1  0
  6  7  2  0
  6 27  1  0
  7 16  1  0
  7  8  1  0
  8  9  1  0
  9 13  1  0
  9 10  1  1
  9 11  1  0
 10 28  1  0
 10 29  1  0
 10 30  1  0
 11 12  1  0
 11 31  1  0
 12 13  1  0
 12 32  1  0
 12 33  1  0
 13 14  1  1
 13 16  1  0
 14 15  1  0
 15 34  1  0
 15 35  1  0
 15 36  1  0
 16 17  2  3
 17 18  1  0
 17 37  1  0
 18 19  1  0
 19 20  1  0
 19 21  2  0
 20 38  1  0
 20 39  1  0
M  END
>  <i_m_ct_stereo_status>  (337) 
1

>  <s_m_source_file>  (337) 
/var/tmp/pbs.5076255.sched01/tmpk9_hntje/1089a46f3po.sdf

>  <i_m_source_file_index>  (337) 
54

>  <i_lp_mmshare_version>  (337) 
48012

>  <i_f3d_flags>  (337) 
0

>  <s_epik_input>  (337) 
W0NIM11PYzFbY0hdW2NIXVtjSF1jKGMxW0NAQF0yM1tDSDNdKS9DKFtDQEBdMyhbQ0gyXVtOSF0yKU9bQ0gzXSk9W0NIXS9PQyg9TylbTkgyXQ==

>  <s_epik_cmdline>  (337) 
J2VwaWtfcHl0aG9uJywgJy1waHQnLCAnMi4wJywgJy1waCcsICc3LjAnLCAnLXRuJywgJzgnLCAnLW1hJywgJzIwMCcsICctaW1hZScsICc8aW5maWxlLm1hZT4nLCAnLW9tYWUnLCAnPG91dGZpbGUubWFlPic=

>  <r_epik_Ionization_Penalty>  (337) 
0.824384

>  <r_epik_Ionization_Penalty_Charging>  (337) 
0

>  <r_epik_Ionization_Penalty_Neutral>  (337) 
0.824384

>  <r_epik_State_Penalty>  (337) 
0.857688

>  <r_epik_Charging_Adjusted_Penalty>  (337) 
0.857688

>  <i_epik_Tot_Q>  (337) 
0

>  <i_epik_Tot_abs_Q>  (337) 
0

>  <s_lp_Force_Field>  (337) 
OPLS3e

>  <r_lp_Energy>  (337) 
25.5358

>  <b_lp_Chiralities_Consistent>  (337) 
1

>  <s_lp_Variant>  (337) 
83:0-4

>  <s_i_glide_gridfile>  (337) 
pfpi4k_grid

>  <i_i_glide_lignum>  (337) 
54

>  <i_i_glide_rotatable_bonds>  (337) 
4

>  <r_i_docking_score>  (337) 
-2.48925

>  <r_i_glide_ligand_efficiency>  (337) 
-0.118536

>  <r_i_glide_ligand_efficiency_sa>  (337) 
-0.327031

>  <r_i_glide_ligand_efficiency_ln>  (337) 
-0.615462

>  <r_i_glide_gscore>  (337) 
-2.48925

>  <r_i_glide_lipo>  (337) 
-0.0216355

>  <r_i_glide_hbond>  (337) 
-0.0394479

>  <r_i_glide_metal>  (337) 
-0

>  <r_i_glide_rewards>  (337) 
-1.42967

>  <r_i_glide_evdw>  (337) 
-20.9512

>  <r_i_glide_ecoul>  (337) 
-0.882708

>  <r_i_glide_erotb>  (337) 
0.216214

>  <r_i_glide_esite>  (337) 
-0.0347402

>  <r_i_glide_emodel>  (337) 
-24.6968

>  <r_i_glide_energy>  (337) 
-21.8339

>  <r_i_glide_einternal>  (337) 
2.63496

>  <r_i_glide_intrahb_reward>  (337) 
-0

>  <i_i_glide_confnum>  (337) 
1

>  <i_i_glide_posenum>  (337) 
29

>  <r_i_glide_eff_state_penalty>  (337) 
0

>  <ligand_id>  (337) 
83

>  <original_smiles>  (337) 
COc1cccc2c1C1(C)NCC1(OC)C2=COC(N)=O

>  <smiles>  (337) 
[H]C(OC(=O)N([H])[H])=C1c2c([H])c([H])c([H])c(OC([H])([H])[H])c2C2(C([H])([H])[H])N([H])C([H])([H])C12OC([H])([H])[H]

$$$$
84:0:0
     RDKit          3D

 56 60  0  0  1  0  0  0  0  0999 V2000
   -0.5155   -6.5362    5.3180 C   0  0  0  0  0  0  0  0  0  0  0  0
   -0.0682   -6.9708    3.9345 C   0  0  0  0  0  0  0  0  0  0  0  0
    1.1297   -6.6598    3.3748 C   0  0  0  0  0  0  0  0  0  0  0  0
    2.3655   -6.4289    4.2207 C   0  0  2  0  0  0  0  0  0  0  0  0
    3.2941   -5.2737    3.7381 C   0  0  0  0  0  0  0  0  0  0  0  0
    2.6798   -4.3918    2.6422 C   0  0  2  0  0  0  0  0  0  0  0  0
    2.6936   -5.0261    1.2806 C   0  0  0  0  0  0  0  0  0  0  0  0
    2.9320   -4.1032    0.3336 C   0  0  0  0  0  0  0  0  0  0  0  0
    3.0857   -2.7026    0.9100 C   0  0  2  0  0  0  0  0  0  0  0  0
    4.3186   -1.8896    0.5076 C   0  0  1  0  0  0  0  0  0  0  0  0
    4.1121   -0.3918    0.7866 C   0  0  0  0  0  0  0  0  0  0  0  0
    5.3700   -2.4131    1.4468 C   0  0  0  0  0  0  0  0  0  0  0  0
    6.5715   -2.2333    1.2820 O   0  0  0  0  0  0  0  0  0  0  0  0
    4.7639   -3.0484    2.4567 O   0  0  0  0  0  0  0  0  0  0  0  0
    3.3378   -3.0127    2.4031 C   0  0  2  0  0  0  0  0  0  0  0  0
    2.5099   -6.5346    1.0947 C   0  0  1  0  0  0  0  0  0  0  0  0
    3.8743   -7.2394    0.9794 C   0  0  0  0  0  0  0  0  0  0  0  0
    1.4401   -7.2352    2.0094 C   0  0  1  0  0  0  0  0  0  0  0  0
    1.5295   -8.7372    2.3351 C   0  0  2  0  0  0  0  0  0  0  0  0
    0.0807   -9.2127    2.7374 C   0  0  0  0  0  0  0  0  0  0  0  0
   -0.8673   -8.0942    3.2621 C   0  0  1  0  0  0  0  0  0  0  0  0
   -1.8909   -8.6448    4.0788 O   0  0  0  0  0  0  0  0  0  0  0  0
    2.5963   -9.0259    3.4599 C   0  0  1  0  0  0  0  0  0  0  0  0
    3.7368   -9.6154    2.8624 O   0  0  0  0  0  0  0  0  0  0  0  0
    2.9958   -7.8487    4.4557 C   0  0  1  0  0  0  0  0  0  0  0  0
    4.4780   -7.8188    4.8873 C   0  0  0  0  0  0  0  0  0  0  0  0
   -1.5755   -6.2743    5.2933 H   0  0  0  0  0  0  0  0  0  0  0  0
    0.0141   -5.6572    5.6872 H   0  0  0  0  0  0  0  0  0  0  0  0
   -0.3793   -7.3515    6.0284 H   0  0  0  0  0  0  0  0  0  0  0  0
    2.0471   -6.0976    5.2045 H   0  0  0  0  0  0  0  0  0  0  0  0
    3.5081   -4.6424    4.6011 H   0  0  0  0  0  0  0  0  0  0  0  0
    4.2661   -5.6368    3.4049 H   0  0  0  0  0  0  0  0  0  0  0  0
    1.6363   -4.1890    2.8785 H   0  0  0  0  0  0  0  0  0  0  0  0
    2.9966   -4.3091   -0.7284 H   0  0  0  0  0  0  0  0  0  0  0  0
    2.1568   -2.1558    0.7471 H   0  0  0  0  0  0  0  0  0  0  0  0
    4.6315   -2.0543   -0.5196 H   0  0  0  0  0  0  0  0  0  0  0  0
    5.0185    0.1992    0.6155 H   0  0  0  0  0  0  0  0  0  0  0  0
    3.7841   -0.2053    1.8199 H   0  0  0  0  0  0  0  0  0  0  0  0
    3.3319   -0.0150    0.1343 H   0  0  0  0  0  0  0  0  0  0  0  0
    2.9647   -2.2339    3.0638 H   0  0  0  0  0  0  0  0  0  0  0  0
    2.0838   -6.6076    0.0951 H   0  0  0  0  0  0  0  0  0  0  0  0
    4.5002   -6.7470    0.2337 H   0  0  0  0  0  0  0  0  0  0  0  0
    3.7640   -8.2765    0.6554 H   0  0  0  0  0  0  0  0  0  0  0  0
    4.4260   -7.2446    1.9175 H   0  0  0  0  0  0  0  0  0  0  0  0
    0.5350   -7.0923    1.4174 H   0  0  0  0  0  0  0  0  0  0  0  0
    1.7959   -9.2940    1.4365 H   0  0  0  0  0  0  0  0  0  0  0  0
   -0.4063   -9.6710    1.8796 H   0  0  0  0  0  0  0  0  0  0  0  0
    0.1470  -10.0136    3.4718 H   0  0  0  0  0  0  0  0  0  0  0  0
   -1.3814   -7.6389    2.4165 H   0  0  0  0  0  0  0  0  0  0  0  0
   -1.7117   -9.5529    4.3521 H   0  0  0  0  0  0  0  0  0  0  0  0
    2.2150   -9.8358    4.0868 H   0  0  0  0  0  0  0  0  0  0  0  0
    3.4797  -10.4191    2.4270 H   0  0  0  0  0  0  0  0  0  0  0  0
    2.4915   -8.1691    5.3704 H   0  0  0  0  0  0  0  0  0  0  0  0
    5.1489   -7.5937    4.0579 H   0  0  0  0  0  0  0  0  0  0  0  0
    4.7910   -8.7807    5.2984 H   0  0  0  0  0  0  0  0  0  0  0  0
    4.6433   -7.0669    5.6576 H   0  0  0  0  0  0  0  0  0  0  0  0
  1  2  1  0
  1 27  1  0
  1 28  1  0
  1 29  1  0
  2 21  1  0
  2  3  2  0
  3 18  1  0
  3  4  1  0
  4 25  1  0
  4  5  1  0
  4 30  1  1
  5  6  1  0
  5 31  1  0
  5 32  1  0
  6 15  1  0
  6  7  1  0
  6 33  1  1
  7  8  2  0
  7 16  1  0
  8  9  1  0
  8 34  1  0
  9 15  1  0
  9 10  1  0
  9 35  1  1
 10 11  1  0
 10 12  1  0
 10 36  1  6
 11 37  1  0
 11 38  1  0
 11 39  1  0
 12 13  2  0
 12 14  1  0
 14 15  1  0
 15 40  1  1
 16 17  1  0
 16 18  1  0
 16 41  1  6
 17 42  1  0
 17 43  1  0
 17 44  1  0
 18 19  1  0
 18 45  1  6
 19 20  1  0
 19 23  1  0
 19 46  1  6
 20 21  1  0
 20 47  1  0
 20 48  1  0
 21 22  1  0
 21 49  1  6
 22 50  1  0
 23 24  1  0
 23 25  1  0
 23 51  1  1
 24 52  1  0
 25 26  1  0
 25 53  1  1
 26 54  1  0
 26 55  1  0
 26 56  1  0
M  END
>  <i_m_ct_stereo_status>  (338) 
1

>  <s_m_source_file>  (338) 
/var/tmp/pbs.5076255.sched01/tmpg_ssl3dq/162k0u29fl7.sdf

>  <i_m_source_file_index>  (338) 
1

>  <i_lp_mmshare_version>  (338) 
48012

>  <i_f3d_flags>  (338) 
0

>  <s_epik_input>  (338) 
W0NIM11DPTFbQ0BIXShbT0hdKVtDSDJdW0NASF0oW0NAQEhdKFtPSF0pW0NASF0yW0NIM10pW0NAQEhdM1tDQEhdKFtDSDNdKUMoW0NASF00W0NIMl1bQ0BIXTJDMTMpPVtDSF1bQ0BIXTVbQ0BASF00T0MoPU8pW0NAQEhdNVtDSDNd

>  <s_epik_cmdline>  (338) 
J2VwaWtfcHl0aG9uJywgJy1waHQnLCAnMi4wJywgJy1waCcsICc3LjAnLCAnLXRuJywgJzgnLCAnLW1hJywgJzIwMCcsICctaW1hZScsICc8aW5maWxlLm1hZT4nLCAnLW9tYWUnLCAnPG91dGZpbGUubWFlPic=

>  <r_lp_tautomer_probability>  (338) 
1

>  <r_epik_Ionization_Penalty>  (338) 
8.4658e-07

>  <r_epik_Ionization_Penalty_Charging>  (338) 
0

>  <r_epik_Ionization_Penalty_Neutral>  (338) 
8.4658e-07

>  <r_epik_State_Penalty>  (338) 
-0

>  <r_epik_Charging_Adjusted_Penalty>  (338) 
0

>  <i_epik_Tot_Q>  (338) 
0

>  <i_epik_Tot_abs_Q>  (338) 
0

>  <s_epik_Chemistry_Notes>  (338) 
This compound has an ester and may undergo hydrolysis at high or low pH.

>  <s_lp_Force_Field>  (338) 
OPLS3e

>  <r_lp_Energy>  (338) 
71.5687

>  <b_lp_Chiralities_Consistent>  (338) 
1

>  <s_lp_Variant>  (338) 
84:0-1

>  <s_i_glide_gridfile>  (338) 
pfpi4k_grid

>  <i_i_glide_lignum>  (338) 
1

>  <i_i_glide_rotatable_bonds>  (338) 
2

>  <r_i_docking_score>  (338) 
-3.5641

>  <r_i_glide_ligand_efficiency>  (338) 
-0.137081

>  <r_i_glide_ligand_efficiency_sa>  (338) 
-0.406101

>  <r_i_glide_ligand_efficiency_ln>  (338) 
-0.837017

>  <r_i_glide_gscore>  (338) 
-3.5641

>  <r_i_glide_lipo>  (338) 
-0.23115

>  <r_i_glide_hbond>  (338) 
-0.16

>  <r_i_glide_metal>  (338) 
-0

>  <r_i_glide_rewards>  (338) 
-1.04728

>  <r_i_glide_evdw>  (338) 
-23.4856

>  <r_i_glide_ecoul>  (338) 
-6.34261

>  <r_i_glide_erotb>  (338) 
0

>  <r_i_glide_esite>  (338) 
0

>  <r_i_glide_emodel>  (338) 
-35.5825

>  <r_i_glide_energy>  (338) 
-29.8282

>  <r_i_glide_einternal>  (338) 
1.10884

>  <r_i_glide_intrahb_reward>  (338) 
-0

>  <i_i_glide_confnum>  (338) 
2

>  <i_i_glide_posenum>  (338) 
9

>  <r_i_glide_eff_state_penalty>  (338) 
0

>  <ligand_id>  (338) 
84

>  <original_smiles>  (338) 
CC1=C2C3CC4C(=CC5C(C)C(=O)OC45)C(C)C2C(CC1O)C(O)C3C

>  <smiles>  (338) 
[H]OC1([H])C(C([H])([H])[H])=C2C3([H])C([H])([H])C4([H])C(=C([H])C5([H])C4([H])OC(=O)C5([H])C([H])([H])[H])C([H])(C([H])([H])[H])C2([H])C([H])(C1([H])[H])C([H])(O[H])C3([H])C([H])([H])[H]

$$$$
84:0:1
     RDKit          3D

 56 60  0  0  1  0  0  0  0  0999 V2000
   -1.1495   -6.8825    4.2422 C   0  0  0  0  0  0  0  0  0  0  0  0
   -0.1214   -7.4347    3.2615 C   0  0  0  0  0  0  0  0  0  0  0  0
    1.1410   -6.9579    3.0910 C   0  0  0  0  0  0  0  0  0  0  0  0
    1.8821   -6.2839    4.2196 C   0  0  2  0  0  0  0  0  0  0  0  0
    2.7475   -5.0533    3.8020 C   0  0  0  0  0  0  0  0  0  0  0  0
    2.5016   -4.5838    2.3662 C   0  0  2  0  0  0  0  0  0  0  0  0
    3.1517   -5.4349    1.3124 C   0  0  0  0  0  0  0  0  0  0  0  0
    3.6021   -4.6844    0.3018 C   0  0  0  0  0  0  0  0  0  0  0  0
    3.2833   -3.1996    0.4929 C   0  0  2  0  0  0  0  0  0  0  0  0
    4.4631   -2.2147    0.3504 C   0  0  1  0  0  0  0  0  0  0  0  0
    3.9384   -0.7837    0.0990 C   0  0  0  0  0  0  0  0  0  0  0  0
    5.0795   -2.2582    1.7287 C   0  0  0  0  0  0  0  0  0  0  0  0
    6.1695   -1.7669    1.9758 O   0  0  0  0  0  0  0  0  0  0  0  0
    4.2347   -2.8346    2.5645 O   0  0  0  0  0  0  0  0  0  0  0  0
    2.9702   -3.1533    2.0064 C   0  0  2  0  0  0  0  0  0  0  0  0
    3.2882   -6.9581    1.5016 C   0  0  1  0  0  0  0  0  0  0  0  0
    4.6642   -7.3224    2.0686 C   0  0  0  0  0  0  0  0  0  0  0  0
    2.0498   -7.6980    2.1282 C   0  0  1  0  0  0  0  0  0  0  0  0
    2.2168   -9.0408    2.8588 C   0  0  2  0  0  0  0  0  0  0  0  0
    0.8199   -9.7650    2.8377 C   0  0  0  0  0  0  0  0  0  0  0  0
   -0.4148   -8.8092    2.6877 C   0  0  1  0  0  0  0  0  0  0  0  0
   -1.6051   -9.3898    3.1874 O   0  0  0  0  0  0  0  0  0  0  0  0
    2.7691   -8.8387    4.3253 C   0  0  1  0  0  0  0  0  0  0  0  0
    4.1254   -9.2451    4.3598 O   0  0  0  0  0  0  0  0  0  0  0  0
    2.5623   -7.4321    5.0376 C   0  0  1  0  0  0  0  0  0  0  0  0
    3.7259   -6.9648    5.9405 C   0  0  0  0  0  0  0  0  0  0  0  0
   -2.1378   -6.8807    3.7688 H   0  0  0  0  0  0  0  0  0  0  0  0
   -0.9424   -5.8546    4.5274 H   0  0  0  0  0  0  0  0  0  0  0  0
   -1.2081   -7.5068    5.1295 H   0  0  0  0  0  0  0  0  0  0  0  0
    1.1489   -5.8513    4.8980 H   0  0  0  0  0  0  0  0  0  0  0  0
    2.4972   -4.2363    4.4781 H   0  0  0  0  0  0  0  0  0  0  0  0
    3.8122   -5.2312    3.9491 H   0  0  0  0  0  0  0  0  0  0  0  0
    1.4337   -4.5965    2.1599 H   0  0  0  0  0  0  0  0  0  0  0  0
    4.1101   -5.0621   -0.5752 H   0  0  0  0  0  0  0  0  0  0  0  0
    2.4399   -2.9392   -0.1316 H   0  0  0  0  0  0  0  0  0  0  0  0
    5.1857   -2.4995   -0.4005 H   0  0  0  0  0  0  0  0  0  0  0  0
    4.7425   -0.0360    0.1254 H   0  0  0  0  0  0  0  0  0  0  0  0
    3.2041   -0.4902    0.8586 H   0  0  0  0  0  0  0  0  0  0  0  0
    3.4461   -0.7198   -0.8681 H   0  0  0  0  0  0  0  0  0  0  0  0
    2.2561   -2.3752    2.2619 H   0  0  0  0  0  0  0  0  0  0  0  0
    3.3680   -7.3451    0.4803 H   0  0  0  0  0  0  0  0  0  0  0  0
    5.4585   -6.8442    1.4895 H   0  0  0  0  0  0  0  0  0  0  0  0
    4.8374   -8.3998    2.0089 H   0  0  0  0  0  0  0  0  0  0  0  0
    4.7787   -7.0149    3.1018 H   0  0  0  0  0  0  0  0  0  0  0  0
    1.4440   -7.8919    1.2368 H   0  0  0  0  0  0  0  0  0  0  0  0
    2.9002   -9.6858    2.3011 H   0  0  0  0  0  0  0  0  0  0  0  0
    0.7981  -10.4788    2.0234 H   0  0  0  0  0  0  0  0  0  0  0  0
    0.7043  -10.3706    3.7369 H   0  0  0  0  0  0  0  0  0  0  0  0
   -0.6090   -8.6436    1.6287 H   0  0  0  0  0  0  0  0  0  0  0  0
   -1.4551   -9.9438    3.9476 H   0  0  0  0  0  0  0  0  0  0  0  0
    2.2936   -9.5781    4.9696 H   0  0  0  0  0  0  0  0  0  0  0  0
    4.1609  -10.1656    4.1491 H   0  0  0  0  0  0  0  0  0  0  0  0
    1.7861   -7.6828    5.7653 H   0  0  0  0  0  0  0  0  0  0  0  0
    4.6313   -6.7514    5.3727 H   0  0  0  0  0  0  0  0  0  0  0  0
    3.9853   -7.7263    6.6786 H   0  0  0  0  0  0  0  0  0  0  0  0
    3.4562   -6.0621    6.4843 H   0  0  0  0  0  0  0  0  0  0  0  0
  1  2  1  0
  1 27  1  0
  1 28  1  0
  1 29  1  0
  2 21  1  0
  2  3  2  0
  3 18  1  0
  3  4  1  0
  4 25  1  0
  4  5  1  0
  4 30  1  1
  5  6  1  0
  5 31  1  0
  5 32  1  0
  6 15  1  0
  6  7  1  0
  6 33  1  6
  7  8  2  0
  7 16  1  0
  8  9  1  0
  8 34  1  0
  9 15  1  0
  9 10  1  0
  9 35  1  6
 10 11  1  0
 10 12  1  0
 10 36  1  6
 11 37  1  0
 11 38  1  0
 11 39  1  0
 12 13  2  0
 12 14  1  0
 14 15  1  0
 15 40  1  6
 16 17  1  0
 16 18  1  0
 16 41  1  6
 17 42  1  0
 17 43  1  0
 17 44  1  0
 18 19  1  0
 18 45  1  6
 19 20  1  0
 19 23  1  0
 19 46  1  6
 20 21  1  0
 20 47  1  0
 20 48  1  0
 21 22  1  0
 21 49  1  6
 22 50  1  0
 23 24  1  0
 23 25  1  0
 23 51  1  1
 24 52  1  0
 25 26  1  0
 25 53  1  1
 26 54  1  0
 26 55  1  0
 26 56  1  0
M  END
>  <i_m_ct_stereo_status>  (339) 
1

>  <s_m_source_file>  (339) 
/var/tmp/pbs.5076255.sched01/tmpg_ssl3dq/162k0u29fl7.sdf

>  <i_m_source_file_index>  (339) 
1

>  <i_lp_mmshare_version>  (339) 
48012

>  <i_f3d_flags>  (339) 
0

>  <s_epik_input>  (339) 
W0NIM11DPTFbQ0BIXShbT0hdKVtDSDJdW0NASF0oW0NAQEhdKFtPSF0pW0NASF0yW0NIM10pW0NAQEhdM1tDQEhdKFtDSDNdKUMoW0NASF00W0NIMl1bQ0BIXTJDMTMpPVtDSF1bQ0BIXTVbQ0BASF00T0MoPU8pW0NAQEhdNVtDSDNd

>  <s_epik_cmdline>  (339) 
J2VwaWtfcHl0aG9uJywgJy1waHQnLCAnMi4wJywgJy1waCcsICc3LjAnLCAnLXRuJywgJzgnLCAnLW1hJywgJzIwMCcsICctaW1hZScsICc8aW5maWxlLm1hZT4nLCAnLW9tYWUnLCAnPG91dGZpbGUubWFlPic=

>  <r_lp_tautomer_probability>  (339) 
1

>  <r_epik_Ionization_Penalty>  (339) 
8.4658e-07

>  <r_epik_Ionization_Penalty_Charging>  (339) 
0

>  <r_epik_Ionization_Penalty_Neutral>  (339) 
8.4658e-07

>  <r_epik_State_Penalty>  (339) 
-0

>  <r_epik_Charging_Adjusted_Penalty>  (339) 
0

>  <i_epik_Tot_Q>  (339) 
0

>  <i_epik_Tot_abs_Q>  (339) 
0

>  <s_epik_Chemistry_Notes>  (339) 
This compound has an ester and may undergo hydrolysis at high or low pH.

>  <s_lp_Force_Field>  (339) 
OPLS3e

>  <r_lp_Energy>  (339) 
71.5687

>  <b_lp_Chiralities_Consistent>  (339) 
1

>  <s_lp_Variant>  (339) 
84:0-1

>  <s_i_glide_gridfile>  (339) 
pfpi4k_grid

>  <i_i_glide_lignum>  (339) 
1

>  <i_i_glide_rotatable_bonds>  (339) 
2

>  <r_i_docking_score>  (339) 
-3.28843

>  <r_i_glide_ligand_efficiency>  (339) 
-0.126478

>  <r_i_glide_ligand_efficiency_sa>  (339) 
-0.374691

>  <r_i_glide_ligand_efficiency_ln>  (339) 
-0.772277

>  <r_i_glide_gscore>  (339) 
-3.28843

>  <r_i_glide_lipo>  (339) 
-0.142213

>  <r_i_glide_hbond>  (339) 
-0.143409

>  <r_i_glide_metal>  (339) 
-0

>  <r_i_glide_rewards>  (339) 
-1.03526

>  <r_i_glide_evdw>  (339) 
-23.3413

>  <r_i_glide_ecoul>  (339) 
-5.33658

>  <r_i_glide_erotb>  (339) 
0

>  <r_i_glide_esite>  (339) 
0

>  <r_i_glide_emodel>  (339) 
-34.0459

>  <r_i_glide_energy>  (339) 
-28.6779

>  <r_i_glide_einternal>  (339) 
0.600955

>  <r_i_glide_intrahb_reward>  (339) 
-0

>  <i_i_glide_confnum>  (339) 
2

>  <i_i_glide_posenum>  (339) 
25

>  <r_i_glide_eff_state_penalty>  (339) 
0

>  <ligand_id>  (339) 
84

>  <original_smiles>  (339) 
CC1=C2C3CC4C(=CC5C(C)C(=O)OC45)C(C)C2C(CC1O)C(O)C3C

>  <smiles>  (339) 
[H]OC1([H])C(C([H])([H])[H])=C2C3([H])C([H])([H])C4([H])C(=C([H])C5([H])C4([H])OC(=O)C5([H])C([H])([H])[H])C([H])(C([H])([H])[H])C2([H])C([H])(C1([H])[H])C([H])(O[H])C3([H])C([H])([H])[H]

$$$$
84:0:2
     RDKit          3D

 56 60  0  0  1  0  0  0  0  0999 V2000
   -0.6302   -7.7037    2.4640 C   0  0  0  0  0  0  0  0  0  0  0  0
    0.8630   -7.9992    2.3908 C   0  0  0  0  0  0  0  0  0  0  0  0
    1.8530   -7.0699    2.4632 C   0  0  0  0  0  0  0  0  0  0  0  0
    1.6712   -5.7820    3.2356 C   0  0  2  0  0  0  0  0  0  0  0  0
    2.2968   -4.5187    2.5732 C   0  0  0  0  0  0  0  0  0  0  0  0
    2.7700   -4.7345    1.1277 C   0  0  2  0  0  0  0  0  0  0  0  0
    4.0729   -5.4777    1.0197 C   0  0  0  0  0  0  0  0  0  0  0  0
    4.8063   -4.9884    0.0078 C   0  0  0  0  0  0  0  0  0  0  0  0
    4.1070   -3.8539   -0.7352 C   0  0  2  0  0  0  0  0  0  0  0  0
    4.8652   -2.5426   -0.9613 C   0  0  1  0  0  0  0  0  0  0  0  0
    4.2356   -1.7243   -2.1072 C   0  0  0  0  0  0  0  0  0  0  0  0
    4.6416   -1.8261    0.3494 C   0  0  0  0  0  0  0  0  0  0  0  0
    5.2915   -0.8496    0.7175 O   0  0  0  0  0  0  0  0  0  0  0  0
    3.6339   -2.4125    1.0017 O   0  0  0  0  0  0  0  0  0  0  0  0
    3.0052   -3.4645    0.2756 C   0  0  2  0  0  0  0  0  0  0  0  0
    4.4544   -6.5929    2.0044 C   0  0  1  0  0  0  0  0  0  0  0  0
    5.3336   -6.0363    3.1364 C   0  0  0  0  0  0  0  0  0  0  0  0
    3.2900   -7.5623    2.4411 C   0  0  1  0  0  0  0  0  0  0  0  0
    3.3575   -8.3221    3.7781 C   0  0  2  0  0  0  0  0  0  0  0  0
    2.4298   -9.5853    3.6328 C   0  0  0  0  0  0  0  0  0  0  0  0
    1.2859   -9.4597    2.5706 C   0  0  1  0  0  0  0  0  0  0  0  0
    0.2121  -10.3221    2.9037 O   0  0  0  0  0  0  0  0  0  0  0  0
    2.9528   -7.3986    4.9941 C   0  0  1  0  0  0  0  0  0  0  0  0
    4.1142   -7.0718    5.7324 O   0  0  0  0  0  0  0  0  0  0  0  0
    2.0537   -6.1141    4.7216 C   0  0  1  0  0  0  0  0  0  0  0  0
    2.3835   -4.8757    5.5836 C   0  0  0  0  0  0  0  0  0  0  0  0
   -1.1598   -8.3292    1.7406 H   0  0  0  0  0  0  0  0  0  0  0  0
   -0.8631   -6.6734    2.2037 H   0  0  0  0  0  0  0  0  0  0  0  0
   -1.0276   -7.9258    3.4542 H   0  0  0  0  0  0  0  0  0  0  0  0
    0.6105   -5.5515    3.2684 H   0  0  0  0  0  0  0  0  0  0  0  0
    1.5346   -3.7400    2.5705 H   0  0  0  0  0  0  0  0  0  0  0  0
    3.1149   -4.1060    3.1610 H   0  0  0  0  0  0  0  0  0  0  0  0
    2.0344   -5.3284    0.5861 H   0  0  0  0  0  0  0  0  0  0  0  0
    5.7829   -5.3533   -0.2786 H   0  0  0  0  0  0  0  0  0  0  0  0
    3.6951   -4.2487   -1.6634 H   0  0  0  0  0  0  0  0  0  0  0  0
    5.9281   -2.6910   -1.1294 H   0  0  0  0  0  0  0  0  0  0  0  0
    4.6780   -0.7280   -2.1992 H   0  0  0  0  0  0  0  0  0  0  0  0
    3.1579   -1.5804   -1.9419 H   0  0  0  0  0  0  0  0  0  0  0  0
    4.3484   -2.2361   -3.0624 H   0  0  0  0  0  0  0  0  0  0  0  0
    2.1064   -3.0855   -0.2069 H   0  0  0  0  0  0  0  0  0  0  0  0
    5.1435   -7.2303    1.4474 H   0  0  0  0  0  0  0  0  0  0  0  0
    6.1681   -5.4627    2.7300 H   0  0  0  0  0  0  0  0  0  0  0  0
    5.7677   -6.8411    3.7327 H   0  0  0  0  0  0  0  0  0  0  0  0
    4.7869   -5.3785    3.8076 H   0  0  0  0  0  0  0  0  0  0  0  0
    3.3316   -8.3084    1.6444 H   0  0  0  0  0  0  0  0  0  0  0  0
    4.3655   -8.7044    3.9363 H   0  0  0  0  0  0  0  0  0  0  0  0
    3.0398  -10.4510    3.3736 H   0  0  0  0  0  0  0  0  0  0  0  0
    2.0004   -9.8349    4.6035 H   0  0  0  0  0  0  0  0  0  0  0  0
    1.6637   -9.8020    1.6067 H   0  0  0  0  0  0  0  0  0  0  0  0
   -0.0223  -10.2331    3.8172 H   0  0  0  0  0  0  0  0  0  0  0  0
    2.3973   -8.0088    5.7092 H   0  0  0  0  0  0  0  0  0  0  0  0
    4.4909   -7.8744    6.0642 H   0  0  0  0  0  0  0  0  0  0  0  0
    1.0968   -6.4399    5.1348 H   0  0  0  0  0  0  0  0  0  0  0  0
    3.3675   -4.4623    5.3605 H   0  0  0  0  0  0  0  0  0  0  0  0
    2.3753   -5.1179    6.6481 H   0  0  0  0  0  0  0  0  0  0  0  0
    1.6512   -4.0847    5.4247 H   0  0  0  0  0  0  0  0  0  0  0  0
  1  2  1  0
  1 27  1  0
  1 28  1  0
  1 29  1  0
  2 21  1  0
  2  3  2  0
  3 18  1  0
  3  4  1  0
  4 25  1  0
  4  5  1  0
  4 30  1  1
  5  6  1  0
  5 31  1  0
  5 32  1  0
  6 15  1  0
  6  7  1  0
  6 33  1  6
  7  8  2  0
  7 16  1  0
  8  9  1  0
  8 34  1  0
  9 15  1  0
  9 10  1  0
  9 35  1  6
 10 11  1  0
 10 12  1  0
 10 36  1  6
 11 37  1  0
 11 38  1  0
 11 39  1  0
 12 13  2  0
 12 14  1  0
 14 15  1  0
 15 40  1  6
 16 17  1  0
 16 18  1  0
 16 41  1  6
 17 42  1  0
 17 43  1  0
 17 44  1  0
 18 19  1  0
 18 45  1  6
 19 20  1  0
 19 23  1  0
 19 46  1  1
 20 21  1  0
 20 47  1  0
 20 48  1  0
 21 22  1  0
 21 49  1  6
 22 50  1  0
 23 24  1  0
 23 25  1  0
 23 51  1  1
 24 52  1  0
 25 26  1  0
 25 53  1  1
 26 54  1  0
 26 55  1  0
 26 56  1  0
M  END
>  <i_m_ct_stereo_status>  (340) 
1

>  <s_m_source_file>  (340) 
/var/tmp/pbs.5076255.sched01/tmpg_ssl3dq/162k0u29fl7.sdf

>  <i_m_source_file_index>  (340) 
1

>  <i_lp_mmshare_version>  (340) 
48012

>  <i_f3d_flags>  (340) 
0

>  <s_epik_input>  (340) 
W0NIM11DPTFbQ0BIXShbT0hdKVtDSDJdW0NASF0oW0NAQEhdKFtPSF0pW0NASF0yW0NIM10pW0NAQEhdM1tDQEhdKFtDSDNdKUMoW0NASF00W0NIMl1bQ0BIXTJDMTMpPVtDSF1bQ0BIXTVbQ0BASF00T0MoPU8pW0NAQEhdNVtDSDNd

>  <s_epik_cmdline>  (340) 
J2VwaWtfcHl0aG9uJywgJy1waHQnLCAnMi4wJywgJy1waCcsICc3LjAnLCAnLXRuJywgJzgnLCAnLW1hJywgJzIwMCcsICctaW1hZScsICc8aW5maWxlLm1hZT4nLCAnLW9tYWUnLCAnPG91dGZpbGUubWFlPic=

>  <r_lp_tautomer_probability>  (340) 
1

>  <r_epik_Ionization_Penalty>  (340) 
8.4658e-07

>  <r_epik_Ionization_Penalty_Charging>  (340) 
0

>  <r_epik_Ionization_Penalty_Neutral>  (340) 
8.4658e-07

>  <r_epik_State_Penalty>  (340) 
-0

>  <r_epik_Charging_Adjusted_Penalty>  (340) 
0

>  <i_epik_Tot_Q>  (340) 
0

>  <i_epik_Tot_abs_Q>  (340) 
0

>  <s_epik_Chemistry_Notes>  (340) 
This compound has an ester and may undergo hydrolysis at high or low pH.

>  <s_lp_Force_Field>  (340) 
OPLS3e

>  <r_lp_Energy>  (340) 
71.5687

>  <b_lp_Chiralities_Consistent>  (340) 
1

>  <s_lp_Variant>  (340) 
84:0-1

>  <s_i_glide_gridfile>  (340) 
pfpi4k_grid

>  <i_i_glide_lignum>  (340) 
1

>  <i_i_glide_rotatable_bonds>  (340) 
2

>  <r_i_docking_score>  (340) 
-2.60341

>  <r_i_glide_ligand_efficiency>  (340) 
-0.100131

>  <r_i_glide_ligand_efficiency_sa>  (340) 
-0.296638

>  <r_i_glide_ligand_efficiency_ln>  (340) 
-0.611402

>  <r_i_glide_gscore>  (340) 
-2.60341

>  <r_i_glide_lipo>  (340) 
-0.154943

>  <r_i_glide_hbond>  (340) 
0

>  <r_i_glide_metal>  (340) 
-0

>  <r_i_glide_rewards>  (340) 
-0.964969

>  <r_i_glide_evdw>  (340) 
-28.1578

>  <r_i_glide_ecoul>  (340) 
-0.490929

>  <r_i_glide_erotb>  (340) 
0

>  <r_i_glide_esite>  (340) 
-0.00196954

>  <r_i_glide_emodel>  (340) 
-33.0568

>  <r_i_glide_energy>  (340) 
-28.6487

>  <r_i_glide_einternal>  (340) 
0.400036

>  <r_i_glide_intrahb_reward>  (340) 
-0

>  <i_i_glide_confnum>  (340) 
2

>  <i_i_glide_posenum>  (340) 
13

>  <r_i_glide_eff_state_penalty>  (340) 
0

>  <ligand_id>  (340) 
84

>  <original_smiles>  (340) 
CC1=C2C3CC4C(=CC5C(C)C(=O)OC45)C(C)C2C(CC1O)C(O)C3C

>  <smiles>  (340) 
[H]OC1([H])C(C([H])([H])[H])=C2C3([H])C([H])([H])C4([H])C(=C([H])C5([H])C4([H])OC(=O)C5([H])C([H])([H])[H])C([H])(C([H])([H])[H])C2([H])C([H])(C1([H])[H])C([H])(O[H])C3([H])C([H])([H])[H]

$$$$
85:0:0
     RDKit          3D

 78 84  0  0  1  0  0  0  0  0999 V2000
    2.8191    4.7291    2.8705 C   0  0  0  0  0  0  0  0  0  0  0  0
    1.7357    5.2776    3.5965 O   0  0  0  0  0  0  0  0  0  0  0  0
    0.6721    4.5187    4.1285 C   0  0  0  0  0  0  0  0  0  0  0  0
   -0.3835    5.0238    4.4423 O   0  0  0  0  0  0  0  0  0  0  0  0
    0.9301    2.9778    4.3265 C   0  0  1  0  0  0  0  0  0  0  0  0
    2.1971    2.7218    5.2290 C   0  0  0  0  0  0  0  0  0  0  0  0
    2.6197    1.2229    5.0321 C   0  0  0  0  0  0  0  0  0  0  0  0
    1.4417    0.3439    4.4960 C   0  0  2  0  0  0  0  0  0  0  0  0
    1.0527    0.8605    3.0369 C   0  0  1  0  0  0  0  0  0  0  0  0
   -0.4730    0.7460    2.7577 C   0  0  0  0  0  0  0  0  0  0  0  0
   -1.2347    1.7441    3.6972 C   0  0  0  0  0  0  0  0  0  0  0  0
   -0.3093    2.1347    4.8954 C   0  0  2  0  0  0  0  0  0  0  0  0
   -1.1385    2.8581    5.9994 C   0  0  0  0  0  0  0  0  0  0  0  0
    0.2595    0.7676    5.4619 C   0  0  1  0  0  0  0  0  0  0  0  0
   -0.6819   -0.3686    6.0373 C   0  0  1  0  0  0  0  0  0  0  0  0
   -2.0787   -0.1773    5.9298 O   0  0  0  0  0  0  0  0  0  0  0  0
   -0.3445   -1.7794    5.5528 C   0  0  0  0  0  0  0  0  0  0  0  0
    1.1682   -2.0753    5.5967 C   0  0  1  0  0  0  0  0  0  0  0  0
    1.7573   -1.8881    7.0115 C   0  0  0  0  0  0  0  0  0  0  0  0
    1.5521   -3.4504    5.0474 C   0  0  2  0  0  0  0  0  0  0  0  0
    1.2902   -3.3568    3.5808 C   0  0  1  0  0  0  0  0  0  0  0  0
    1.9441   -2.0411    3.2017 C   0  0  0  0  0  0  0  0  0  0  0  0
    1.8837   -1.1770    4.5293 C   0  0  1  0  0  0  0  0  0  0  0  0
    1.6983   -4.6381    3.1199 O   0  0  0  0  0  0  0  0  0  0  0  0
    1.4703   -5.5769    4.1603 C   0  0  1  0  0  0  0  0  0  0  0  0
    0.4957   -6.6766    3.6905 C   0  0  0  0  0  0  0  0  0  0  0  0
    1.1164   -7.4668    2.5330 C   0  0  0  0  0  0  0  0  0  0  0  0
    2.5030   -7.9921    2.9223 C   0  0  1  0  0  0  0  0  0  0  0  0
    3.1842   -8.6759    1.7286 C   0  0  0  0  0  0  0  0  0  0  0  0
    3.3604   -6.8365    3.4690 C   0  0  0  0  0  0  0  0  0  0  0  0
    2.6875   -6.1741    4.5416 O   0  0  0  0  0  0  0  0  0  0  0  0
    0.8801   -4.7588    5.3551 C   0  0  1  0  0  0  0  0  0  0  0  0
    1.1820   -5.3463    6.7466 C   0  0  0  0  0  0  0  0  0  0  0  0
    1.3396    2.3489    2.9594 C   0  0  0  0  0  0  0  0  0  0  0  0
    3.4572    5.5498    2.5642 H   0  0  0  0  0  0  0  0  0  0  0  0
    2.4346    4.1726    2.0330 H   0  0  0  0  0  0  0  0  0  0  0  0
    3.3738    4.0656    3.4679 H   0  0  0  0  0  0  0  0  0  0  0  0
    3.0379    3.3371    5.0545 H   0  0  0  0  0  0  0  0  0  0  0  0
    1.9252    2.8820    6.2646 H   0  0  0  0  0  0  0  0  0  0  0  0
    3.4688    1.1597    4.3259 H   0  0  0  0  0  0  0  0  0  0  0  0
    3.0217    0.8299    5.9711 H   0  0  0  0  0  0  0  0  0  0  0  0
    1.6268    0.3923    2.2435 H   0  0  0  0  0  0  0  0  0  0  0  0
   -0.6842    0.9962    1.7017 H   0  0  0  0  0  0  0  0  0  0  0  0
   -0.8047   -0.2601    2.9110 H   0  0  0  0  0  0  0  0  0  0  0  0
   -1.5077    2.6351    3.1369 H   0  0  0  0  0  0  0  0  0  0  0  0
   -2.2001    1.2917    3.9812 H   0  0  0  0  0  0  0  0  0  0  0  0
   -1.8806    2.2176    6.4971 H   0  0  0  0  0  0  0  0  0  0  0  0
   -1.7078    3.6983    5.5965 H   0  0  0  0  0  0  0  0  0  0  0  0
   -0.4838    3.2456    6.7767 H   0  0  0  0  0  0  0  0  0  0  0  0
    0.7276    1.0503    6.4052 H   0  0  0  0  0  0  0  0  0  0  0  0
   -0.5259   -0.3680    7.1204 H   0  0  0  0  0  0  0  0  0  0  0  0
   -2.2785    0.0251    5.0242 H   0  0  0  0  0  0  0  0  0  0  0  0
   -0.8741   -2.5000    6.1720 H   0  0  0  0  0  0  0  0  0  0  0  0
   -0.7500   -1.8833    4.5513 H   0  0  0  0  0  0  0  0  0  0  0  0
    2.7944   -2.2188    7.0591 H   0  0  0  0  0  0  0  0  0  0  0  0
    1.1954   -2.4720    7.7391 H   0  0  0  0  0  0  0  0  0  0  0  0
    1.7455   -0.8498    7.3437 H   0  0  0  0  0  0  0  0  0  0  0  0
    2.6208   -3.5787    5.2031 H   0  0  0  0  0  0  0  0  0  0  0  0
    0.2310   -3.2997    3.3403 H   0  0  0  0  0  0  0  0  0  0  0  0
    2.9773   -2.1891    2.8868 H   0  0  0  0  0  0  0  0  0  0  0  0
    1.4015   -1.6336    2.3518 H   0  0  0  0  0  0  0  0  0  0  0  0
    2.9388   -1.1755    4.8341 H   0  0  0  0  0  0  0  0  0  0  0  0
    0.2734   -7.3325    4.5230 H   0  0  0  0  0  0  0  0  0  0  0  0
   -0.4370   -6.2136    3.3730 H   0  0  0  0  0  0  0  0  0  0  0  0
    0.4660   -8.3028    2.2734 H   0  0  0  0  0  0  0  0  0  0  0  0
    1.1875   -6.8375    1.6432 H   0  0  0  0  0  0  0  0  0  0  0  0
    2.3880   -8.7293    3.7168 H   0  0  0  0  0  0  0  0  0  0  0  0
    3.3401   -7.9758    0.9107 H   0  0  0  0  0  0  0  0  0  0  0  0
    2.5767   -9.4975    1.3510 H   0  0  0  0  0  0  0  0  0  0  0  0
    4.1536   -9.0834    2.0071 H   0  0  0  0  0  0  0  0  0  0  0  0
    4.3201   -7.2123    3.8257 H   0  0  0  0  0  0  0  0  0  0  0  0
    3.5969   -6.1235    2.6784 H   0  0  0  0  0  0  0  0  0  0  0  0
   -0.2036   -4.6800    5.2192 H   0  0  0  0  0  0  0  0  0  0  0  0
    2.2487   -5.3443    6.9712 H   0  0  0  0  0  0  0  0  0  0  0  0
    0.8171   -6.3712    6.8396 H   0  0  0  0  0  0  0  0  0  0  0  0
    0.6866   -4.7618    7.5236 H   0  0  0  0  0  0  0  0  0  0  0  0
    0.8000    2.7721    2.0951 H   0  0  0  0  0  0  0  0  0  0  0  0
    2.3808    2.4902    2.6933 H   0  0  0  0  0  0  0  0  0  0  0  0
  1  2  1  0
  1 35  1  0
  1 36  1  0
  1 37  1  0
  2  3  1  0
  3  4  2  0
  5  3  1  6
  5 12  1  0
  5 34  1  0
  5  6  1  0
  6  7  1  0
  6 38  1  0
  6 39  1  0
  8  7  1  1
  7 40  1  0
  7 41  1  0
  8 14  1  0
  8 23  1  0
  8  9  1  0
  9 10  1  0
  9 34  1  0
  9 42  1  6
 10 11  1  0
 10 43  1  0
 10 44  1  0
 11 12  1  0
 11 45  1  0
 11 46  1  0
 12 13  1  1
 12 14  1  0
 13 47  1  0
 13 48  1  0
 13 49  1  0
 14 15  1  0
 14 50  1  1
 15 16  1  0
 15 17  1  0
 15 51  1  1
 16 52  1  0
 17 18  1  0
 17 53  1  0
 17 54  1  0
 18 23  1  0
 18 19  1  1
 18 20  1  0
 19 55  1  0
 19 56  1  0
 19 57  1  0
 20 32  1  0
 20 21  1  0
 20 58  1  6
 21 22  1  0
 21 24  1  0
 21 59  1  1
 22 23  1  0
 22 60  1  0
 22 61  1  0
 23 62  1  1
 25 24  1  6
 25 31  1  0
 25 26  1  0
 25 32  1  0
 26 27  1  0
 26 63  1  0
 26 64  1  0
 27 28  1  0
 27 65  1  0
 27 66  1  0
 28 29  1  0
 28 30  1  0
 28 67  1  1
 29 68  1  0
 29 69  1  0
 29 70  1  0
 30 31  1  0
 30 71  1  0
 30 72  1  0
 32 33  1  0
 32 73  1  6
 33 74  1  0
 33 75  1  0
 33 76  1  0
 34 77  1  0
 34 78  1  0
M  END
>  <i_m_ct_stereo_status>  (341) 
1

>  <s_m_source_file>  (341) 
/var/tmp/pbs.5076255.sched01/tmpg_ssl3dq/162k0u29fl7.sdf

>  <i_m_source_file_index>  (341) 
2

>  <i_lp_mmshare_version>  (341) 
48012

>  <i_f3d_flags>  (341) 
0

>  <s_epik_input>  (341) 
W0NIM11PQyg9TylbQ0BAXShbQ0gyXTEpKFtDSDJdW0NIMl0yKVtDQEBdKFtDSDNdKShbQ0gyXVtDSDJdW0NAQEhdMVtDQEBdMjM0KVtDQEhdM1tDQEBIXShbT0hdKVtDSDJdW0NAQF01KFtDSDNdKVtDQEBIXTZbQ0BASF0oW0NIMl1bQ0BASF00NSlPW0NAQF03KFtDQEhdNltDSDNdKVtDSDJdW0NIMl1bQ0BASF0oW0NIM10pW0NIMl1PNw==

>  <s_epik_cmdline>  (341) 
J2VwaWtfcHl0aG9uJywgJy1waHQnLCAnMi4wJywgJy1waCcsICc3LjAnLCAnLXRuJywgJzgnLCAnLW1hJywgJzIwMCcsICctaW1hZScsICc8aW5maWxlLm1hZT4nLCAnLW9tYWUnLCAnPG91dGZpbGUubWFlPic=

>  <r_lp_tautomer_probability>  (341) 
1

>  <r_epik_Ionization_Penalty>  (341) 
1.15011e-06

>  <r_epik_Ionization_Penalty_Charging>  (341) 
0

>  <r_epik_Ionization_Penalty_Neutral>  (341) 
1.15011e-06

>  <r_epik_State_Penalty>  (341) 
-0

>  <r_epik_Charging_Adjusted_Penalty>  (341) 
0

>  <i_epik_Tot_Q>  (341) 
0

>  <i_epik_Tot_abs_Q>  (341) 
0

>  <s_epik_Chemistry_Notes>  (341) 
This compound has an ester and may undergo hydrolysis at high or low pH.

>  <s_lp_Force_Field>  (341) 
OPLS3e

>  <r_lp_Energy>  (341) 
106.071

>  <b_lp_Chiralities_Consistent>  (341) 
1

>  <s_lp_Variant>  (341) 
85:0-1

>  <s_i_glide_gridfile>  (341) 
pfpi4k_grid

>  <i_i_glide_lignum>  (341) 
2

>  <i_i_glide_rotatable_bonds>  (341) 
3

>  <r_i_docking_score>  (341) 
-2.92042

>  <r_i_glide_ligand_efficiency>  (341) 
-0.0858948

>  <r_i_glide_ligand_efficiency_sa>  (341) 
-0.278266

>  <r_i_glide_ligand_efficiency_ln>  (341) 
-0.645203

>  <r_i_glide_gscore>  (341) 
-2.92042

>  <r_i_glide_lipo>  (341) 
-0.091911

>  <r_i_glide_hbond>  (341) 
-0.151125

>  <r_i_glide_metal>  (341) 
-0

>  <r_i_glide_rewards>  (341) 
-0.186432

>  <r_i_glide_evdw>  (341) 
-30.425

>  <r_i_glide_ecoul>  (341) 
-6.63176

>  <r_i_glide_erotb>  (341) 
0.0905161

>  <r_i_glide_esite>  (341) 
-0.0654587

>  <r_i_glide_emodel>  (341) 
-38.123

>  <r_i_glide_energy>  (341) 
-37.0567

>  <r_i_glide_einternal>  (341) 
6.4761

>  <r_i_glide_intrahb_reward>  (341) 
-0

>  <i_i_glide_confnum>  (341) 
3

>  <i_i_glide_posenum>  (341) 
39

>  <r_i_glide_eff_state_penalty>  (341) 
0

>  <ligand_id>  (341) 
85

>  <original_smiles>  (341) 
COC(=O)C12CCC34C(CCC1(C)C3C(O)CC1(C)C3C(CC14)OC1(CCC(C)CO1)C3C)C2

>  <smiles>  (341) 
[H]OC1([H])C([H])([H])C2(C([H])([H])[H])C3([H])C([H])(OC4(OC([H])([H])C([H])(C([H])([H])[H])C([H])([H])C4([H])[H])C3([H])C([H])([H])[H])C([H])([H])C2([H])C23C([H])([H])C([H])([H])C4(C(=O)OC([H])([H])[H])C([H])([H])C2([H])C([H])([H])C([H])([H])C4(C([H])([H])[H])C13[H]

$$$$
85:0:1
     RDKit          3D

 78 84  0  0  1  0  0  0  0  0999 V2000
    4.9958   -9.3742    1.1922 C   0  0  0  0  0  0  0  0  0  0  0  0
    4.6058   -8.0705    1.5768 O   0  0  0  0  0  0  0  0  0  0  0  0
    5.4557   -7.2792    2.2551 C   0  0  0  0  0  0  0  0  0  0  0  0
    6.6073   -7.5904    2.5644 O   0  0  0  0  0  0  0  0  0  0  0  0
    4.8456   -5.9027    2.6324 C   0  0  1  0  0  0  0  0  0  0  0  0
    5.7943   -5.0830    3.5526 C   0  0  0  0  0  0  0  0  0  0  0  0
    5.0189   -3.8796    4.1700 C   0  0  0  0  0  0  0  0  0  0  0  0
    3.7343   -3.5620    3.3359 C   0  0  2  0  0  0  0  0  0  0  0  0
    2.7857   -4.8375    3.4538 C   0  0  1  0  0  0  0  0  0  0  0  0
    1.9731   -5.0398    2.1612 C   0  0  0  0  0  0  0  0  0  0  0  0
    2.9244   -5.4290    0.9975 C   0  0  0  0  0  0  0  0  0  0  0  0
    4.3819   -5.0099    1.3697 C   0  0  2  0  0  0  0  0  0  0  0  0
    5.3503   -5.1488    0.1669 C   0  0  0  0  0  0  0  0  0  0  0  0
    4.3018   -3.5073    1.8587 C   0  0  1  0  0  0  0  0  0  0  0  0
    3.7956   -2.3606    0.8993 C   0  0  1  0  0  0  0  0  0  0  0  0
    3.2651   -2.7528   -0.3471 O   0  0  0  0  0  0  0  0  0  0  0  0
    2.7887   -1.3971    1.5216 C   0  0  0  0  0  0  0  0  0  0  0  0
    3.1881   -0.9749    2.9474 C   0  0  1  0  0  0  0  0  0  0  0  0
    4.5686   -0.2876    2.9728 C   0  0  0  0  0  0  0  0  0  0  0  0
    2.1586   -0.0653    3.6371 C   0  0  2  0  0  0  0  0  0  0  0  0
    0.9856   -0.9613    3.8853 C   0  0  1  0  0  0  0  0  0  0  0  0
    1.6412   -2.2055    4.4864 C   0  0  0  0  0  0  0  0  0  0  0  0
    3.1006   -2.2179    3.8839 C   0  0  1  0  0  0  0  0  0  0  0  0
    0.0753   -0.1114    4.5676 O   0  0  0  0  0  0  0  0  0  0  0  0
    0.2862    1.2120    4.0886 C   0  0  1  0  0  0  0  0  0  0  0  0
   -1.0054    1.7731    3.4607 C   0  0  0  0  0  0  0  0  0  0  0  0
   -2.0893    1.8877    4.5348 C   0  0  0  0  0  0  0  0  0  0  0  0
   -1.5937    2.6906    5.7438 C   0  0  1  0  0  0  0  0  0  0  0  0
   -2.6361    2.6900    6.8741 C   0  0  0  0  0  0  0  0  0  0  0  0
   -0.2481    2.1123    6.2213 C   0  0  0  0  0  0  0  0  0  0  0  0
    0.6844    2.0451    5.1410 O   0  0  0  0  0  0  0  0  0  0  0  0
    1.4360    1.1126    3.0379 C   0  0  1  0  0  0  0  0  0  0  0  0
    2.2677    2.3969    2.8995 C   0  0  0  0  0  0  0  0  0  0  0  0
    3.6225   -6.1252    3.5576 C   0  0  0  0  0  0  0  0  0  0  0  0
    4.1871   -9.8375    0.6215 H   0  0  0  0  0  0  0  0  0  0  0  0
    5.1974   -9.9964    2.0658 H   0  0  0  0  0  0  0  0  0  0  0  0
    5.8847   -9.3474    0.5590 H   0  0  0  0  0  0  0  0  0  0  0  0
    6.2121   -5.6928    4.3538 H   0  0  0  0  0  0  0  0  0  0  0  0
    6.6330   -4.7383    2.9500 H   0  0  0  0  0  0  0  0  0  0  0  0
    4.7438   -4.0959    5.2022 H   0  0  0  0  0  0  0  0  0  0  0  0
    5.6850   -3.0183    4.2171 H   0  0  0  0  0  0  0  0  0  0  0  0
    2.1472   -4.8058    4.3327 H   0  0  0  0  0  0  0  0  0  0  0  0
    1.2243   -5.8188    2.2939 H   0  0  0  0  0  0  0  0  0  0  0  0
    1.4428   -4.1170    1.9476 H   0  0  0  0  0  0  0  0  0  0  0  0
    2.8708   -6.5023    0.8204 H   0  0  0  0  0  0  0  0  0  0  0  0
    2.5872   -4.9995    0.0573 H   0  0  0  0  0  0  0  0  0  0  0  0
    5.0989   -4.4678   -0.6437 H   0  0  0  0  0  0  0  0  0  0  0  0
    5.3153   -6.1532   -0.2566 H   0  0  0  0  0  0  0  0  0  0  0  0
    6.3815   -4.9446    0.4607 H   0  0  0  0  0  0  0  0  0  0  0  0
    5.3415   -3.1879    1.9413 H   0  0  0  0  0  0  0  0  0  0  0  0
    4.6685   -1.7605    0.6374 H   0  0  0  0  0  0  0  0  0  0  0  0
    2.7360   -2.0445   -0.7001 H   0  0  0  0  0  0  0  0  0  0  0  0
    2.6779   -0.5153    0.8844 H   0  0  0  0  0  0  0  0  0  0  0  0
    1.8196   -1.8915    1.5088 H   0  0  0  0  0  0  0  0  0  0  0  0
    4.7913    0.1334    3.9535 H   0  0  0  0  0  0  0  0  0  0  0  0
    4.5997    0.5294    2.2525 H   0  0  0  0  0  0  0  0  0  0  0  0
    5.3822   -0.9690    2.7311 H   0  0  0  0  0  0  0  0  0  0  0  0
    2.5767    0.2426    4.6005 H   0  0  0  0  0  0  0  0  0  0  0  0
    0.4792   -1.2417    2.9611 H   0  0  0  0  0  0  0  0  0  0  0  0
    1.6916   -2.1283    5.5748 H   0  0  0  0  0  0  0  0  0  0  0  0
    1.0157   -3.0640    4.2458 H   0  0  0  0  0  0  0  0  0  0  0  0
    3.7082   -1.9343    4.7436 H   0  0  0  0  0  0  0  0  0  0  0  0
   -0.7875    2.7478    3.0235 H   0  0  0  0  0  0  0  0  0  0  0  0
   -1.3355    1.1152    2.6530 H   0  0  0  0  0  0  0  0  0  0  0  0
   -2.9774    2.3544    4.1042 H   0  0  0  0  0  0  0  0  0  0  0  0
   -2.3730    0.8791    4.8403 H   0  0  0  0  0  0  0  0  0  0  0  0
   -1.4250    3.7228    5.4282 H   0  0  0  0  0  0  0  0  0  0  0  0
   -2.8336    1.6833    7.2381 H   0  0  0  0  0  0  0  0  0  0  0  0
   -3.5857    3.0956    6.5301 H   0  0  0  0  0  0  0  0  0  0  0  0
   -2.3135    3.2870    7.7262 H   0  0  0  0  0  0  0  0  0  0  0  0
    0.1738    2.7417    7.0079 H   0  0  0  0  0  0  0  0  0  0  0  0
   -0.3863    1.1201    6.6557 H   0  0  0  0  0  0  0  0  0  0  0  0
    1.0055    0.8484    2.0691 H   0  0  0  0  0  0  0  0  0  0  0  0
    2.8107    2.6395    3.8125 H   0  0  0  0  0  0  0  0  0  0  0  0
    1.6495    3.2536    2.6345 H   0  0  0  0  0  0  0  0  0  0  0  0
    3.0023    2.2697    2.1055 H   0  0  0  0  0  0  0  0  0  0  0  0
    3.0346   -7.0038    3.2902 H   0  0  0  0  0  0  0  0  0  0  0  0
    3.9306   -6.2957    4.5893 H   0  0  0  0  0  0  0  0  0  0  0  0
  1  2  1  0
  1 35  1  0
  1 36  1  0
  1 37  1  0
  2  3  1  0
  3  4  2  0
  5  3  1  6
  5 12  1  0
  5 34  1  0
  5  6  1  0
  6  7  1  0
  6 38  1  0
  6 39  1  0
  8  7  1  1
  7 40  1  0
  7 41  1  0
  8 14  1  0
  8 23  1  0
  8  9  1  0
  9 10  1  0
  9 34  1  0
  9 42  1  1
 10 11  1  0
 10 43  1  0
 10 44  1  0
 11 12  1  0
 11 45  1  0
 11 46  1  0
 12 13  1  6
 12 14  1  0
 13 47  1  0
 13 48  1  0
 13 49  1  0
 14 15  1  0
 14 50  1  1
 15 16  1  0
 15 17  1  0
 15 51  1  6
 16 52  1  0
 17 18  1  0
 17 53  1  0
 17 54  1  0
 18 23  1  0
 18 19  1  6
 18 20  1  0
 19 55  1  0
 19 56  1  0
 19 57  1  0
 20 32  1  0
 20 21  1  0
 20 58  1  1
 21 22  1  0
 21 24  1  0
 21 59  1  6
 22 23  1  0
 22 60  1  0
 22 61  1  0
 23 62  1  1
 25 24  1  1
 25 31  1  0
 25 26  1  0
 25 32  1  0
 26 27  1  0
 26 63  1  0
 26 64  1  0
 27 28  1  0
 27 65  1  0
 27 66  1  0
 28 29  1  0
 28 30  1  0
 28 67  1  6
 29 68  1  0
 29 69  1  0
 29 70  1  0
 30 31  1  0
 30 71  1  0
 30 72  1  0
 32 33  1  0
 32 73  1  6
 33 74  1  0
 33 75  1  0
 33 76  1  0
 34 77  1  0
 34 78  1  0
M  END
>  <i_m_ct_stereo_status>  (342) 
1

>  <s_m_source_file>  (342) 
/var/tmp/pbs.5076255.sched01/tmpg_ssl3dq/162k0u29fl7.sdf

>  <i_m_source_file_index>  (342) 
2

>  <i_lp_mmshare_version>  (342) 
48012

>  <i_f3d_flags>  (342) 
0

>  <s_epik_input>  (342) 
W0NIM11PQyg9TylbQ0BAXShbQ0gyXTEpKFtDSDJdW0NIMl0yKVtDQEBdKFtDSDNdKShbQ0gyXVtDSDJdW0NAQEhdMVtDQEBdMjM0KVtDQEhdM1tDQEBIXShbT0hdKVtDSDJdW0NAQF01KFtDSDNdKVtDQEBIXTZbQ0BASF0oW0NIMl1bQ0BASF00NSlPW0NAQF03KFtDQEhdNltDSDNdKVtDSDJdW0NIMl1bQ0BASF0oW0NIM10pW0NIMl1PNw==

>  <s_epik_cmdline>  (342) 
J2VwaWtfcHl0aG9uJywgJy1waHQnLCAnMi4wJywgJy1waCcsICc3LjAnLCAnLXRuJywgJzgnLCAnLW1hJywgJzIwMCcsICctaW1hZScsICc8aW5maWxlLm1hZT4nLCAnLW9tYWUnLCAnPG91dGZpbGUubWFlPic=

>  <r_lp_tautomer_probability>  (342) 
1

>  <r_epik_Ionization_Penalty>  (342) 
1.15011e-06

>  <r_epik_Ionization_Penalty_Charging>  (342) 
0

>  <r_epik_Ionization_Penalty_Neutral>  (342) 
1.15011e-06

>  <r_epik_State_Penalty>  (342) 
-0

>  <r_epik_Charging_Adjusted_Penalty>  (342) 
0

>  <i_epik_Tot_Q>  (342) 
0

>  <i_epik_Tot_abs_Q>  (342) 
0

>  <s_epik_Chemistry_Notes>  (342) 
This compound has an ester and may undergo hydrolysis at high or low pH.

>  <s_lp_Force_Field>  (342) 
OPLS3e

>  <r_lp_Energy>  (342) 
106.071

>  <b_lp_Chiralities_Consistent>  (342) 
1

>  <s_lp_Variant>  (342) 
85:0-1

>  <s_i_glide_gridfile>  (342) 
pfpi4k_grid

>  <i_i_glide_lignum>  (342) 
2

>  <i_i_glide_rotatable_bonds>  (342) 
3

>  <r_i_docking_score>  (342) 
-2.43102

>  <r_i_glide_ligand_efficiency>  (342) 
-0.0715005

>  <r_i_glide_ligand_efficiency_sa>  (342) 
-0.231634

>  <r_i_glide_ligand_efficiency_ln>  (342) 
-0.53708

>  <r_i_glide_gscore>  (342) 
-2.43102

>  <r_i_glide_lipo>  (342) 
-0.422768

>  <r_i_glide_hbond>  (342) 
-0.0640329

>  <r_i_glide_metal>  (342) 
-0

>  <r_i_glide_rewards>  (342) 
-0.213763

>  <r_i_glide_evdw>  (342) 
-29.8429

>  <r_i_glide_ecoul>  (342) 
-2.08725

>  <r_i_glide_erotb>  (342) 
0.0905161

>  <r_i_glide_esite>  (342) 
-0.0157394

>  <r_i_glide_emodel>  (342) 
-37.0821

>  <r_i_glide_energy>  (342) 
-31.9301

>  <r_i_glide_einternal>  (342) 
1.03262

>  <r_i_glide_intrahb_reward>  (342) 
-0

>  <i_i_glide_confnum>  (342) 
3

>  <i_i_glide_posenum>  (342) 
32

>  <r_i_glide_eff_state_penalty>  (342) 
0

>  <ligand_id>  (342) 
85

>  <original_smiles>  (342) 
COC(=O)C12CCC34C(CCC1(C)C3C(O)CC1(C)C3C(CC14)OC1(CCC(C)CO1)C3C)C2

>  <smiles>  (342) 
[H]OC1([H])C([H])([H])C2(C([H])([H])[H])C3([H])C([H])(OC4(OC([H])([H])C([H])(C([H])([H])[H])C([H])([H])C4([H])[H])C3([H])C([H])([H])[H])C([H])([H])C2([H])C23C([H])([H])C([H])([H])C4(C(=O)OC([H])([H])[H])C([H])([H])C2([H])C([H])([H])C([H])([H])C4(C([H])([H])[H])C13[H]

$$$$
85:0:2
     RDKit          3D

 78 84  0  0  1  0  0  0  0  0999 V2000
    3.4191  -12.1863    4.3532 C   0  0  0  0  0  0  0  0  0  0  0  0
    3.3286  -10.7726    4.3439 O   0  0  0  0  0  0  0  0  0  0  0  0
    2.1179  -10.1845    4.2853 C   0  0  0  0  0  0  0  0  0  0  0  0
    1.0496  -10.7959    4.2341 O   0  0  0  0  0  0  0  0  0  0  0  0
    2.1898   -8.6320    4.2487 C   0  0  1  0  0  0  0  0  0  0  0  0
    3.1917   -8.0823    5.3075 C   0  0  0  0  0  0  0  0  0  0  0  0
    2.9918   -6.5440    5.4623 C   0  0  0  0  0  0  0  0  0  0  0  0
    2.2435   -5.9451    4.2223 C   0  0  2  0  0  0  0  0  0  0  0  0
    0.7918   -6.5950    4.1936 C   0  0  1  0  0  0  0  0  0  0  0  0
    0.2889   -6.7823    2.7430 C   0  0  0  0  0  0  0  0  0  0  0  0
    1.1494   -7.8661    2.0407 C   0  0  0  0  0  0  0  0  0  0  0  0
    2.5090   -8.0140    2.7914 C   0  0  2  0  0  0  0  0  0  0  0  0
    3.5119   -8.8763    1.9814 C   0  0  0  0  0  0  0  0  0  0  0  0
    3.0654   -6.5518    3.0124 C   0  0  1  0  0  0  0  0  0  0  0  0
    3.4150   -5.6126    1.7952 C   0  0  1  0  0  0  0  0  0  0  0  0
    3.0361   -6.0595    0.5145 O   0  0  0  0  0  0  0  0  0  0  0  0
    2.9048   -4.1788    1.9148 C   0  0  0  0  0  0  0  0  0  0  0  0
    3.1373   -3.5948    3.3201 C   0  0  1  0  0  0  0  0  0  0  0  0
    4.6330   -3.5879    3.6898 C   0  0  0  0  0  0  0  0  0  0  0  0
    2.5669   -2.1800    3.5108 C   0  0  2  0  0  0  0  0  0  0  0  0
    1.0855   -2.3741    3.4998 C   0  0  1  0  0  0  0  0  0  0  0  0
    0.8973   -3.5611    4.4442 C   0  0  0  0  0  0  0  0  0  0  0  0
    2.2505   -4.3667    4.3427 C   0  0  1  0  0  0  0  0  0  0  0  0
    0.5858   -1.0679    3.7282 O   0  0  0  0  0  0  0  0  0  0  0  0
    1.5081   -0.1509    3.1524 C   0  0  1  0  0  0  0  0  0  0  0  0
    0.8144    0.7118    2.0772 C   0  0  0  0  0  0  0  0  0  0  0  0
   -0.2865    1.5628    2.7154 C   0  0  0  0  0  0  0  0  0  0  0  0
    0.2786    2.3788    3.8839 C   0  0  1  0  0  0  0  0  0  0  0  0
   -0.8436    3.1429    4.6031 C   0  0  0  0  0  0  0  0  0  0  0  0
    1.0363    1.4409    4.8436 C   0  0  0  0  0  0  0  0  0  0  0  0
    2.0295    0.6870    4.1443 O   0  0  0  0  0  0  0  0  0  0  0  0
    2.6578   -1.0235    2.5484 C   0  0  1  0  0  0  0  0  0  0  0  0
    4.0245   -0.3206    2.5072 C   0  0  0  0  0  0  0  0  0  0  0  0
    0.8408   -8.0303    4.7446 C   0  0  0  0  0  0  0  0  0  0  0  0
    4.4653  -12.4911    4.3800 H   0  0  0  0  0  0  0  0  0  0  0  0
    2.9673  -12.6126    3.4539 H   0  0  0  0  0  0  0  0  0  0  0  0
    2.9140  -12.6017    5.2290 H   0  0  0  0  0  0  0  0  0  0  0  0
    3.0568   -8.5736    6.2736 H   0  0  0  0  0  0  0  0  0  0  0  0
    4.2163   -8.3061    5.0019 H   0  0  0  0  0  0  0  0  0  0  0  0
    2.4295   -6.3280    6.3722 H   0  0  0  0  0  0  0  0  0  0  0  0
    3.9677   -6.0746    5.5994 H   0  0  0  0  0  0  0  0  0  0  0  0
    0.0737   -6.0527    4.8058 H   0  0  0  0  0  0  0  0  0  0  0  0
   -0.7563   -7.0931    2.7358 H   0  0  0  0  0  0  0  0  0  0  0  0
    0.3418   -5.8413    2.2014 H   0  0  0  0  0  0  0  0  0  0  0  0
    0.6304   -8.8273    2.0460 H   0  0  0  0  0  0  0  0  0  0  0  0
    1.2722   -7.6278    0.9875 H   0  0  0  0  0  0  0  0  0  0  0  0
    3.7988   -8.4051    1.0456 H   0  0  0  0  0  0  0  0  0  0  0  0
    3.0824   -9.8454    1.7214 H   0  0  0  0  0  0  0  0  0  0  0  0
    4.4238   -9.0554    2.5512 H   0  0  0  0  0  0  0  0  0  0  0  0
    4.0805   -6.7046    3.3856 H   0  0  0  0  0  0  0  0  0  0  0  0
    4.5042   -5.5541    1.7534 H   0  0  0  0  0  0  0  0  0  0  0  0
    3.4220   -5.5016   -0.1467 H   0  0  0  0  0  0  0  0  0  0  0  0
    3.3786   -3.5495    1.1601 H   0  0  0  0  0  0  0  0  0  0  0  0
    1.8453   -4.1937    1.6694 H   0  0  0  0  0  0  0  0  0  0  0  0
    4.8113   -3.0529    4.6229 H   0  0  0  0  0  0  0  0  0  0  0  0
    5.2225   -3.0986    2.9134 H   0  0  0  0  0  0  0  0  0  0  0  0
    5.0328   -4.5915    3.8215 H   0  0  0  0  0  0  0  0  0  0  0  0
    2.8655   -1.8259    4.5041 H   0  0  0  0  0  0  0  0  0  0  0  0
    0.7251   -2.6457    2.5100 H   0  0  0  0  0  0  0  0  0  0  0  0
    0.7414   -3.2218    5.4702 H   0  0  0  0  0  0  0  0  0  0  0  0
    0.0014   -4.0941    4.1338 H   0  0  0  0  0  0  0  0  0  0  0  0
    2.7193   -4.1490    5.3022 H   0  0  0  0  0  0  0  0  0  0  0  0
    1.5665    1.3476    1.6081 H   0  0  0  0  0  0  0  0  0  0  0  0
    0.3973    0.0708    1.2969 H   0  0  0  0  0  0  0  0  0  0  0  0
   -0.7016    2.2324    1.9608 H   0  0  0  0  0  0  0  0  0  0  0  0
   -1.0999    0.9181    3.0502 H   0  0  0  0  0  0  0  0  0  0  0  0
    0.9922    3.1026    3.4845 H   0  0  0  0  0  0  0  0  0  0  0  0
   -1.5844    2.4611    5.0204 H   0  0  0  0  0  0  0  0  0  0  0  0
   -1.3665    3.8090    3.9178 H   0  0  0  0  0  0  0  0  0  0  0  0
   -0.4584    3.7485    5.4221 H   0  0  0  0  0  0  0  0  0  0  0  0
    1.5329    2.0189    5.6253 H   0  0  0  0  0  0  0  0  0  0  0  0
    0.3412    0.7648    5.3483 H   0  0  0  0  0  0  0  0  0  0  0  0
    2.3689   -1.3332    1.5414 H   0  0  0  0  0  0  0  0  0  0  0  0
    4.4044   -0.0908    3.5026 H   0  0  0  0  0  0  0  0  0  0  0  0
    3.9739    0.6053    1.9376 H   0  0  0  0  0  0  0  0  0  0  0  0
    4.7609   -0.9595    2.0182 H   0  0  0  0  0  0  0  0  0  0  0  0
   -0.0377   -8.5922    4.4253 H   0  0  0  0  0  0  0  0  0  0  0  0
    0.7887   -8.0251    5.8336 H   0  0  0  0  0  0  0  0  0  0  0  0
  1  2  1  0
  1 35  1  0
  1 36  1  0
  1 37  1  0
  2  3  1  0
  3  4  2  0
  5  3  1  6
  5 12  1  0
  5 34  1  0
  5  6  1  0
  6  7  1  0
  6 38  1  0
  6 39  1  0
  8  7  1  1
  7 40  1  0
  7 41  1  0
  8 14  1  0
  8 23  1  0
  8  9  1  0
  9 10  1  0
  9 34  1  0
  9 42  1  1
 10 11  1  0
 10 43  1  0
 10 44  1  0
 11 12  1  0
 11 45  1  0
 11 46  1  0
 12 13  1  6
 12 14  1  0
 13 47  1  0
 13 48  1  0
 13 49  1  0
 14 15  1  0
 14 50  1  1
 15 16  1  0
 15 17  1  0
 15 51  1  6
 16 52  1  0
 17 18  1  0
 17 53  1  0
 17 54  1  0
 18 23  1  0
 18 19  1  1
 18 20  1  0
 19 55  1  0
 19 56  1  0
 19 57  1  0
 20 32  1  0
 20 21  1  0
 20 58  1  1
 21 22  1  0
 21 24  1  0
 21 59  1  6
 22 23  1  0
 22 60  1  0
 22 61  1  0
 23 62  1  1
 25 24  1  1
 25 31  1  0
 25 26  1  0
 25 32  1  0
 26 27  1  0
 26 63  1  0
 26 64  1  0
 27 28  1  0
 27 65  1  0
 27 66  1  0
 28 29  1  0
 28 30  1  0
 28 67  1  6
 29 68  1  0
 29 69  1  0
 29 70  1  0
 30 31  1  0
 30 71  1  0
 30 72  1  0
 32 33  1  0
 32 73  1  6
 33 74  1  0
 33 75  1  0
 33 76  1  0
 34 77  1  0
 34 78  1  0
M  END
>  <i_m_ct_stereo_status>  (343) 
1

>  <s_m_source_file>  (343) 
/var/tmp/pbs.5076255.sched01/tmpg_ssl3dq/162k0u29fl7.sdf

>  <i_m_source_file_index>  (343) 
2

>  <i_lp_mmshare_version>  (343) 
48012

>  <i_f3d_flags>  (343) 
0

>  <s_epik_input>  (343) 
W0NIM11PQyg9TylbQ0BAXShbQ0gyXTEpKFtDSDJdW0NIMl0yKVtDQEBdKFtDSDNdKShbQ0gyXVtDSDJdW0NAQEhdMVtDQEBdMjM0KVtDQEhdM1tDQEBIXShbT0hdKVtDSDJdW0NAQF01KFtDSDNdKVtDQEBIXTZbQ0BASF0oW0NIMl1bQ0BASF00NSlPW0NAQF03KFtDQEhdNltDSDNdKVtDSDJdW0NIMl1bQ0BASF0oW0NIM10pW0NIMl1PNw==

>  <s_epik_cmdline>  (343) 
J2VwaWtfcHl0aG9uJywgJy1waHQnLCAnMi4wJywgJy1waCcsICc3LjAnLCAnLXRuJywgJzgnLCAnLW1hJywgJzIwMCcsICctaW1hZScsICc8aW5maWxlLm1hZT4nLCAnLW9tYWUnLCAnPG91dGZpbGUubWFlPic=

>  <r_lp_tautomer_probability>  (343) 
1

>  <r_epik_Ionization_Penalty>  (343) 
1.15011e-06

>  <r_epik_Ionization_Penalty_Charging>  (343) 
0

>  <r_epik_Ionization_Penalty_Neutral>  (343) 
1.15011e-06

>  <r_epik_State_Penalty>  (343) 
-0

>  <r_epik_Charging_Adjusted_Penalty>  (343) 
0

>  <i_epik_Tot_Q>  (343) 
0

>  <i_epik_Tot_abs_Q>  (343) 
0

>  <s_epik_Chemistry_Notes>  (343) 
This compound has an ester and may undergo hydrolysis at high or low pH.

>  <s_lp_Force_Field>  (343) 
OPLS3e

>  <r_lp_Energy>  (343) 
106.071

>  <b_lp_Chiralities_Consistent>  (343) 
1

>  <s_lp_Variant>  (343) 
85:0-1

>  <s_i_glide_gridfile>  (343) 
pfpi4k_grid

>  <i_i_glide_lignum>  (343) 
2

>  <i_i_glide_rotatable_bonds>  (343) 
3

>  <r_i_docking_score>  (343) 
-2.15264

>  <r_i_glide_ligand_efficiency>  (343) 
-0.0633128

>  <r_i_glide_ligand_efficiency_sa>  (343) 
-0.205109

>  <r_i_glide_ligand_efficiency_ln>  (343) 
-0.475578

>  <r_i_glide_gscore>  (343) 
-2.15264

>  <r_i_glide_lipo>  (343) 
-0.159728

>  <r_i_glide_hbond>  (343) 
0

>  <r_i_glide_metal>  (343) 
-0

>  <r_i_glide_rewards>  (343) 
-0.186432

>  <r_i_glide_evdw>  (343) 
-31.5522

>  <r_i_glide_ecoul>  (343) 
-1.92172

>  <r_i_glide_erotb>  (343) 
0.0905161

>  <r_i_glide_esite>  (343) 
-0.0311256

>  <r_i_glide_emodel>  (343) 
-38.0624

>  <r_i_glide_energy>  (343) 
-33.4739

>  <r_i_glide_einternal>  (343) 
1.01207

>  <r_i_glide_intrahb_reward>  (343) 
-0

>  <i_i_glide_confnum>  (343) 
2

>  <i_i_glide_posenum>  (343) 
10

>  <r_i_glide_eff_state_penalty>  (343) 
0

>  <ligand_id>  (343) 
85

>  <original_smiles>  (343) 
COC(=O)C12CCC34C(CCC1(C)C3C(O)CC1(C)C3C(CC14)OC1(CCC(C)CO1)C3C)C2

>  <smiles>  (343) 
[H]OC1([H])C([H])([H])C2(C([H])([H])[H])C3([H])C([H])(OC4(OC([H])([H])C([H])(C([H])([H])[H])C([H])([H])C4([H])[H])C3([H])C([H])([H])[H])C([H])([H])C2([H])C23C([H])([H])C([H])([H])C4(C(=O)OC([H])([H])[H])C([H])([H])C2([H])C([H])([H])C([H])([H])C4(C([H])([H])[H])C13[H]

$$$$
86:0:0
     RDKit          3D

 14 15  0  0  1  0  0  0  0  0999 V2000
    3.3442   -3.0259   -3.6243 C   0  0  0  0  0  0  0  0  0  0  0  0
    3.0202   -2.2534   -2.5419 C   0  0  0  0  0  0  0  0  0  0  0  0
    4.0324   -1.9115   -1.6995 N   0  0  0  0  0  0  0  0  0  0  0  0
    4.0690   -1.1636   -0.5373 C   0  0  0  0  0  0  0  0  0  0  0  0
    5.3726   -1.1483   -0.1214 C   0  0  0  0  0  0  0  0  0  0  0  0
    6.1816   -1.8514   -1.0075 N   0  0  0  0  0  0  0  0  0  0  0  0
    5.3626   -2.3324   -1.9424 C   0  0  0  0  0  0  0  0  0  0  0  0
    5.5762   -3.1381   -3.0979 C   0  0  0  0  0  0  0  0  0  0  0  0
    4.6122   -3.4579   -3.9148 N   0  0  0  0  0  0  0  0  0  0  0  0
    2.5761   -3.3295   -4.3247 H   0  0  0  0  0  0  0  0  0  0  0  0
    2.0182   -1.8959   -2.3223 H   0  0  0  0  0  0  0  0  0  0  0  0
    3.1553   -0.7332   -0.1522 H   0  0  0  0  0  0  0  0  0  0  0  0
    5.8005   -0.6697    0.7513 H   0  0  0  0  0  0  0  0  0  0  0  0
    6.5856   -3.4631   -3.3154 H   0  0  0  0  0  0  0  0  0  0  0  0
  1  9  1  0
  1  2  2  0
  1 10  1  0
  2  3  1  0
  2 11  1  0
  3  7  1  0
  3  4  1  0
  4  5  2  0
  4 12  1  0
  5  6  1  0
  5 13  1  0
  6  7  2  0
  7  8  1  0
  8  9  2  0
  8 14  1  0
M  END
>  <i_m_ct_stereo_status>  (344) 
1

>  <s_m_source_file>  (344) 
/var/tmp/pbs.5076255.sched01/tmpg_ssl3dq/162k0u29fl7.sdf

>  <i_m_source_file_index>  (344) 
3

>  <i_lp_mmshare_version>  (344) 
48012

>  <i_f3d_flags>  (344) 
0

>  <s_epik_input>  (344) 
W2NIXTFbY0hdbltjSF1jKG4xMiluW2NIXVtjSF0y

>  <s_epik_cmdline>  (344) 
J2VwaWtfcHl0aG9uJywgJy1waHQnLCAnMi4wJywgJy1waCcsICc3LjAnLCAnLXRuJywgJzgnLCAnLW1hJywgJzIwMCcsICctaW1hZScsICc8aW5maWxlLm1hZT4nLCAnLW9tYWUnLCAnPG91dGZpbGUubWFlPic=

>  <r_epik_Ionization_Penalty>  (344) 
0.00111141

>  <r_epik_Ionization_Penalty_Charging>  (344) 
0.00109014

>  <r_epik_Ionization_Penalty_Neutral>  (344) 
2.12691e-05

>  <r_epik_State_Penalty>  (344) 
0.000714773

>  <r_epik_Charging_Adjusted_Penalty>  (344) 
0.00180491

>  <i_epik_Tot_Q>  (344) 
0

>  <i_epik_Tot_abs_Q>  (344) 
0

>  <s_lp_Force_Field>  (344) 
OPLS3e

>  <r_lp_Energy>  (344) 
12.2293

>  <b_lp_Chiralities_Consistent>  (344) 
1

>  <s_lp_Variant>  (344) 
86:0-1

>  <s_i_glide_gridfile>  (344) 
pfpi4k_grid

>  <i_i_glide_lignum>  (344) 
3

>  <i_i_glide_rotatable_bonds>  (344) 
0

>  <r_i_docking_score>  (344) 
-4.45866

>  <r_i_glide_ligand_efficiency>  (344) 
-0.495406

>  <r_i_glide_ligand_efficiency_sa>  (344) 
-1.03049

>  <r_i_glide_ligand_efficiency_ln>  (344) 
-1.39454

>  <r_i_glide_gscore>  (344) 
-4.45866

>  <r_i_glide_lipo>  (344) 
-0.39301

>  <r_i_glide_hbond>  (344) 
-0.114604

>  <r_i_glide_metal>  (344) 
-0

>  <r_i_glide_rewards>  (344) 
-2.25

>  <r_i_glide_evdw>  (344) 
-16.6916

>  <r_i_glide_ecoul>  (344) 
-5.47035

>  <r_i_glide_erotb>  (344) 
0

>  <r_i_glide_esite>  (344) 
-0.0459126

>  <r_i_glide_emodel>  (344) 
-28.8743

>  <r_i_glide_energy>  (344) 
-22.1619

>  <r_i_glide_einternal>  (344) 
0

>  <r_i_glide_intrahb_reward>  (344) 
-0

>  <i_i_glide_confnum>  (344) 
1

>  <i_i_glide_posenum>  (344) 
1

>  <r_i_glide_eff_state_penalty>  (344) 
0

>  <ligand_id>  (344) 
86

>  <original_smiles>  (344) 
c1cn2ccnc2cn1

>  <smiles>  (344) 
[H]c1nc([H])c2nc([H])c([H])n2c1[H]

$$$$
86:0:1
     RDKit          3D

 14 15  0  0  1  0  0  0  0  0999 V2000
    5.2047   -1.4657   -0.4668 C   0  0  0  0  0  0  0  0  0  0  0  0
    3.9162   -1.5859   -0.9222 C   0  0  0  0  0  0  0  0  0  0  0  0
    3.7448   -2.2716   -2.0824 N   0  0  0  0  0  0  0  0  0  0  0  0
    2.6152   -2.5709   -2.8119 C   0  0  0  0  0  0  0  0  0  0  0  0
    3.0283   -3.2622   -3.9128 C   0  0  0  0  0  0  0  0  0  0  0  0
    4.4106   -3.4224   -3.9063 N   0  0  0  0  0  0  0  0  0  0  0  0
    4.8371   -2.8332   -2.7879 C   0  0  0  0  0  0  0  0  0  0  0  0
    6.1267   -2.6609   -2.2024 C   0  0  0  0  0  0  0  0  0  0  0  0
    6.3070   -1.9878   -1.0998 N   0  0  0  0  0  0  0  0  0  0  0  0
    5.4132   -0.9319    0.4553 H   0  0  0  0  0  0  0  0  0  0  0  0
    3.0339   -1.1701   -0.4338 H   0  0  0  0  0  0  0  0  0  0  0  0
    1.6461   -2.2551   -2.4554 H   0  0  0  0  0  0  0  0  0  0  0  0
    2.4186   -3.6641   -4.7042 H   0  0  0  0  0  0  0  0  0  0  0  0
    6.9902   -3.0797   -2.7030 H   0  0  0  0  0  0  0  0  0  0  0  0
  1  9  1  0
  1  2  2  0
  1 10  1  0
  2  3  1  0
  2 11  1  0
  3  7  1  0
  3  4  1  0
  4  5  2  0
  4 12  1  0
  5  6  1  0
  5 13  1  0
  6  7  2  0
  7  8  1  0
  8  9  2  0
  8 14  1  0
M  END
>  <i_m_ct_stereo_status>  (345) 
1

>  <s_m_source_file>  (345) 
/var/tmp/pbs.5076255.sched01/tmpg_ssl3dq/162k0u29fl7.sdf

>  <i_m_source_file_index>  (345) 
3

>  <i_lp_mmshare_version>  (345) 
48012

>  <i_f3d_flags>  (345) 
0

>  <s_epik_input>  (345) 
W2NIXTFbY0hdbltjSF1jKG4xMiluW2NIXVtjSF0y

>  <s_epik_cmdline>  (345) 
J2VwaWtfcHl0aG9uJywgJy1waHQnLCAnMi4wJywgJy1waCcsICc3LjAnLCAnLXRuJywgJzgnLCAnLW1hJywgJzIwMCcsICctaW1hZScsICc8aW5maWxlLm1hZT4nLCAnLW9tYWUnLCAnPG91dGZpbGUubWFlPic=

>  <r_epik_Ionization_Penalty>  (345) 
0.00111141

>  <r_epik_Ionization_Penalty_Charging>  (345) 
0.00109014

>  <r_epik_Ionization_Penalty_Neutral>  (345) 
2.12691e-05

>  <r_epik_State_Penalty>  (345) 
0.000714773

>  <r_epik_Charging_Adjusted_Penalty>  (345) 
0.00180491

>  <i_epik_Tot_Q>  (345) 
0

>  <i_epik_Tot_abs_Q>  (345) 
0

>  <s_lp_Force_Field>  (345) 
OPLS3e

>  <r_lp_Energy>  (345) 
12.2293

>  <b_lp_Chiralities_Consistent>  (345) 
1

>  <s_lp_Variant>  (345) 
86:0-1

>  <s_i_glide_gridfile>  (345) 
pfpi4k_grid

>  <i_i_glide_lignum>  (345) 
3

>  <i_i_glide_rotatable_bonds>  (345) 
0

>  <r_i_docking_score>  (345) 
-4.34113

>  <r_i_glide_ligand_efficiency>  (345) 
-0.482348

>  <r_i_glide_ligand_efficiency_sa>  (345) 
-1.00332

>  <r_i_glide_ligand_efficiency_ln>  (345) 
-1.35778

>  <r_i_glide_gscore>  (345) 
-4.34113

>  <r_i_glide_lipo>  (345) 
-0.107551

>  <r_i_glide_hbond>  (345) 
-0.139469

>  <r_i_glide_metal>  (345) 
-0

>  <r_i_glide_rewards>  (345) 
-2.43933

>  <r_i_glide_evdw>  (345) 
-16.7065

>  <r_i_glide_ecoul>  (345) 
-5.31383

>  <r_i_glide_erotb>  (345) 
0

>  <r_i_glide_esite>  (345) 
-0.0223877

>  <r_i_glide_emodel>  (345) 
-28.5499

>  <r_i_glide_energy>  (345) 
-22.0203

>  <r_i_glide_einternal>  (345) 
0

>  <r_i_glide_intrahb_reward>  (345) 
-0

>  <i_i_glide_confnum>  (345) 
2

>  <i_i_glide_posenum>  (345) 
25

>  <r_i_glide_eff_state_penalty>  (345) 
0

>  <ligand_id>  (345) 
86

>  <original_smiles>  (345) 
c1cn2ccnc2cn1

>  <smiles>  (345) 
[H]c1nc([H])c2nc([H])c([H])n2c1[H]

$$$$
86:0:2
     RDKit          3D

 14 15  0  0  1  0  0  0  0  0999 V2000
    2.7383   -1.9155   -3.6816 C   0  0  0  0  0  0  0  0  0  0  0  0
    3.1921   -3.0564   -3.0780 C   0  0  0  0  0  0  0  0  0  0  0  0
    4.2962   -2.9433   -2.2935 N   0  0  0  0  0  0  0  0  0  0  0  0
    5.0156   -3.8679   -1.5603 C   0  0  0  0  0  0  0  0  0  0  0  0
    6.0484   -3.1874   -0.9774 C   0  0  0  0  0  0  0  0  0  0  0  0
    6.0134   -1.8455   -1.3279 N   0  0  0  0  0  0  0  0  0  0  0  0
    4.9398   -1.6996   -2.1055 C   0  0  0  0  0  0  0  0  0  0  0  0
    4.3595   -0.5808   -2.7716 C   0  0  0  0  0  0  0  0  0  0  0  0
    3.3251   -0.6854   -3.5528 N   0  0  0  0  0  0  0  0  0  0  0  0
    1.8525   -1.9430   -4.3088 H   0  0  0  0  0  0  0  0  0  0  0  0
    2.7165   -4.0256   -3.1850 H   0  0  0  0  0  0  0  0  0  0  0  0
    4.7112   -4.9059   -1.5460 H   0  0  0  0  0  0  0  0  0  0  0  0
    6.8310   -3.5596   -0.3296 H   0  0  0  0  0  0  0  0  0  0  0  0
    4.8269    0.3892   -2.6690 H   0  0  0  0  0  0  0  0  0  0  0  0
  1  9  1  0
  1  2  2  0
  1 10  1  0
  2  3  1  0
  2 11  1  0
  3  7  1  0
  3  4  1  0
  4  5  2  0
  4 12  1  0
  5  6  1  0
  5 13  1  0
  6  7  2  0
  7  8  1  0
  8  9  2  0
  8 14  1  0
M  END
>  <i_m_ct_stereo_status>  (346) 
1

>  <s_m_source_file>  (346) 
/var/tmp/pbs.5076255.sched01/tmpg_ssl3dq/162k0u29fl7.sdf

>  <i_m_source_file_index>  (346) 
3

>  <i_lp_mmshare_version>  (346) 
48012

>  <i_f3d_flags>  (346) 
0

>  <s_epik_input>  (346) 
W2NIXTFbY0hdbltjSF1jKG4xMiluW2NIXVtjSF0y

>  <s_epik_cmdline>  (346) 
J2VwaWtfcHl0aG9uJywgJy1waHQnLCAnMi4wJywgJy1waCcsICc3LjAnLCAnLXRuJywgJzgnLCAnLW1hJywgJzIwMCcsICctaW1hZScsICc8aW5maWxlLm1hZT4nLCAnLW9tYWUnLCAnPG91dGZpbGUubWFlPic=

>  <r_epik_Ionization_Penalty>  (346) 
0.00111141

>  <r_epik_Ionization_Penalty_Charging>  (346) 
0.00109014

>  <r_epik_Ionization_Penalty_Neutral>  (346) 
2.12691e-05

>  <r_epik_State_Penalty>  (346) 
0.000714773

>  <r_epik_Charging_Adjusted_Penalty>  (346) 
0.00180491

>  <i_epik_Tot_Q>  (346) 
0

>  <i_epik_Tot_abs_Q>  (346) 
0

>  <s_lp_Force_Field>  (346) 
OPLS3e

>  <r_lp_Energy>  (346) 
12.2293

>  <b_lp_Chiralities_Consistent>  (346) 
1

>  <s_lp_Variant>  (346) 
86:0-1

>  <s_i_glide_gridfile>  (346) 
pfpi4k_grid

>  <i_i_glide_lignum>  (346) 
3

>  <i_i_glide_rotatable_bonds>  (346) 
0

>  <r_i_docking_score>  (346) 
-4.2497

>  <r_i_glide_ligand_efficiency>  (346) 
-0.472189

>  <r_i_glide_ligand_efficiency_sa>  (346) 
-0.982192

>  <r_i_glide_ligand_efficiency_ln>  (346) 
-1.32918

>  <r_i_glide_gscore>  (346) 
-4.2497

>  <r_i_glide_lipo>  (346) 
-0.40551

>  <r_i_glide_hbond>  (346) 
-0.0911425

>  <r_i_glide_metal>  (346) 
-0

>  <r_i_glide_rewards>  (346) 
-2.25

>  <r_i_glide_evdw>  (346) 
-15.162

>  <r_i_glide_ecoul>  (346) 
-4.77783

>  <r_i_glide_erotb>  (346) 
0

>  <r_i_glide_esite>  (346) 
-0.0282718

>  <r_i_glide_emodel>  (346) 
-26.3355

>  <r_i_glide_energy>  (346) 
-19.9398

>  <r_i_glide_einternal>  (346) 
0

>  <r_i_glide_intrahb_reward>  (346) 
-0

>  <i_i_glide_confnum>  (346) 
1

>  <i_i_glide_posenum>  (346) 
7

>  <r_i_glide_eff_state_penalty>  (346) 
0

>  <ligand_id>  (346) 
86

>  <original_smiles>  (346) 
c1cn2ccnc2cn1

>  <smiles>  (346) 
[H]c1nc([H])c2nc([H])c([H])n2c1[H]

$$$$
88:0:0
     RDKit          3D

 43 47  0  0  1  0  0  0  0  0999 V2000
    3.9575   -0.3183   -4.1372 C   0  0  0  0  0  0  0  0  0  0  0  0
    4.0439   -0.4540   -2.7326 O   0  0  0  0  0  0  0  0  0  0  0  0
    3.9828   -1.7795   -2.2259 C   0  0  2  0  0  0  0  0  0  0  0  0
    2.7746   -2.6260   -2.7278 C   0  0  1  0  0  0  0  0  0  0  0  0
    3.0970   -3.5361   -3.9193 C   0  0  0  0  0  0  0  0  0  0  0  0
    2.3504   -3.4005   -1.4922 C   0  0  0  0  0  0  0  0  0  0  0  0
    1.3849   -4.1902   -1.4485 O   0  0  0  0  0  0  0  0  0  0  0  0
    3.1959   -3.0382   -0.2968 C   0  0  2  0  0  0  0  0  0  0  0  0
    2.5095   -2.8935    1.0674 C   0  0  0  0  0  0  0  0  0  0  0  0
    3.4820   -2.3861    2.1689 C   0  0  1  0  0  0  0  0  0  0  0  0
    4.5581   -1.3158    1.6589 C   0  0  1  0  0  0  0  0  0  0  0  0
    5.7937   -1.5184    2.3120 O   0  0  0  0  0  0  0  0  0  0  0  0
    4.9400   -1.3357    0.1597 C   0  0  0  0  0  0  0  0  0  0  0  0
    3.7526   -1.6793   -0.7149 C   0  0  1  0  0  0  0  0  0  0  0  0
    4.0477   -0.0019    2.1650 C   0  0  1  0  0  0  0  0  0  0  0  0
    2.6997   -0.2636    2.7511 C   0  0  1  0  0  0  0  0  0  0  0  0
    2.7059   -1.6607    3.3019 C   0  0  1  0  0  0  0  0  0  0  0  0
    1.4309   -2.2193    3.6078 O   0  0  0  0  0  0  0  0  0  0  0  0
    3.5675   -1.1566    4.4808 C   0  0  0  0  0  0  0  0  0  0  0  0
    3.8403    0.0856    3.6669 C   0  0  1  0  0  0  0  0  0  0  0  0
    3.8363    1.3766    4.2095 O   0  0  0  0  0  0  0  0  0  0  0  0
    4.1859    0.7100   -4.4249 H   0  0  0  0  0  0  0  0  0  0  0  0
    2.9495   -0.5377   -4.4917 H   0  0  0  0  0  0  0  0  0  0  0  0
    4.6614   -0.9745   -4.6456 H   0  0  0  0  0  0  0  0  0  0  0  0
    4.9141   -2.3059   -2.4286 H   0  0  0  0  0  0  0  0  0  0  0  0
    1.9433   -1.9653   -2.9755 H   0  0  0  0  0  0  0  0  0  0  0  0
    2.2172   -4.0969   -4.2233 H   0  0  0  0  0  0  0  0  0  0  0  0
    3.8876   -4.2488   -3.6788 H   0  0  0  0  0  0  0  0  0  0  0  0
    3.4228   -2.9555   -4.7712 H   0  0  0  0  0  0  0  0  0  0  0  0
    4.0012   -3.7740   -0.2288 H   0  0  0  0  0  0  0  0  0  0  0  0
    1.6645   -2.2088    0.9594 H   0  0  0  0  0  0  0  0  0  0  0  0
    2.0800   -3.8529    1.3656 H   0  0  0  0  0  0  0  0  0  0  0  0
    3.9928   -3.2597    2.5675 H   0  0  0  0  0  0  0  0  0  0  0  0
    6.3504   -0.7788    2.1126 H   0  0  0  0  0  0  0  0  0  0  0  0
    5.3543   -0.3697   -0.1317 H   0  0  0  0  0  0  0  0  0  0  0  0
    5.7202   -2.0845   -0.0193 H   0  0  0  0  0  0  0  0  0  0  0  0
    2.9996   -0.9130   -0.5440 H   0  0  0  0  0  0  0  0  0  0  0  0
    4.1780    0.8976    1.5747 H   0  0  0  0  0  0  0  0  0  0  0  0
    1.8270    0.3898    2.6846 H   0  0  0  0  0  0  0  0  0  0  0  0
    0.9110   -1.5388    3.9918 H   0  0  0  0  0  0  0  0  0  0  0  0
    2.9938   -0.9870    5.3930 H   0  0  0  0  0  0  0  0  0  0  0  0
    4.4375   -1.7804    4.6838 H   0  0  0  0  0  0  0  0  0  0  0  0
    4.3127    1.9312    3.5951 H   0  0  0  0  0  0  0  0  0  0  0  0
  1  2  1  0
  1 22  1  0
  1 23  1  0
  1 24  1  0
  2  3  1  0
  3 14  1  0
  3  4  1  0
  3 25  1  1
  4  5  1  0
  4  6  1  0
  4 26  1  6
  5 27  1  0
  5 28  1  0
  5 29  1  0
  6  7  2  0
  6  8  1  0
  8 14  1  0
  8  9  1  0
  8 30  1  1
  9 10  1  0
  9 31  1  0
  9 32  1  0
 10 17  1  0
 10 11  1  0
 10 33  1  1
 11 12  1  1
 11 13  1  0
 11 15  1  0
 12 34  1  0
 13 14  1  0
 13 35  1  0
 13 36  1  0
 14 37  1  6
 15 20  1  0
 15 16  1  0
 15 38  1  6
 16 20  1  0
 16 17  1  0
 16 39  1  6
 17 18  1  1
 17 19  1  0
 18 40  1  0
 19 20  1  0
 19 41  1  0
 19 42  1  0
 20 21  1  1
 21 43  1  0
M  END
>  <i_m_ct_stereo_status>  (347) 
1

>  <s_m_source_file>  (347) 
/var/tmp/pbs.5076255.sched01/tmpg_ssl3dq/162k0u29fl7.sdf

>  <i_m_source_file_index>  (347) 
5

>  <i_lp_mmshare_version>  (347) 
48012

>  <i_f3d_flags>  (347) 
0

>  <s_epik_input>  (347) 
Tz1DMVtDQEhdKFtDSDNdKVtDQEBIXShPW0NIM10pW0NASF0oW0NIMl0yKVtDQEhdMVtDSDJdW0NAQEhdKFtDQEBdMjNbT0hdKVtDQF00KFtPSF0pW0NAQEhdNVtDQEhdM1tDQEBdNShbQ0gyXTQpW09IXQ==

>  <s_epik_cmdline>  (347) 
J2VwaWtfcHl0aG9uJywgJy1waHQnLCAnMi4wJywgJy1waCcsICc3LjAnLCAnLXRuJywgJzgnLCAnLW1hJywgJzIwMCcsICctaW1hZScsICc8aW5maWxlLm1hZT4nLCAnLW9tYWUnLCAnPG91dGZpbGUubWFlPic=

>  <r_lp_tautomer_probability>  (347) 
1

>  <r_epik_Ionization_Penalty>  (347) 
1.11467e-05

>  <r_epik_Ionization_Penalty_Charging>  (347) 
0

>  <r_epik_Ionization_Penalty_Neutral>  (347) 
1.11467e-05

>  <r_epik_State_Penalty>  (347) 
-0

>  <r_epik_Charging_Adjusted_Penalty>  (347) 
0

>  <i_epik_Tot_Q>  (347) 
0

>  <i_epik_Tot_abs_Q>  (347) 
0

>  <s_lp_Force_Field>  (347) 
OPLS3e

>  <r_lp_Energy>  (347) 
26.5907

>  <b_lp_Chiralities_Consistent>  (347) 
1

>  <s_lp_Variant>  (347) 
88:0-1

>  <s_i_glide_gridfile>  (347) 
pfpi4k_grid

>  <i_i_glide_lignum>  (347) 
5

>  <i_i_glide_rotatable_bonds>  (347) 
4

>  <r_i_docking_score>  (347) 
-3.49746

>  <r_i_glide_ligand_efficiency>  (347) 
-0.166546

>  <r_i_glide_ligand_efficiency_sa>  (347) 
-0.459487

>  <r_i_glide_ligand_efficiency_ln>  (347) 
-0.864741

>  <r_i_glide_gscore>  (347) 
-3.49746

>  <r_i_glide_lipo>  (347) 
-0.436656

>  <r_i_glide_hbond>  (347) 
-0.291591

>  <r_i_glide_metal>  (347) 
-0

>  <r_i_glide_rewards>  (347) 
-1.55339

>  <r_i_glide_evdw>  (347) 
-19.3739

>  <r_i_glide_ecoul>  (347) 
-1.64753

>  <r_i_glide_erotb>  (347) 
0

>  <r_i_glide_esite>  (347) 
0

>  <r_i_glide_emodel>  (347) 
-24.3212

>  <r_i_glide_energy>  (347) 
-21.0215

>  <r_i_glide_einternal>  (347) 
1.52944

>  <r_i_glide_intrahb_reward>  (347) 
-0

>  <i_i_glide_confnum>  (347) 
1

>  <i_i_glide_posenum>  (347) 
7

>  <r_i_glide_eff_state_penalty>  (347) 
0

>  <ligand_id>  (347) 
88

>  <original_smiles>  (347) 
COC1C(C)C(=O)C2CC3C(O)(CC21)C1C2C3(O)CC12O

>  <smiles>  (347) 
[H]OC12C([H])([H])C3([H])C([H])(OC([H])([H])[H])C([H])(C([H])([H])[H])C(=O)C3([H])C([H])([H])C1([H])C1(O[H])C([H])([H])C3(O[H])C2([H])C13[H]

$$$$
88:0:1
     RDKit          3D

 43 47  0  0  1  0  0  0  0  0999 V2000
    3.8360   -0.2332   -4.1454 C   0  0  0  0  0  0  0  0  0  0  0  0
    3.9146   -0.3779   -2.7425 O   0  0  0  0  0  0  0  0  0  0  0  0
    3.9063   -1.7135   -2.2553 C   0  0  2  0  0  0  0  0  0  0  0  0
    2.6947   -2.5786   -2.7192 C   0  0  1  0  0  0  0  0  0  0  0  0
    2.9920   -3.4568   -3.9363 C   0  0  0  0  0  0  0  0  0  0  0  0
    2.3467   -3.3836   -1.4842 C   0  0  0  0  0  0  0  0  0  0  0  0
    1.4242   -4.2226   -1.4133 O   0  0  0  0  0  0  0  0  0  0  0  0
    3.2268   -3.0149   -0.3194 C   0  0  2  0  0  0  0  0  0  0  0  0
    2.5905   -2.9232    1.0728 C   0  0  0  0  0  0  0  0  0  0  0  0
    3.5917   -2.4030    2.1393 C   0  0  1  0  0  0  0  0  0  0  0  0
    4.6247   -1.3078    1.6149 C   0  0  1  0  0  0  0  0  0  0  0  0
    5.8912   -1.4756    2.2393 O   0  0  0  0  0  0  0  0  0  0  0  0
    4.9581   -1.2924    0.1048 C   0  0  0  0  0  0  0  0  0  0  0  0
    3.7357   -1.6386   -0.7286 C   0  0  1  0  0  0  0  0  0  0  0  0
    4.0960   -0.0145    2.1584 C   0  0  1  0  0  0  0  0  0  0  0  0
    2.7882   -0.3041    2.8155 C   0  0  1  0  0  0  0  0  0  0  0  0
    2.8465   -1.7160    3.3230 C   0  0  1  0  0  0  0  0  0  0  0  0
    1.6082   -2.3096    3.6711 O   0  0  0  0  0  0  0  0  0  0  0  0
    3.7534   -1.2075    4.4711 C   0  0  0  0  0  0  0  0  0  0  0  0
    3.9617    0.0660    3.6781 C   0  0  1  0  0  0  0  0  0  0  0  0
    3.9592    1.3470    4.2297 O   0  0  0  0  0  0  0  0  0  0  0  0
    4.0181    0.8068   -4.4173 H   0  0  0  0  0  0  0  0  0  0  0  0
    2.8398   -0.4937   -4.5174 H   0  0  0  0  0  0  0  0  0  0  0  0
    4.5778   -0.8463   -4.6560 H   0  0  0  0  0  0  0  0  0  0  0  0
    4.8407   -2.2163   -2.5066 H   0  0  0  0  0  0  0  0  0  0  0  0
    1.8380   -1.9307   -2.9265 H   0  0  0  0  0  0  0  0  0  0  0  0
    2.1169   -4.0355   -4.2290 H   0  0  0  0  0  0  0  0  0  0  0  0
    3.8038   -4.1632   -3.7445 H   0  0  0  0  0  0  0  0  0  0  0  0
    3.2793   -2.8619   -4.7946 H   0  0  0  0  0  0  0  0  0  0  0  0
    4.0451   -3.7381   -0.2918 H   0  0  0  0  0  0  0  0  0  0  0  0
    1.7366   -2.2403    1.0082 H   0  0  0  0  0  0  0  0  0  0  0  0
    2.1827   -3.8906    1.3746 H   0  0  0  0  0  0  0  0  0  0  0  0
    4.1284   -3.2765    2.5029 H   0  0  0  0  0  0  0  0  0  0  0  0
    6.2617   -2.2964    1.9636 H   0  0  0  0  0  0  0  0  0  0  0  0
    5.3292   -0.3111   -0.1907 H   0  0  0  0  0  0  0  0  0  0  0  0
    5.7461   -2.0226   -0.1326 H   0  0  0  0  0  0  0  0  0  0  0  0
    2.9682   -0.8943   -0.5155 H   0  0  0  0  0  0  0  0  0  0  0  0
    4.2107    0.8871    1.5689 H   0  0  0  0  0  0  0  0  0  0  0  0
    1.9019    0.3309    2.7766 H   0  0  0  0  0  0  0  0  0  0  0  0
    1.0848   -1.6344    4.0787 H   0  0  0  0  0  0  0  0  0  0  0  0
    3.2191   -1.0642    5.4044 H   0  0  0  0  0  0  0  0  0  0  0  0
    4.6381   -1.8151    4.6396 H   0  0  0  0  0  0  0  0  0  0  0  0
    4.4358    1.9081    3.6088 H   0  0  0  0  0  0  0  0  0  0  0  0
  1  2  1  0
  1 22  1  0
  1 23  1  0
  1 24  1  0
  2  3  1  0
  3 14  1  0
  3  4  1  0
  3 25  1  1
  4  5  1  0
  4  6  1  0
  4 26  1  6
  5 27  1  0
  5 28  1  0
  5 29  1  0
  6  7  2  0
  6  8  1  0
  8 14  1  0
  8  9  1  0
  8 30  1  1
  9 10  1  0
  9 31  1  0
  9 32  1  0
 10 17  1  0
 10 11  1  0
 10 33  1  1
 11 12  1  1
 11 13  1  0
 11 15  1  0
 12 34  1  0
 13 14  1  0
 13 35  1  0
 13 36  1  0
 14 37  1  6
 15 20  1  0
 15 16  1  0
 15 38  1  6
 16 20  1  0
 16 17  1  0
 16 39  1  6
 17 18  1  1
 17 19  1  0
 18 40  1  0
 19 20  1  0
 19 41  1  0
 19 42  1  0
 20 21  1  1
 21 43  1  0
M  END
>  <i_m_ct_stereo_status>  (348) 
1

>  <s_m_source_file>  (348) 
/var/tmp/pbs.5076255.sched01/tmpg_ssl3dq/162k0u29fl7.sdf

>  <i_m_source_file_index>  (348) 
5

>  <i_lp_mmshare_version>  (348) 
48012

>  <i_f3d_flags>  (348) 
0

>  <s_epik_input>  (348) 
Tz1DMVtDQEhdKFtDSDNdKVtDQEBIXShPW0NIM10pW0NASF0oW0NIMl0yKVtDQEhdMVtDSDJdW0NAQEhdKFtDQEBdMjNbT0hdKVtDQF00KFtPSF0pW0NAQEhdNVtDQEhdM1tDQEBdNShbQ0gyXTQpW09IXQ==

>  <s_epik_cmdline>  (348) 
J2VwaWtfcHl0aG9uJywgJy1waHQnLCAnMi4wJywgJy1waCcsICc3LjAnLCAnLXRuJywgJzgnLCAnLW1hJywgJzIwMCcsICctaW1hZScsICc8aW5maWxlLm1hZT4nLCAnLW9tYWUnLCAnPG91dGZpbGUubWFlPic=

>  <r_lp_tautomer_probability>  (348) 
1

>  <r_epik_Ionization_Penalty>  (348) 
1.11467e-05

>  <r_epik_Ionization_Penalty_Charging>  (348) 
0

>  <r_epik_Ionization_Penalty_Neutral>  (348) 
1.11467e-05

>  <r_epik_State_Penalty>  (348) 
-0

>  <r_epik_Charging_Adjusted_Penalty>  (348) 
0

>  <i_epik_Tot_Q>  (348) 
0

>  <i_epik_Tot_abs_Q>  (348) 
0

>  <s_lp_Force_Field>  (348) 
OPLS3e

>  <r_lp_Energy>  (348) 
26.5907

>  <b_lp_Chiralities_Consistent>  (348) 
1

>  <s_lp_Variant>  (348) 
88:0-1

>  <s_i_glide_gridfile>  (348) 
pfpi4k_grid

>  <i_i_glide_lignum>  (348) 
5

>  <i_i_glide_rotatable_bonds>  (348) 
4

>  <r_i_docking_score>  (348) 
-3.42646

>  <r_i_glide_ligand_efficiency>  (348) 
-0.163165

>  <r_i_glide_ligand_efficiency_sa>  (348) 
-0.450159

>  <r_i_glide_ligand_efficiency_ln>  (348) 
-0.847185

>  <r_i_glide_gscore>  (348) 
-3.42646

>  <r_i_glide_lipo>  (348) 
-0.42253

>  <r_i_glide_hbond>  (348) 
-0.321214

>  <r_i_glide_metal>  (348) 
-0

>  <r_i_glide_rewards>  (348) 
-1.5566

>  <r_i_glide_evdw>  (348) 
-18.8081

>  <r_i_glide_ecoul>  (348) 
-1.2381

>  <r_i_glide_erotb>  (348) 
0

>  <r_i_glide_esite>  (348) 
0

>  <r_i_glide_emodel>  (348) 
-23.4977

>  <r_i_glide_energy>  (348) 
-20.0462

>  <r_i_glide_einternal>  (348) 
1.30106

>  <r_i_glide_intrahb_reward>  (348) 
-0

>  <i_i_glide_confnum>  (348) 
2

>  <i_i_glide_posenum>  (348) 
5

>  <r_i_glide_eff_state_penalty>  (348) 
0

>  <ligand_id>  (348) 
88

>  <original_smiles>  (348) 
COC1C(C)C(=O)C2CC3C(O)(CC21)C1C2C3(O)CC12O

>  <smiles>  (348) 
[H]OC12C([H])([H])C3([H])C([H])(OC([H])([H])[H])C([H])(C([H])([H])[H])C(=O)C3([H])C([H])([H])C1([H])C1(O[H])C([H])([H])C3(O[H])C2([H])C13[H]

$$$$
88:0:2
     RDKit          3D

 43 47  0  0  1  0  0  0  0  0999 V2000
    3.9558   -0.2820   -3.9934 C   0  0  0  0  0  0  0  0  0  0  0  0
    4.1677   -0.4715   -2.6073 O   0  0  0  0  0  0  0  0  0  0  0  0
    4.0512   -1.8081   -2.1230 C   0  0  2  0  0  0  0  0  0  0  0  0
    2.8422   -2.6288   -2.6637 C   0  0  1  0  0  0  0  0  0  0  0  0
    3.1806   -3.5260   -3.8642 C   0  0  0  0  0  0  0  0  0  0  0  0
    2.3722   -3.4137   -1.4541 C   0  0  0  0  0  0  0  0  0  0  0  0
    1.4040   -4.1851   -1.4492 O   0  0  0  0  0  0  0  0  0  0  0  0
    3.1885   -3.0734   -0.2277 C   0  0  2  0  0  0  0  0  0  0  0  0
    2.4638   -2.9365    1.1170 C   0  0  0  0  0  0  0  0  0  0  0  0
    3.4161   -2.4651    2.2517 C   0  0  1  0  0  0  0  0  0  0  0  0
    4.5230   -1.4079    1.7904 C   0  0  1  0  0  0  0  0  0  0  0  0
    5.7345   -1.6337    2.5000 O   0  0  0  0  0  0  0  0  0  0  0  0
    4.9498   -1.4178    0.3050 C   0  0  0  0  0  0  0  0  0  0  0  0
    3.7776   -1.7231   -0.6104 C   0  0  1  0  0  0  0  0  0  0  0  0
    4.0296   -0.0914    2.3016 C   0  0  1  0  0  0  0  0  0  0  0  0
    2.6603   -0.3305    2.8568 C   0  0  1  0  0  0  0  0  0  0  0  0
    2.6313   -1.7366    3.3791 C   0  0  1  0  0  0  0  0  0  0  0  0
    1.3417   -2.2664    3.6563 O   0  0  0  0  0  0  0  0  0  0  0  0
    3.4683   -1.2615    4.5893 C   0  0  0  0  0  0  0  0  0  0  0  0
    3.7833   -0.0092    3.8080 C   0  0  1  0  0  0  0  0  0  0  0  0
    3.7865    1.2681    4.3811 O   0  0  0  0  0  0  0  0  0  0  0  0
    4.2167    0.7386   -4.2702 H   0  0  0  0  0  0  0  0  0  0  0  0
    2.9005   -0.4230   -4.2541 H   0  0  0  0  0  0  0  0  0  0  0  0
    4.5674   -0.9566   -4.5893 H   0  0  0  0  0  0  0  0  0  0  0  0
    4.9766   -2.3494   -2.3015 H   0  0  0  0  0  0  0  0  0  0  0  0
    2.0238   -1.9525   -2.9206 H   0  0  0  0  0  0  0  0  0  0  0  0
    2.2947   -4.0652   -4.2020 H   0  0  0  0  0  0  0  0  0  0  0  0
    3.9497   -4.2522   -3.6143 H   0  0  0  0  0  0  0  0  0  0  0  0
    3.5466   -2.9483   -4.7078 H   0  0  0  0  0  0  0  0  0  0  0  0
    3.9749   -3.8235   -0.1491 H   0  0  0  0  0  0  0  0  0  0  0  0
    1.6388   -2.2286    0.9942 H   0  0  0  0  0  0  0  0  0  0  0  0
    1.9998   -3.8901    1.3840 H   0  0  0  0  0  0  0  0  0  0  0  0
    3.8893   -3.3626    2.6517 H   0  0  0  0  0  0  0  0  0  0  0  0
    6.1002   -2.4663    2.2467 H   0  0  0  0  0  0  0  0  0  0  0  0
    5.3932   -0.4584    0.0462 H   0  0  0  0  0  0  0  0  0  0  0  0
    5.7193   -2.1761    0.1323 H   0  0  0  0  0  0  0  0  0  0  0  0
    3.0191   -0.9499   -0.4559 H   0  0  0  0  0  0  0  0  0  0  0  0
    4.2097    0.8075    1.7296 H   0  0  0  0  0  0  0  0  0  0  0  0
    1.8036    0.3305    2.7529 H   0  0  0  0  0  0  0  0  0  0  0  0
    1.4764   -3.1595    3.9314 H   0  0  0  0  0  0  0  0  0  0  0  0
    2.8621   -1.0962    5.4798 H   0  0  0  0  0  0  0  0  0  0  0  0
    4.3160   -1.9063    4.8117 H   0  0  0  0  0  0  0  0  0  0  0  0
    4.2004    1.8569    3.7511 H   0  0  0  0  0  0  0  0  0  0  0  0
  1  2  1  0
  1 22  1  0
  1 23  1  0
  1 24  1  0
  2  3  1  0
  3 14  1  0
  3  4  1  0
  3 25  1  1
  4  5  1  0
  4  6  1  0
  4 26  1  6
  5 27  1  0
  5 28  1  0
  5 29  1  0
  6  7  2  0
  6  8  1  0
  8 14  1  0
  8  9  1  0
  8 30  1  1
  9 10  1  0
  9 31  1  0
  9 32  1  0
 10 17  1  0
 10 11  1  0
 10 33  1  1
 11 12  1  1
 11 13  1  0
 11 15  1  0
 12 34  1  0
 13 14  1  0
 13 35  1  0
 13 36  1  0
 14 37  1  6
 15 20  1  0
 15 16  1  0
 15 38  1  6
 16 20  1  0
 16 17  1  0
 16 39  1  6
 17 18  1  1
 17 19  1  0
 18 40  1  0
 19 20  1  0
 19 41  1  0
 19 42  1  0
 20 21  1  1
 21 43  1  0
M  END
>  <i_m_ct_stereo_status>  (349) 
1

>  <s_m_source_file>  (349) 
/var/tmp/pbs.5076255.sched01/tmpg_ssl3dq/162k0u29fl7.sdf

>  <i_m_source_file_index>  (349) 
5

>  <i_lp_mmshare_version>  (349) 
48012

>  <i_f3d_flags>  (349) 
0

>  <s_epik_input>  (349) 
Tz1DMVtDQEhdKFtDSDNdKVtDQEBIXShPW0NIM10pW0NASF0oW0NIMl0yKVtDQEhdMVtDSDJdW0NAQEhdKFtDQEBdMjNbT0hdKVtDQF00KFtPSF0pW0NAQEhdNVtDQEhdM1tDQEBdNShbQ0gyXTQpW09IXQ==

>  <s_epik_cmdline>  (349) 
J2VwaWtfcHl0aG9uJywgJy1waHQnLCAnMi4wJywgJy1waCcsICc3LjAnLCAnLXRuJywgJzgnLCAnLW1hJywgJzIwMCcsICctaW1hZScsICc8aW5maWxlLm1hZT4nLCAnLW9tYWUnLCAnPG91dGZpbGUubWFlPic=

>  <r_lp_tautomer_probability>  (349) 
1

>  <r_epik_Ionization_Penalty>  (349) 
1.11467e-05

>  <r_epik_Ionization_Penalty_Charging>  (349) 
0

>  <r_epik_Ionization_Penalty_Neutral>  (349) 
1.11467e-05

>  <r_epik_State_Penalty>  (349) 
-0

>  <r_epik_Charging_Adjusted_Penalty>  (349) 
0

>  <i_epik_Tot_Q>  (349) 
0

>  <i_epik_Tot_abs_Q>  (349) 
0

>  <s_lp_Force_Field>  (349) 
OPLS3e

>  <r_lp_Energy>  (349) 
26.5907

>  <b_lp_Chiralities_Consistent>  (349) 
1

>  <s_lp_Variant>  (349) 
88:0-1

>  <s_i_glide_gridfile>  (349) 
pfpi4k_grid

>  <i_i_glide_lignum>  (349) 
5

>  <i_i_glide_rotatable_bonds>  (349) 
4

>  <r_i_docking_score>  (349) 
-3.13931

>  <r_i_glide_ligand_efficiency>  (349) 
-0.149491

>  <r_i_glide_ligand_efficiency_sa>  (349) 
-0.412434

>  <r_i_glide_ligand_efficiency_ln>  (349) 
-0.776187

>  <r_i_glide_gscore>  (349) 
-3.13931

>  <r_i_glide_lipo>  (349) 
-0.448589

>  <r_i_glide_hbond>  (349) 
-0.126349

>  <r_i_glide_metal>  (349) 
-0

>  <r_i_glide_rewards>  (349) 
-1.53249

>  <r_i_glide_evdw>  (349) 
-19.246

>  <r_i_glide_ecoul>  (349) 
-0.463885

>  <r_i_glide_erotb>  (349) 
0

>  <r_i_glide_esite>  (349) 
0

>  <r_i_glide_emodel>  (349) 
-21.9282

>  <r_i_glide_energy>  (349) 
-19.7099

>  <r_i_glide_einternal>  (349) 
1.97752

>  <r_i_glide_intrahb_reward>  (349) 
-0

>  <i_i_glide_confnum>  (349) 
2

>  <i_i_glide_posenum>  (349) 
34

>  <r_i_glide_eff_state_penalty>  (349) 
0

>  <ligand_id>  (349) 
88

>  <original_smiles>  (349) 
COC1C(C)C(=O)C2CC3C(O)(CC21)C1C2C3(O)CC12O

>  <smiles>  (349) 
[H]OC12C([H])([H])C3([H])C([H])(OC([H])([H])[H])C([H])(C([H])([H])[H])C(=O)C3([H])C([H])([H])C1([H])C1(O[H])C([H])([H])C3(O[H])C2([H])C13[H]

$$$$
90:0:0
     RDKit          3D

 25 27  0  0  1  0  0  0  0  0999 V2000
   -0.6261   -9.6620    3.1116 C   0  0  0  0  0  0  0  0  0  0  0  0
    0.1246   -8.5405    2.4801 C   0  0  0  0  0  0  0  0  0  0  0  0
    1.4500   -8.2148    2.4244 C   0  0  0  0  0  0  0  0  0  0  0  0
    1.4807   -7.0174    1.6525 C   0  0  0  0  0  0  0  0  0  0  0  0
    2.6400   -6.2037    1.2547 C   0  0  0  0  0  0  0  0  0  0  0  0
    2.5727   -5.0134    0.6394 N   0  0  0  0  0  0  0  0  0  0  0  0
    3.8286   -4.4636    0.4023 N   0  0  0  0  0  0  0  0  0  0  0  0
    4.8252   -5.2451    0.8382 C   0  0  0  0  0  0  0  0  0  0  0  0
    6.2536   -4.9149    0.7246 C   0  0  0  0  0  0  0  0  0  0  0  0
    6.6727   -3.7462    0.0447 C   0  0  0  0  0  0  0  0  0  0  0  0
    8.0498   -3.4668   -0.0500 C   0  0  0  0  0  0  0  0  0  0  0  0
    9.0049   -4.2558    0.4798 N   0  0  0  0  0  0  0  0  0  0  0  0
    8.6052   -5.3667    1.1352 C   0  0  0  0  0  0  0  0  0  0  0  0
    7.2569   -5.7410    1.2819 C   0  0  0  0  0  0  0  0  0  0  0  0
    4.2829   -6.7503    1.5946 S   0  0  0  0  0  0  0  0  0  0  0  0
    0.2568   -6.6557    1.2858 N   0  0  0  0  0  0  0  0  0  0  0  0
   -0.6090   -7.6169    1.8125 O   0  0  0  0  0  0  0  0  0  0  0  0
    0.0450  -10.3437    3.6353 H   0  0  0  0  0  0  0  0  0  0  0  0
   -1.1722  -10.2362    2.3623 H   0  0  0  0  0  0  0  0  0  0  0  0
   -1.3478   -9.2819    3.8348 H   0  0  0  0  0  0  0  0  0  0  0  0
    2.2684   -8.7617    2.8688 H   0  0  0  0  0  0  0  0  0  0  0  0
    5.9542   -3.0750   -0.4078 H   0  0  0  0  0  0  0  0  0  0  0  0
    8.4012   -2.5871   -0.5702 H   0  0  0  0  0  0  0  0  0  0  0  0
    9.3905   -5.9763    1.5518 H   0  0  0  0  0  0  0  0  0  0  0  0
    7.0230   -6.6489    1.8194 H   0  0  0  0  0  0  0  0  0  0  0  0
  1  2  1  0
  1 18  1  0
  1 19  1  0
  1 20  1  0
  2 17  1  0
  2  3  2  0
  3  4  1  0
  3 21  1  0
  4  5  1  0
  4 16  2  0
  5 15  1  0
  5  6  2  0
  6  7  1  0
  7  8  2  0
  8  9  1  0
  8 15  1  0
  9 14  1  0
  9 10  2  0
 10 11  1  0
 10 22  1  0
 11 12  2  0
 11 23  1  0
 12 13  1  0
 13 14  2  0
 13 24  1  0
 14 25  1  0
 16 17  1  0
M  END
>  <i_m_ct_stereo_status>  (350) 
1

>  <s_m_source_file>  (350) 
/var/tmp/pbs.5076255.sched01/tmpg_ssl3dq/162k0u29fl7.sdf

>  <i_m_source_file_index>  (350) 
7

>  <i_lp_mmshare_version>  (350) 
48012

>  <i_f3d_flags>  (350) 
0

>  <s_epik_input>  (350) 
W0NIM11jMVtjSF1jKG5vMSktYzJubmMoczIpLWMzW2NIXVtjSF1uW2NIXVtjSF0z

>  <s_epik_cmdline>  (350) 
J2VwaWtfcHl0aG9uJywgJy1waHQnLCAnMi4wJywgJy1waCcsICc3LjAnLCAnLXRuJywgJzgnLCAnLW1hJywgJzIwMCcsICctaW1hZScsICc8aW5maWxlLm1hZT4nLCAnLW9tYWUnLCAnPG91dGZpbGUubWFlPic=

>  <r_lp_tautomer_probability>  (350) 
1

>  <r_epik_Ionization_Penalty>  (350) 
0.000130088

>  <r_epik_Ionization_Penalty_Charging>  (350) 
0

>  <r_epik_Ionization_Penalty_Neutral>  (350) 
0.000130088

>  <r_epik_State_Penalty>  (350) 
-0

>  <r_epik_Charging_Adjusted_Penalty>  (350) 
0

>  <i_epik_Tot_Q>  (350) 
0

>  <i_epik_Tot_abs_Q>  (350) 
0

>  <s_lp_Force_Field>  (350) 
OPLS3e

>  <r_lp_Energy>  (350) 
14.2624

>  <b_lp_Chiralities_Consistent>  (350) 
1

>  <s_lp_Variant>  (350) 
90:0-1

>  <s_i_glide_gridfile>  (350) 
pfpi4k_grid

>  <i_i_glide_lignum>  (350) 
7

>  <i_i_glide_rotatable_bonds>  (350) 
2

>  <r_i_docking_score>  (350) 
-3.83916

>  <r_i_glide_ligand_efficiency>  (350) 
-0.225833

>  <r_i_glide_ligand_efficiency_sa>  (350) 
-0.580681

>  <r_i_glide_ligand_efficiency_ln>  (350) 
-1.00155

>  <r_i_glide_gscore>  (350) 
-3.83916

>  <r_i_glide_lipo>  (350) 
-0.641041

>  <r_i_glide_hbond>  (350) 
-0.0448552

>  <r_i_glide_metal>  (350) 
-0

>  <r_i_glide_rewards>  (350) 
-1.74359

>  <r_i_glide_evdw>  (350) 
-23.9605

>  <r_i_glide_ecoul>  (350) 
-3.79174

>  <r_i_glide_erotb>  (350) 
0.582662

>  <r_i_glide_esite>  (350) 
-0.225555

>  <r_i_glide_emodel>  (350) 
-33.3217

>  <r_i_glide_energy>  (350) 
-27.7522

>  <r_i_glide_einternal>  (350) 
4.71019

>  <r_i_glide_intrahb_reward>  (350) 
-0

>  <i_i_glide_confnum>  (350) 
4

>  <i_i_glide_posenum>  (350) 
12

>  <r_i_glide_eff_state_penalty>  (350) 
0

>  <ligand_id>  (350) 
90

>  <original_smiles>  (350) 
Cc1cc(-c2nnc(-c3ccncc3)s2)no1

>  <smiles>  (350) 
[H]c1nc([H])c([H])c(-c2nnc(-c3noc(C([H])([H])[H])c3[H])s2)c1[H]

$$$$
90:0:1
     RDKit          3D

 25 27  0  0  1  0  0  0  0  0999 V2000
    2.0195  -11.4046    3.3150 C   0  0  0  0  0  0  0  0  0  0  0  0
    1.8955  -10.0088    2.8061 C   0  0  0  0  0  0  0  0  0  0  0  0
    2.7514   -9.1905    2.1317 C   0  0  0  0  0  0  0  0  0  0  0  0
    2.0066   -7.9862    1.9559 C   0  0  0  0  0  0  0  0  0  0  0  0
    2.4118   -6.7464    1.2883 C   0  0  0  0  0  0  0  0  0  0  0  0
    1.5653   -5.8599    0.7532 N   0  0  0  0  0  0  0  0  0  0  0  0
    2.2164   -4.7839    0.1748 N   0  0  0  0  0  0  0  0  0  0  0  0
    3.5472   -4.8816    0.2347 C   0  0  0  0  0  0  0  0  0  0  0  0
    4.4619   -3.8754   -0.3122 C   0  0  0  0  0  0  0  0  0  0  0  0
    5.8653   -4.0565   -0.3056 C   0  0  0  0  0  0  0  0  0  0  0  0
    6.6839   -3.0520   -0.8598 C   0  0  0  0  0  0  0  0  0  0  0  0
    6.2102   -1.9080   -1.3910 N   0  0  0  0  0  0  0  0  0  0  0  0
    4.8707   -1.7302   -1.3981 C   0  0  0  0  0  0  0  0  0  0  0  0
    3.9655   -2.6738   -0.8762 C   0  0  0  0  0  0  0  0  0  0  0  0
    4.1161   -6.3624    1.0268 S   0  0  0  0  0  0  0  0  0  0  0  0
    0.7929   -8.0930    2.4828 N   0  0  0  0  0  0  0  0  0  0  0  0
    0.7142   -9.3809    3.0271 O   0  0  0  0  0  0  0  0  0  0  0  0
    2.9980  -11.8174    3.0664 H   0  0  0  0  0  0  0  0  0  0  0  0
    1.2575  -12.0509    2.8799 H   0  0  0  0  0  0  0  0  0  0  0  0
    1.8970  -11.4344    4.3977 H   0  0  0  0  0  0  0  0  0  0  0  0
    3.7515   -9.4300    1.8045 H   0  0  0  0  0  0  0  0  0  0  0  0
    6.3169   -4.9466    0.1055 H   0  0  0  0  0  0  0  0  0  0  0  0
    7.7568   -3.1695   -0.8725 H   0  0  0  0  0  0  0  0  0  0  0  0
    4.5204   -0.8077   -1.8340 H   0  0  0  0  0  0  0  0  0  0  0  0
    2.9043   -2.4586   -0.9160 H   0  0  0  0  0  0  0  0  0  0  0  0
  1  2  1  0
  1 18  1  0
  1 19  1  0
  1 20  1  0
  2 17  1  0
  2  3  2  0
  3  4  1  0
  3 21  1  0
  4  5  1  0
  4 16  2  0
  5 15  1  0
  5  6  2  0
  6  7  1  0
  7  8  2  0
  8  9  1  0
  8 15  1  0
  9 14  1  0
  9 10  2  0
 10 11  1  0
 10 22  1  0
 11 12  2  0
 11 23  1  0
 12 13  1  0
 13 14  2  0
 13 24  1  0
 14 25  1  0
 16 17  1  0
M  END
>  <i_m_ct_stereo_status>  (351) 
1

>  <s_m_source_file>  (351) 
/var/tmp/pbs.5076255.sched01/tmpg_ssl3dq/162k0u29fl7.sdf

>  <i_m_source_file_index>  (351) 
7

>  <i_lp_mmshare_version>  (351) 
48012

>  <i_f3d_flags>  (351) 
0

>  <s_epik_input>  (351) 
W0NIM11jMVtjSF1jKG5vMSktYzJubmMoczIpLWMzW2NIXVtjSF1uW2NIXVtjSF0z

>  <s_epik_cmdline>  (351) 
J2VwaWtfcHl0aG9uJywgJy1waHQnLCAnMi4wJywgJy1waCcsICc3LjAnLCAnLXRuJywgJzgnLCAnLW1hJywgJzIwMCcsICctaW1hZScsICc8aW5maWxlLm1hZT4nLCAnLW9tYWUnLCAnPG91dGZpbGUubWFlPic=

>  <r_lp_tautomer_probability>  (351) 
1

>  <r_epik_Ionization_Penalty>  (351) 
0.000130088

>  <r_epik_Ionization_Penalty_Charging>  (351) 
0

>  <r_epik_Ionization_Penalty_Neutral>  (351) 
0.000130088

>  <r_epik_State_Penalty>  (351) 
-0

>  <r_epik_Charging_Adjusted_Penalty>  (351) 
0

>  <i_epik_Tot_Q>  (351) 
0

>  <i_epik_Tot_abs_Q>  (351) 
0

>  <s_lp_Force_Field>  (351) 
OPLS3e

>  <r_lp_Energy>  (351) 
14.2624

>  <b_lp_Chiralities_Consistent>  (351) 
1

>  <s_lp_Variant>  (351) 
90:0-1

>  <s_i_glide_gridfile>  (351) 
pfpi4k_grid

>  <i_i_glide_lignum>  (351) 
7

>  <i_i_glide_rotatable_bonds>  (351) 
2

>  <r_i_docking_score>  (351) 
-3.72339

>  <r_i_glide_ligand_efficiency>  (351) 
-0.219023

>  <r_i_glide_ligand_efficiency_sa>  (351) 
-0.563169

>  <r_i_glide_ligand_efficiency_ln>  (351) 
-0.971348

>  <r_i_glide_gscore>  (351) 
-3.72339

>  <r_i_glide_lipo>  (351) 
-0.390211

>  <r_i_glide_hbond>  (351) 
-0.147009

>  <r_i_glide_metal>  (351) 
-0

>  <r_i_glide_rewards>  (351) 
-1.74359

>  <r_i_glide_evdw>  (351) 
-22.486

>  <r_i_glide_ecoul>  (351) 
-4.67619

>  <r_i_glide_erotb>  (351) 
0.582662

>  <r_i_glide_esite>  (351) 
-0.199509

>  <r_i_glide_emodel>  (351) 
-32.281

>  <r_i_glide_energy>  (351) 
-27.1622

>  <r_i_glide_einternal>  (351) 
4.99305

>  <r_i_glide_intrahb_reward>  (351) 
-0

>  <i_i_glide_confnum>  (351) 
2

>  <i_i_glide_posenum>  (351) 
27

>  <r_i_glide_eff_state_penalty>  (351) 
0

>  <ligand_id>  (351) 
90

>  <original_smiles>  (351) 
Cc1cc(-c2nnc(-c3ccncc3)s2)no1

>  <smiles>  (351) 
[H]c1nc([H])c([H])c(-c2nnc(-c3noc(C([H])([H])[H])c3[H])s2)c1[H]

$$$$
90:0:2
     RDKit          3D

 25 27  0  0  1  0  0  0  0  0999 V2000
    0.8941  -11.1883    3.6693 C   0  0  0  0  0  0  0  0  0  0  0  0
    1.6950  -10.1020    3.0402 C   0  0  0  0  0  0  0  0  0  0  0  0
    1.3574   -8.9016    2.4868 C   0  0  0  0  0  0  0  0  0  0  0  0
    2.6001   -8.3434    2.0729 C   0  0  0  0  0  0  0  0  0  0  0  0
    2.8254   -7.0530    1.4102 C   0  0  0  0  0  0  0  0  0  0  0  0
    1.8329   -6.2088    1.0998 N   0  0  0  0  0  0  0  0  0  0  0  0
    2.2910   -5.0578    0.4801 N   0  0  0  0  0  0  0  0  0  0  0  0
    3.6229   -5.0390    0.3225 C   0  0  0  0  0  0  0  0  0  0  0  0
    4.3684   -3.9359   -0.3014 C   0  0  0  0  0  0  0  0  0  0  0  0
    5.7793   -3.9510   -0.4077 C   0  0  0  0  0  0  0  0  0  0  0  0
    6.4256   -2.8642   -1.0265 C   0  0  0  0  0  0  0  0  0  0  0  0
    5.7758   -1.7920   -1.5180 N   0  0  0  0  0  0  0  0  0  0  0  0
    4.4311   -1.7695   -1.4077 C   0  0  0  0  0  0  0  0  0  0  0  0
    3.6897   -2.8078   -0.8149 C   0  0  0  0  0  0  0  0  0  0  0  0
    4.4324   -6.4866    0.9365 S   0  0  0  0  0  0  0  0  0  0  0  0
    3.6077   -9.1523    2.3637 N   0  0  0  0  0  0  0  0  0  0  0  0
    3.0391  -10.2761    2.9757 O   0  0  0  0  0  0  0  0  0  0  0  0
   -0.1664  -10.9364    3.6727 H   0  0  0  0  0  0  0  0  0  0  0  0
    1.2008  -11.3491    4.7025 H   0  0  0  0  0  0  0  0  0  0  0  0
    1.0207  -12.1250    3.1279 H   0  0  0  0  0  0  0  0  0  0  0  0
    0.3651   -8.4922    2.3884 H   0  0  0  0  0  0  0  0  0  0  0  0
    6.3715   -4.7737   -0.0370 H   0  0  0  0  0  0  0  0  0  0  0  0
    7.4989   -2.8475   -1.1301 H   0  0  0  0  0  0  0  0  0  0  0  0
    3.9333   -0.8976   -1.8043 H   0  0  0  0  0  0  0  0  0  0  0  0
    2.6118   -2.7213   -0.7633 H   0  0  0  0  0  0  0  0  0  0  0  0
  1  2  1  0
  1 18  1  0
  1 19  1  0
  1 20  1  0
  2 17  1  0
  2  3  2  0
  3  4  1  0
  3 21  1  0
  4  5  1  0
  4 16  2  0
  5 15  1  0
  5  6  2  0
  6  7  1  0
  7  8  2  0
  8  9  1  0
  8 15  1  0
  9 14  1  0
  9 10  2  0
 10 11  1  0
 10 22  1  0
 11 12  2  0
 11 23  1  0
 12 13  1  0
 13 14  2  0
 13 24  1  0
 14 25  1  0
 16 17  1  0
M  END
>  <i_m_ct_stereo_status>  (352) 
1

>  <s_m_source_file>  (352) 
/var/tmp/pbs.5076255.sched01/tmpg_ssl3dq/162k0u29fl7.sdf

>  <i_m_source_file_index>  (352) 
7

>  <i_lp_mmshare_version>  (352) 
48012

>  <i_f3d_flags>  (352) 
0

>  <s_epik_input>  (352) 
W0NIM11jMVtjSF1jKG5vMSktYzJubmMoczIpLWMzW2NIXVtjSF1uW2NIXVtjSF0z

>  <s_epik_cmdline>  (352) 
J2VwaWtfcHl0aG9uJywgJy1waHQnLCAnMi4wJywgJy1waCcsICc3LjAnLCAnLXRuJywgJzgnLCAnLW1hJywgJzIwMCcsICctaW1hZScsICc8aW5maWxlLm1hZT4nLCAnLW9tYWUnLCAnPG91dGZpbGUubWFlPic=

>  <r_lp_tautomer_probability>  (352) 
1

>  <r_epik_Ionization_Penalty>  (352) 
0.000130088

>  <r_epik_Ionization_Penalty_Charging>  (352) 
0

>  <r_epik_Ionization_Penalty_Neutral>  (352) 
0.000130088

>  <r_epik_State_Penalty>  (352) 
-0

>  <r_epik_Charging_Adjusted_Penalty>  (352) 
0

>  <i_epik_Tot_Q>  (352) 
0

>  <i_epik_Tot_abs_Q>  (352) 
0

>  <s_lp_Force_Field>  (352) 
OPLS3e

>  <r_lp_Energy>  (352) 
14.2624

>  <b_lp_Chiralities_Consistent>  (352) 
1

>  <s_lp_Variant>  (352) 
90:0-1

>  <s_i_glide_gridfile>  (352) 
pfpi4k_grid

>  <i_i_glide_lignum>  (352) 
7

>  <i_i_glide_rotatable_bonds>  (352) 
2

>  <r_i_docking_score>  (352) 
-3.41508

>  <r_i_glide_ligand_efficiency>  (352) 
-0.200887

>  <r_i_glide_ligand_efficiency_sa>  (352) 
-0.516537

>  <r_i_glide_ligand_efficiency_ln>  (352) 
-0.890918

>  <r_i_glide_gscore>  (352) 
-3.41508

>  <r_i_glide_lipo>  (352) 
-0.412127

>  <r_i_glide_hbond>  (352) 
-0.0373816

>  <r_i_glide_metal>  (352) 
-0

>  <r_i_glide_rewards>  (352) 
-1.74359

>  <r_i_glide_evdw>  (352) 
-23.8531

>  <r_i_glide_ecoul>  (352) 
-3.02294

>  <r_i_glide_erotb>  (352) 
0.582662

>  <r_i_glide_esite>  (352) 
-0.158547

>  <r_i_glide_emodel>  (352) 
-33.8978

>  <r_i_glide_energy>  (352) 
-26.876

>  <r_i_glide_einternal>  (352) 
0.00168495

>  <r_i_glide_intrahb_reward>  (352) 
-0

>  <i_i_glide_confnum>  (352) 
1

>  <i_i_glide_posenum>  (352) 
35

>  <r_i_glide_eff_state_penalty>  (352) 
0

>  <ligand_id>  (352) 
90

>  <original_smiles>  (352) 
Cc1cc(-c2nnc(-c3ccncc3)s2)no1

>  <smiles>  (352) 
[H]c1nc([H])c([H])c(-c2nnc(-c3noc(C([H])([H])[H])c3[H])s2)c1[H]

$$$$
91:0:0
     RDKit          3D

 31 34  0  0  1  0  0  0  0  0999 V2000
    6.3619   -6.2691    1.2116 C   0  0  0  0  0  0  0  0  0  0  0  0
    5.2222   -6.9599    1.7490 C   0  0  0  0  0  0  0  0  0  0  0  0
    4.1541   -6.2241    1.1479 C   0  0  0  0  0  0  0  0  0  0  0  0
    2.7784   -6.4727    1.3379 C   0  0  0  0  0  0  0  0  0  0  0  0
    1.8469   -5.7201    0.7173 N   0  0  0  0  0  0  0  0  0  0  0  0
    2.2493   -4.7126   -0.0699 N   0  0  0  0  0  0  0  0  0  0  0  0
    3.5569   -4.4193   -0.2907 C   0  0  0  0  0  0  0  0  0  0  0  0
    3.8721   -3.2852   -1.0886 N   0  0  0  0  0  0  0  0  0  0  0  0
    2.9853   -2.5745   -1.9766 C   0  0  1  0  0  0  0  0  0  0  0  0
    3.5097   -1.1326   -1.8116 C   0  0  0  0  0  0  0  0  0  0  0  0
    4.9842   -1.2975   -1.4702 C   0  0  0  0  0  0  0  0  0  0  0  0
    5.1810   -2.7981   -1.4507 C   0  0  2  0  0  0  0  0  0  0  0  0
    5.5189   -3.3744   -2.8587 C   0  0  0  0  0  0  0  0  0  0  0  0
    4.5676   -2.9420   -3.8284 O   0  0  0  0  0  0  0  0  0  0  0  0
    3.1983   -3.0723   -3.4330 C   0  0  0  0  0  0  0  0  0  0  0  0
    4.5680   -5.1951    0.3168 N   0  0  0  0  0  0  0  0  0  0  0  0
    5.9583   -5.2637    0.3372 C   0  0  0  0  0  0  0  0  0  0  0  0
    7.4110   -6.4476    1.3601 H   0  0  0  0  0  0  0  0  0  0  0  0
    5.1002   -7.8099    2.4142 H   0  0  0  0  0  0  0  0  0  0  0  0
    2.4276   -7.2694    1.9792 H   0  0  0  0  0  0  0  0  0  0  0  0
    1.9413   -2.6626   -1.6915 H   0  0  0  0  0  0  0  0  0  0  0  0
    3.3678   -0.5102   -2.6936 H   0  0  0  0  0  0  0  0  0  0  0  0
    3.0142   -0.6904   -0.9496 H   0  0  0  0  0  0  0  0  0  0  0  0
    5.6833   -0.8049   -2.1377 H   0  0  0  0  0  0  0  0  0  0  0  0
    5.1773   -0.9720   -0.4441 H   0  0  0  0  0  0  0  0  0  0  0  0
    5.9548   -2.9049   -0.7162 H   0  0  0  0  0  0  0  0  0  0  0  0
    6.5046   -3.0356   -3.1612 H   0  0  0  0  0  0  0  0  0  0  0  0
    5.5627   -4.4605   -2.8292 H   0  0  0  0  0  0  0  0  0  0  0  0
    2.8558   -4.0991   -3.5465 H   0  0  0  0  0  0  0  0  0  0  0  0
    2.5986   -2.4758   -4.1166 H   0  0  0  0  0  0  0  0  0  0  0  0
    6.6095   -4.6530   -0.2568 H   0  0  0  0  0  0  0  0  0  0  0  0
  1 17  2  0
  1  2  1  0
  1 18  1  0
  2  3  2  0
  2 19  1  0
  3 16  1  0
  3  4  1  0
  4  5  2  0
  4 20  1  0
  5  6  1  0
  6  7  2  0
  7  8  1  0
  7 16  1  0
  8 12  1  0
  8  9  1  0
  9 15  1  0
  9 10  1  0
  9 21  1  1
 10 11  1  0
 10 22  1  0
 10 23  1  0
 11 12  1  0
 11 24  1  0
 11 25  1  0
 12 13  1  0
 12 26  1  1
 13 14  1  0
 13 27  1  0
 13 28  1  0
 14 15  1  0
 15 29  1  0
 15 30  1  0
 16 17  1  0
 17 31  1  0
M  END
>  <i_m_ct_stereo_status>  (353) 
1

>  <s_m_source_file>  (353) 
/var/tmp/pbs.5076255.sched01/tmpg_ssl3dq/162k0u29fl7.sdf

>  <i_m_source_file_index>  (353) 
8

>  <i_lp_mmshare_version>  (353) 
48012

>  <i_f3d_flags>  (353) 
0

>  <s_epik_input>  (353) 
W2NIXTFbY0hdW2NIXW4oYzEyKWMobm5bY0hdMilOKFtDQEBIXTM0KVtDQEhdKFtDSDJdW0NIMl0zKVtDSDJdT1tDSDJdNA==

>  <s_epik_cmdline>  (353) 
J2VwaWtfcHl0aG9uJywgJy1waHQnLCAnMi4wJywgJy1waCcsICc3LjAnLCAnLXRuJywgJzgnLCAnLW1hJywgJzIwMCcsICctaW1hZScsICc8aW5maWxlLm1hZT4nLCAnLW9tYWUnLCAnPG91dGZpbGUubWFlPic=

>  <r_lp_tautomer_probability>  (353) 
1

>  <r_epik_Ionization_Penalty>  (353) 
3.55725e-06

>  <r_epik_Ionization_Penalty_Charging>  (353) 
0

>  <r_epik_Ionization_Penalty_Neutral>  (353) 
3.55725e-06

>  <r_epik_State_Penalty>  (353) 
-0

>  <r_epik_Charging_Adjusted_Penalty>  (353) 
0

>  <i_epik_Tot_Q>  (353) 
0

>  <i_epik_Tot_abs_Q>  (353) 
0

>  <s_lp_Force_Field>  (353) 
OPLS3e

>  <r_lp_Energy>  (353) 
39.4997

>  <b_lp_Chiralities_Consistent>  (353) 
1

>  <s_lp_Variant>  (353) 
91:0-1

>  <s_i_glide_gridfile>  (353) 
pfpi4k_grid

>  <i_i_glide_lignum>  (353) 
8

>  <i_i_glide_rotatable_bonds>  (353) 
1

>  <r_i_docking_score>  (353) 
-4.11966

>  <r_i_glide_ligand_efficiency>  (353) 
-0.242333

>  <r_i_glide_ligand_efficiency_sa>  (353) 
-0.623106

>  <r_i_glide_ligand_efficiency_ln>  (353) 
-1.07473

>  <r_i_glide_gscore>  (353) 
-4.11966

>  <r_i_glide_lipo>  (353) 
-0.753833

>  <r_i_glide_hbond>  (353) 
-0.0268374

>  <r_i_glide_metal>  (353) 
-0

>  <r_i_glide_rewards>  (353) 
-1.92467

>  <r_i_glide_evdw>  (353) 
-20.9109

>  <r_i_glide_ecoul>  (353) 
-3.46079

>  <r_i_glide_erotb>  (353) 
0.322161

>  <r_i_glide_esite>  (353) 
-0.171817

>  <r_i_glide_emodel>  (353) 
-29.9478

>  <r_i_glide_energy>  (353) 
-24.3717

>  <r_i_glide_einternal>  (353) 
1.99723

>  <r_i_glide_intrahb_reward>  (353) 
-0

>  <i_i_glide_confnum>  (353) 
2

>  <i_i_glide_posenum>  (353) 
22

>  <r_i_glide_eff_state_penalty>  (353) 
0

>  <ligand_id>  (353) 
91

>  <original_smiles>  (353) 
c1cc2cnnc(N3C4CCC3COC4)n2c1

>  <smiles>  (353) 
[H]c1c([H])c2c([H])nnc(N3C4([H])C([H])([H])OC([H])([H])C3([H])C([H])([H])C4([H])[H])n2c1[H]

$$$$
91:0:1
     RDKit          3D

 31 34  0  0  1  0  0  0  0  0999 V2000
    6.4239   -6.6116    1.5204 C   0  0  0  0  0  0  0  0  0  0  0  0
    5.2398   -7.3345    1.8966 C   0  0  0  0  0  0  0  0  0  0  0  0
    4.2328   -6.5406    1.3010 C   0  0  0  0  0  0  0  0  0  0  0  0
    2.8370   -6.7421    1.3855 C   0  0  0  0  0  0  0  0  0  0  0  0
    1.9791   -5.8799    0.7949 N   0  0  0  0  0  0  0  0  0  0  0  0
    2.4613   -4.8461    0.1018 N   0  0  0  0  0  0  0  0  0  0  0  0
    3.7958   -4.6146   -0.0139 C   0  0  0  0  0  0  0  0  0  0  0  0
    4.2444   -3.4652   -0.6843 N   0  0  0  0  0  0  0  0  0  0  0  0
    3.4623   -2.2976   -1.0288 C   0  0  1  0  0  0  0  0  0  0  0  0
    4.5242   -1.1751   -0.8508 C   0  0  0  0  0  0  0  0  0  0  0  0
    5.8577   -1.8938   -1.1405 C   0  0  0  0  0  0  0  0  0  0  0  0
    5.4521   -3.3445   -1.4812 C   0  0  2  0  0  0  0  0  0  0  0  0
    5.0830   -3.4968   -2.9790 C   0  0  0  0  0  0  0  0  0  0  0  0
    4.1360   -2.5308   -3.3978 O   0  0  0  0  0  0  0  0  0  0  0  0
    3.0178   -2.4072   -2.5237 C   0  0  0  0  0  0  0  0  0  0  0  0
    4.7139   -5.4492    0.6161 N   0  0  0  0  0  0  0  0  0  0  0  0
    6.0908   -5.4662    0.8096 C   0  0  0  0  0  0  0  0  0  0  0  0
    7.4459   -6.8570    1.7579 H   0  0  0  0  0  0  0  0  0  0  0  0
    5.0225   -8.2166    2.4876 H   0  0  0  0  0  0  0  0  0  0  0  0
    2.4410   -7.5793    1.9528 H   0  0  0  0  0  0  0  0  0  0  0  0
    2.6126   -2.1522   -0.3696 H   0  0  0  0  0  0  0  0  0  0  0  0
    4.3536   -0.3114   -1.5019 H   0  0  0  0  0  0  0  0  0  0  0  0
    4.4991   -0.8337    0.1931 H   0  0  0  0  0  0  0  0  0  0  0  0
    6.4322   -1.4450   -1.9365 H   0  0  0  0  0  0  0  0  0  0  0  0
    6.4632   -1.9200   -0.2327 H   0  0  0  0  0  0  0  0  0  0  0  0
    6.2431   -4.0526   -1.3048 H   0  0  0  0  0  0  0  0  0  0  0  0
    5.9935   -3.3656   -3.5543 H   0  0  0  0  0  0  0  0  0  0  0  0
    4.7438   -4.5218   -3.1529 H   0  0  0  0  0  0  0  0  0  0  0  0
    2.3196   -3.2475   -2.6463 H   0  0  0  0  0  0  0  0  0  0  0  0
    2.5009   -1.4900   -2.8169 H   0  0  0  0  0  0  0  0  0  0  0  0
    6.7217   -4.6726    0.4479 H   0  0  0  0  0  0  0  0  0  0  0  0
  1 17  2  0
  1  2  1  0
  1 18  1  0
  2  3  2  0
  2 19  1  0
  3 16  1  0
  3  4  1  0
  4  5  2  0
  4 20  1  0
  5  6  1  0
  6  7  2  0
  7  8  1  0
  7 16  1  0
  8 12  1  0
  8  9  1  0
  9 15  1  0
  9 10  1  0
  9 21  1  1
 10 11  1  0
 10 22  1  0
 10 23  1  0
 11 12  1  0
 11 24  1  0
 11 25  1  0
 12 13  1  0
 12 26  1  1
 13 14  1  0
 13 27  1  0
 13 28  1  0
 14 15  1  0
 15 29  1  0
 15 30  1  0
 16 17  1  0
 17 31  1  0
M  END
>  <i_m_ct_stereo_status>  (354) 
1

>  <s_m_source_file>  (354) 
/var/tmp/pbs.5076255.sched01/tmpg_ssl3dq/162k0u29fl7.sdf

>  <i_m_source_file_index>  (354) 
8

>  <i_lp_mmshare_version>  (354) 
48012

>  <i_f3d_flags>  (354) 
0

>  <s_epik_input>  (354) 
W2NIXTFbY0hdW2NIXW4oYzEyKWMobm5bY0hdMilOKFtDQEBIXTM0KVtDQEhdKFtDSDJdW0NIMl0zKVtDSDJdT1tDSDJdNA==

>  <s_epik_cmdline>  (354) 
J2VwaWtfcHl0aG9uJywgJy1waHQnLCAnMi4wJywgJy1waCcsICc3LjAnLCAnLXRuJywgJzgnLCAnLW1hJywgJzIwMCcsICctaW1hZScsICc8aW5maWxlLm1hZT4nLCAnLW9tYWUnLCAnPG91dGZpbGUubWFlPic=

>  <r_lp_tautomer_probability>  (354) 
1

>  <r_epik_Ionization_Penalty>  (354) 
3.55725e-06

>  <r_epik_Ionization_Penalty_Charging>  (354) 
0

>  <r_epik_Ionization_Penalty_Neutral>  (354) 
3.55725e-06

>  <r_epik_State_Penalty>  (354) 
-0

>  <r_epik_Charging_Adjusted_Penalty>  (354) 
0

>  <i_epik_Tot_Q>  (354) 
0

>  <i_epik_Tot_abs_Q>  (354) 
0

>  <s_lp_Force_Field>  (354) 
OPLS3e

>  <r_lp_Energy>  (354) 
39.4997

>  <b_lp_Chiralities_Consistent>  (354) 
1

>  <s_lp_Variant>  (354) 
91:0-1

>  <s_i_glide_gridfile>  (354) 
pfpi4k_grid

>  <i_i_glide_lignum>  (354) 
8

>  <i_i_glide_rotatable_bonds>  (354) 
1

>  <r_i_docking_score>  (354) 
-3.99

>  <r_i_glide_ligand_efficiency>  (354) 
-0.234706

>  <r_i_glide_ligand_efficiency_sa>  (354) 
-0.603494

>  <r_i_glide_ligand_efficiency_ln>  (354) 
-1.0409

>  <r_i_glide_gscore>  (354) 
-3.99

>  <r_i_glide_lipo>  (354) 
-0.637486

>  <r_i_glide_hbond>  (354) 
0

>  <r_i_glide_metal>  (354) 
-0

>  <r_i_glide_rewards>  (354) 
-1.98113

>  <r_i_glide_evdw>  (354) 
-23.7961

>  <r_i_glide_ecoul>  (354) 
-2.50949

>  <r_i_glide_erotb>  (354) 
0.322161

>  <r_i_glide_esite>  (354) 
-0.127307

>  <r_i_glide_emodel>  (354) 
-32.1537

>  <r_i_glide_energy>  (354) 
-26.3056

>  <r_i_glide_einternal>  (354) 
1.25259

>  <r_i_glide_intrahb_reward>  (354) 
-0

>  <i_i_glide_confnum>  (354) 
3

>  <i_i_glide_posenum>  (354) 
13

>  <r_i_glide_eff_state_penalty>  (354) 
0

>  <ligand_id>  (354) 
91

>  <original_smiles>  (354) 
c1cc2cnnc(N3C4CCC3COC4)n2c1

>  <smiles>  (354) 
[H]c1c([H])c2c([H])nnc(N3C4([H])C([H])([H])OC([H])([H])C3([H])C([H])([H])C4([H])[H])n2c1[H]

$$$$
91:0:2
     RDKit          3D

 31 34  0  0  1  0  0  0  0  0999 V2000
    6.4636   -6.6239    1.3391 C   0  0  0  0  0  0  0  0  0  0  0  0
    5.3197   -7.2761    1.8672 C   0  0  0  0  0  0  0  0  0  0  0  0
    4.2549   -6.5156    1.3096 C   0  0  0  0  0  0  0  0  0  0  0  0
    2.8639   -6.6879    1.4903 C   0  0  0  0  0  0  0  0  0  0  0  0
    1.9678   -5.8620    0.9067 N   0  0  0  0  0  0  0  0  0  0  0  0
    2.4055   -4.8632    0.1330 N   0  0  0  0  0  0  0  0  0  0  0  0
    3.7372   -4.6625   -0.1074 C   0  0  0  0  0  0  0  0  0  0  0  0
    4.0874   -3.6120   -0.9676 N   0  0  0  0  0  0  0  0  0  0  0  0
    5.1374   -3.5840   -1.9622 C   0  0  1  0  0  0  0  0  0  0  0  0
    4.4460   -2.8419   -3.1266 C   0  0  0  0  0  0  0  0  0  0  0  0
    3.4125   -1.9323   -2.4321 C   0  0  0  0  0  0  0  0  0  0  0  0
    3.5711   -2.2672   -0.9375 C   0  0  2  0  0  0  0  0  0  0  0  0
    4.6682   -1.3860   -0.2804 C   0  0  0  0  0  0  0  0  0  0  0  0
    5.8708   -1.4089   -1.0831 O   0  0  0  0  0  0  0  0  0  0  0  0
    6.3299   -2.7170   -1.4366 C   0  0  0  0  0  0  0  0  0  0  0  0
    4.6881   -5.4894    0.4851 N   0  0  0  0  0  0  0  0  0  0  0  0
    6.0743   -5.5799    0.4912 C   0  0  0  0  0  0  0  0  0  0  0  0
    7.5049   -6.8457    1.4911 H   0  0  0  0  0  0  0  0  0  0  0  0
    5.1895   -8.1435    2.5306 H   0  0  0  0  0  0  0  0  0  0  0  0
    2.4895   -7.4891    2.1198 H   0  0  0  0  0  0  0  0  0  0  0  0
    5.4209   -4.5938   -2.2596 H   0  0  0  0  0  0  0  0  0  0  0  0
    5.1589   -2.2689   -3.7202 H   0  0  0  0  0  0  0  0  0  0  0  0
    3.9389   -3.5463   -3.7925 H   0  0  0  0  0  0  0  0  0  0  0  0
    3.5673   -0.8719   -2.6344 H   0  0  0  0  0  0  0  0  0  0  0  0
    2.4065   -2.2003   -2.7513 H   0  0  0  0  0  0  0  0  0  0  0  0
    2.6275   -2.1984   -0.3917 H   0  0  0  0  0  0  0  0  0  0  0  0
    4.3432   -0.3466   -0.2424 H   0  0  0  0  0  0  0  0  0  0  0  0
    4.8243   -1.7020    0.7632 H   0  0  0  0  0  0  0  0  0  0  0  0
    6.8355   -3.0831   -0.5478 H   0  0  0  0  0  0  0  0  0  0  0  0
    7.1044   -2.6777   -2.2065 H   0  0  0  0  0  0  0  0  0  0  0  0
    6.6974   -4.9526   -0.0849 H   0  0  0  0  0  0  0  0  0  0  0  0
  1 17  2  0
  1  2  1  0
  1 18  1  0
  2  3  2  0
  2 19  1  0
  3 16  1  0
  3  4  1  0
  4  5  2  0
  4 20  1  0
  5  6  1  0
  6  7  2  0
  7  8  1  0
  7 16  1  0
  8 12  1  0
  8  9  1  0
  9 15  1  0
  9 10  1  0
  9 21  1  6
 10 11  1  0
 10 22  1  0
 10 23  1  0
 11 12  1  0
 11 24  1  0
 11 25  1  0
 12 13  1  0
 12 26  1  1
 13 14  1  0
 13 27  1  0
 13 28  1  0
 14 15  1  0
 15 29  1  0
 15 30  1  0
 16 17  1  0
 17 31  1  0
M  END
>  <i_m_ct_stereo_status>  (355) 
1

>  <s_m_source_file>  (355) 
/var/tmp/pbs.5076255.sched01/tmpg_ssl3dq/162k0u29fl7.sdf

>  <i_m_source_file_index>  (355) 
8

>  <i_lp_mmshare_version>  (355) 
48012

>  <i_f3d_flags>  (355) 
0

>  <s_epik_input>  (355) 
W2NIXTFbY0hdW2NIXW4oYzEyKWMobm5bY0hdMilOKFtDQEBIXTM0KVtDQEhdKFtDSDJdW0NIMl0zKVtDSDJdT1tDSDJdNA==

>  <s_epik_cmdline>  (355) 
J2VwaWtfcHl0aG9uJywgJy1waHQnLCAnMi4wJywgJy1waCcsICc3LjAnLCAnLXRuJywgJzgnLCAnLW1hJywgJzIwMCcsICctaW1hZScsICc8aW5maWxlLm1hZT4nLCAnLW9tYWUnLCAnPG91dGZpbGUubWFlPic=

>  <r_lp_tautomer_probability>  (355) 
1

>  <r_epik_Ionization_Penalty>  (355) 
3.55725e-06

>  <r_epik_Ionization_Penalty_Charging>  (355) 
0

>  <r_epik_Ionization_Penalty_Neutral>  (355) 
3.55725e-06

>  <r_epik_State_Penalty>  (355) 
-0

>  <r_epik_Charging_Adjusted_Penalty>  (355) 
0

>  <i_epik_Tot_Q>  (355) 
0

>  <i_epik_Tot_abs_Q>  (355) 
0

>  <s_lp_Force_Field>  (355) 
OPLS3e

>  <r_lp_Energy>  (355) 
39.4997

>  <b_lp_Chiralities_Consistent>  (355) 
1

>  <s_lp_Variant>  (355) 
91:0-1

>  <s_i_glide_gridfile>  (355) 
pfpi4k_grid

>  <i_i_glide_lignum>  (355) 
8

>  <i_i_glide_rotatable_bonds>  (355) 
1

>  <r_i_docking_score>  (355) 
-3.89588

>  <r_i_glide_ligand_efficiency>  (355) 
-0.229169

>  <r_i_glide_ligand_efficiency_sa>  (355) 
-0.589259

>  <r_i_glide_ligand_efficiency_ln>  (355) 
-1.01635

>  <r_i_glide_gscore>  (355) 
-3.89588

>  <r_i_glide_lipo>  (355) 
-0.547654

>  <r_i_glide_hbond>  (355) 
-0.0759577

>  <r_i_glide_metal>  (355) 
-0

>  <r_i_glide_rewards>  (355) 
-1.95159

>  <r_i_glide_evdw>  (355) 
-22.7713

>  <r_i_glide_ecoul>  (355) 
-2.40334

>  <r_i_glide_erotb>  (355) 
0.322161

>  <r_i_glide_esite>  (355) 
-0.143768

>  <r_i_glide_emodel>  (355) 
-30.3464

>  <r_i_glide_energy>  (355) 
-25.1747

>  <r_i_glide_einternal>  (355) 
1.70434

>  <r_i_glide_intrahb_reward>  (355) 
-0

>  <i_i_glide_confnum>  (355) 
2

>  <i_i_glide_posenum>  (355) 
37

>  <r_i_glide_eff_state_penalty>  (355) 
0

>  <ligand_id>  (355) 
91

>  <original_smiles>  (355) 
c1cc2cnnc(N3C4CCC3COC4)n2c1

>  <smiles>  (355) 
[H]c1c([H])c2c([H])nnc(N3C4([H])C([H])([H])OC([H])([H])C3([H])C([H])([H])C4([H])[H])n2c1[H]

$$$$
92:0:0
     RDKit          3D

 43 47  0  0  1  0  0  0  0  0999 V2000
    7.3417   -5.3223    1.7812 C   0  0  0  0  0  0  0  0  0  0  0  0
    7.1258   -4.6753    0.3855 C   0  0  0  0  0  0  0  0  0  0  0  0
    8.5280   -4.5822   -0.2903 C   0  0  0  0  0  0  0  0  0  0  0  0
    6.2986   -3.3449    0.3962 C   0  0  1  0  0  0  0  0  0  0  0  0
    6.5647   -2.4629   -0.9574 C   0  0  0  0  0  0  0  0  0  0  0  0
    5.4901   -1.2717   -1.2772 C   0  0  1  0  0  0  0  0  0  0  0  0
    4.7296   -0.6415   -2.3712 O   0  0  0  0  0  0  0  0  0  0  0  0
    3.3810   -1.0835   -2.6102 C   0  0  1  0  0  0  0  0  0  0  0  0
    3.1822   -1.3915   -3.9835 O   0  0  0  0  0  0  0  0  0  0  0  0
    3.0456   -2.3265   -1.6952 C   0  0  1  0  0  0  0  0  0  0  0  0
    2.2527   -3.4214   -2.3855 C   0  0  0  0  0  0  0  0  0  0  0  0
    4.3252   -2.7190   -1.3416 O   0  0  0  0  0  0  0  0  0  0  0  0
    4.3150   -1.5674   -0.3333 C   0  0  2  0  0  0  0  0  0  0  0  0
    3.0116   -2.3272   -0.1707 C   0  0  2  0  0  0  0  0  0  0  0  0
    3.4756   -3.5796    0.4900 O   0  0  0  0  0  0  0  0  0  0  0  0
    4.8119   -3.6001    1.1376 C   0  0  2  0  0  0  0  0  0  0  0  0
    4.5792   -2.4284    2.0711 C   0  0  0  0  0  0  0  0  0  0  0  0
    4.8695   -1.2625    1.1258 C   0  0  2  0  0  0  0  0  0  0  0  0
    4.2774    0.0369    1.6916 C   0  0  0  0  0  0  0  0  0  0  0  0
    6.2846   -1.0801    1.1506 O   0  0  0  0  0  0  0  0  0  0  0  0
    6.9628   -2.4474    1.2760 O   0  0  0  0  0  0  0  0  0  0  0  0
    7.9906   -4.6968    2.3881 H   0  0  0  0  0  0  0  0  0  0  0  0
    7.8470   -6.2817    1.6743 H   0  0  0  0  0  0  0  0  0  0  0  0
    6.4318   -5.5121    2.3459 H   0  0  0  0  0  0  0  0  0  0  0  0
    6.5142   -5.3751   -0.2008 H   0  0  0  0  0  0  0  0  0  0  0  0
    9.1748   -3.9031    0.2528 H   0  0  0  0  0  0  0  0  0  0  0  0
    8.5102   -4.2464   -1.3263 H   0  0  0  0  0  0  0  0  0  0  0  0
    8.9979   -5.5602   -0.2978 H   0  0  0  0  0  0  0  0  0  0  0  0
    7.5754   -2.0273   -0.9207 H   0  0  0  0  0  0  0  0  0  0  0  0
    6.6211   -3.1976   -1.7680 H   0  0  0  0  0  0  0  0  0  0  0  0
    5.7130   -1.6081   -2.2987 H   0  0  0  0  0  0  0  0  0  0  0  0
    2.6997   -0.2751   -2.3560 H   0  0  0  0  0  0  0  0  0  0  0  0
    2.2600   -1.5408   -4.1019 H   0  0  0  0  0  0  0  0  0  0  0  0
    1.2608   -3.0335   -2.6447 H   0  0  0  0  0  0  0  0  0  0  0  0
    2.1257   -4.2527   -1.6933 H   0  0  0  0  0  0  0  0  0  0  0  0
    2.7544   -3.7909   -3.2829 H   0  0  0  0  0  0  0  0  0  0  0  0
    2.2306   -1.7932    0.3584 H   0  0  0  0  0  0  0  0  0  0  0  0
    4.7956   -4.5183    1.7310 H   0  0  0  0  0  0  0  0  0  0  0  0
    3.5525   -2.4017    2.4500 H   0  0  0  0  0  0  0  0  0  0  0  0
    5.2322   -2.4204    2.9479 H   0  0  0  0  0  0  0  0  0  0  0  0
    3.1883    0.0069    1.6953 H   0  0  0  0  0  0  0  0  0  0  0  0
    4.5852    0.8828    1.0798 H   0  0  0  0  0  0  0  0  0  0  0  0
    4.6071    0.1937    2.7246 H   0  0  0  0  0  0  0  0  0  0  0  0
  1  2  1  0
  1 22  1  0
  1 23  1  0
  1 24  1  0
  2  3  1  0
  4  2  1  6
  2 25  1  0
  3 26  1  0
  3 27  1  0
  3 28  1  0
  4 16  1  0
  4 21  1  0
  4  5  1  0
  5  6  1  0
  5 29  1  0
  5 30  1  0
  6 13  1  0
  6  7  1  0
  6 31  1  1
  7  8  1  0
  8  9  1  0
  8 10  1  0
  8 32  1  1
  9 33  1  0
 10 14  1  0
 10 11  1  6
 10 12  1  0
 11 34  1  0
 11 35  1  0
 11 36  1  0
 13 12  1  1
 13 18  1  0
 13 14  1  0
 14 15  1  0
 14 37  1  6
 15 16  1  0
 16 17  1  0
 16 38  1  1
 17 18  1  0
 17 39  1  0
 17 40  1  0
 18 19  1  1
 18 20  1  0
 19 41  1  0
 19 42  1  0
 19 43  1  0
 20 21  1  0
M  END
>  <i_m_ct_stereo_status>  (356) 
1

>  <s_m_source_file>  (356) 
/var/tmp/pbs.5076255.sched01/tmpg_ssl3dq/162k0u29fl7.sdf

>  <i_m_source_file_index>  (356) 
9

>  <i_lp_mmshare_version>  (356) 
48012

>  <i_f3d_flags>  (356) 
0

>  <s_epik_input>  (356) 
QzEyM1tDSF00W0NIMl1bQ0BdNShbQ0hdKFtDSDNdKVtDSDNdKVtDQEBIXShbQ0gyXVtDQEBdMyhbQ0gzXSlPTzUpT1tDQEBIXTJbQ0BAXShPMSkoW0NIM10pW0NAQEhdKE80KVtPSF0=

>  <s_epik_cmdline>  (356) 
J2VwaWtfcHl0aG9uJywgJy1waHQnLCAnMi4wJywgJy1waCcsICc3LjAnLCAnLXRuJywgJzgnLCAnLW1hJywgJzIwMCcsICctaW1hZScsICc8aW5maWxlLm1hZT4nLCAnLW9tYWUnLCAnPG91dGZpbGUubWFlPic=

>  <r_lp_tautomer_probability>  (356) 
1

>  <r_epik_Ionization_Penalty>  (356) 
1.81065e-06

>  <r_epik_Ionization_Penalty_Charging>  (356) 
0

>  <r_epik_Ionization_Penalty_Neutral>  (356) 
1.81065e-06

>  <r_epik_State_Penalty>  (356) 
-0

>  <r_epik_Charging_Adjusted_Penalty>  (356) 
0

>  <i_epik_Tot_Q>  (356) 
0

>  <i_epik_Tot_abs_Q>  (356) 
0

>  <s_epik_Chemistry_Notes>  (356) 
This compound contains an acetal/aminal-like group ( X-CH(R)-Y where X, Y are N, S, or O) that may be acid/base labile, releasing an aldehyde.

>  <s_lp_Force_Field>  (356) 
OPLS3e

>  <r_lp_Energy>  (356) 
300.561

>  <b_lp_Chiralities_Consistent>  (356) 
1

>  <s_lp_Variant>  (356) 
92:0-1

>  <s_i_glide_gridfile>  (356) 
pfpi4k_grid

>  <i_i_glide_lignum>  (356) 
9

>  <i_i_glide_rotatable_bonds>  (356) 
2

>  <r_i_docking_score>  (356) 
-3.6065

>  <r_i_glide_ligand_efficiency>  (356) 
-0.171738

>  <r_i_glide_ligand_efficiency_sa>  (356) 
-0.473812

>  <r_i_glide_ligand_efficiency_ln>  (356) 
-0.8917

>  <r_i_glide_gscore>  (356) 
-3.6065

>  <r_i_glide_lipo>  (356) 
-0.668366

>  <r_i_glide_hbond>  (356) 
0

>  <r_i_glide_metal>  (356) 
-0

>  <r_i_glide_rewards>  (356) 
-1.37501

>  <r_i_glide_evdw>  (356) 
-19.4574

>  <r_i_glide_ecoul>  (356) 
-3.58049

>  <r_i_glide_erotb>  (356) 
0

>  <r_i_glide_esite>  (356) 
-0.0531814

>  <r_i_glide_emodel>  (356) 
-25.5331

>  <r_i_glide_energy>  (356) 
-23.0379

>  <r_i_glide_einternal>  (356) 
6.09079

>  <r_i_glide_intrahb_reward>  (356) 
-0

>  <i_i_glide_confnum>  (356) 
1

>  <i_i_glide_posenum>  (356) 
5

>  <r_i_glide_eff_state_penalty>  (356) 
0

>  <ligand_id>  (356) 
92

>  <original_smiles>  (356) 
CC(C)C12CC3OC(O)C4(C)OC35C4OC1CC5(C)OO2

>  <smiles>  (356) 
[H]OC1([H])OC2([H])C([H])([H])C3(C([H])(C([H])([H])[H])C([H])([H])[H])OOC4(C([H])([H])[H])C([H])([H])C3([H])OC3([H])C1(C([H])([H])[H])OC234

$$$$
92:0:1
     RDKit          3D

 43 47  0  0  1  0  0  0  0  0999 V2000
    8.8712   -2.0693    0.5118 C   0  0  0  0  0  0  0  0  0  0  0  0
    7.6999   -3.0860    0.6311 C   0  0  0  0  0  0  0  0  0  0  0  0
    7.9565   -4.2152   -0.3755 C   0  0  0  0  0  0  0  0  0  0  0  0
    6.2566   -2.5008    0.5213 C   0  0  1  0  0  0  0  0  0  0  0  0
    6.2200   -1.1866   -0.4383 C   0  0  0  0  0  0  0  0  0  0  0  0
    4.7824   -0.7124   -1.0374 C   0  0  1  0  0  0  0  0  0  0  0  0
    4.2021   -0.2658   -2.3209 O   0  0  0  0  0  0  0  0  0  0  0  0
    3.4472   -1.2127   -3.1021 C   0  0  1  0  0  0  0  0  0  0  0  0
    3.7074   -1.0431   -4.4750 O   0  0  0  0  0  0  0  0  0  0  0  0
    3.7675   -2.6795   -2.6051 C   0  0  1  0  0  0  0  0  0  0  0  0
    4.0558   -3.6750   -3.7101 C   0  0  0  0  0  0  0  0  0  0  0  0
    4.8605   -2.4307   -1.7853 O   0  0  0  0  0  0  0  0  0  0  0  0
    3.8643   -1.9042   -0.7231 C   0  0  2  0  0  0  0  0  0  0  0  0
    3.3366   -3.2305   -1.2492 C   0  0  2  0  0  0  0  0  0  0  0  0
    4.2903   -4.2012   -0.6036 O   0  0  0  0  0  0  0  0  0  0  0  0
    5.1287   -3.7417    0.5446 C   0  0  2  0  0  0  0  0  0  0  0  0
    3.9811   -3.3242    1.4284 C   0  0  0  0  0  0  0  0  0  0  0  0
    3.7169   -1.9226    0.8798 C   0  0  2  0  0  0  0  0  0  0  0  0
    2.3408   -1.4606    1.3564 C   0  0  0  0  0  0  0  0  0  0  0  0
    4.6545   -1.0742    1.5546 O   0  0  0  0  0  0  0  0  0  0  0  0
    5.9722   -1.8206    1.7417 O   0  0  0  0  0  0  0  0  0  0  0  0
    8.9800   -1.6450   -0.4858 H   0  0  0  0  0  0  0  0  0  0  0  0
    9.8138   -2.5764    0.7233 H   0  0  0  0  0  0  0  0  0  0  0  0
    8.7842   -1.2376    1.2112 H   0  0  0  0  0  0  0  0  0  0  0  0
    7.7584   -3.5514    1.6186 H   0  0  0  0  0  0  0  0  0  0  0  0
    7.9271   -3.8536   -1.4013 H   0  0  0  0  0  0  0  0  0  0  0  0
    7.2163   -5.0078   -0.3034 H   0  0  0  0  0  0  0  0  0  0  0  0
    8.9315   -4.6791   -0.2193 H   0  0  0  0  0  0  0  0  0  0  0  0
    6.6959   -0.3415    0.0633 H   0  0  0  0  0  0  0  0  0  0  0  0
    6.8939   -1.4916   -1.2408 H   0  0  0  0  0  0  0  0  0  0  0  0
    5.4566   -0.4828   -1.8824 H   0  0  0  0  0  0  0  0  0  0  0  0
    2.3957   -1.0004   -2.9454 H   0  0  0  0  0  0  0  0  0  0  0  0
    3.2807   -0.2405   -4.7337 H   0  0  0  0  0  0  0  0  0  0  0  0
    3.1440   -3.8490   -4.2941 H   0  0  0  0  0  0  0  0  0  0  0  0
    4.3877   -4.6318   -3.3150 H   0  0  0  0  0  0  0  0  0  0  0  0
    4.8450   -3.3386   -4.3879 H   0  0  0  0  0  0  0  0  0  0  0  0
    2.2755   -3.3894   -1.0947 H   0  0  0  0  0  0  0  0  0  0  0  0
    5.5682   -4.6247    1.0073 H   0  0  0  0  0  0  0  0  0  0  0  0
    3.1319   -3.9949    1.3190 H   0  0  0  0  0  0  0  0  0  0  0  0
    4.2460   -3.3270    2.4905 H   0  0  0  0  0  0  0  0  0  0  0  0
    1.5560   -2.0562    0.8915 H   0  0  0  0  0  0  0  0  0  0  0  0
    2.1697   -0.4068    1.1159 H   0  0  0  0  0  0  0  0  0  0  0  0
    2.2275   -1.5804    2.4432 H   0  0  0  0  0  0  0  0  0  0  0  0
  1  2  1  0
  1 22  1  0
  1 23  1  0
  1 24  1  0
  2  3  1  0
  4  2  1  1
  2 25  1  0
  3 26  1  0
  3 27  1  0
  3 28  1  0
  4 16  1  0
  4 21  1  0
  4  5  1  0
  5  6  1  0
  5 29  1  0
  5 30  1  0
  6 13  1  0
  6  7  1  0
  6 31  1  1
  7  8  1  0
  8  9  1  0
  8 10  1  0
  8 32  1  6
  9 33  1  0
 10 14  1  0
 10 11  1  6
 10 12  1  0
 11 34  1  0
 11 35  1  0
 11 36  1  0
 13 12  1  1
 13 18  1  0
 13 14  1  0
 14 15  1  0
 14 37  1  6
 15 16  1  0
 16 17  1  0
 16 38  1  1
 17 18  1  0
 17 39  1  0
 17 40  1  0
 18 19  1  6
 18 20  1  0
 19 41  1  0
 19 42  1  0
 19 43  1  0
 20 21  1  0
M  END
>  <i_m_ct_stereo_status>  (357) 
1

>  <s_m_source_file>  (357) 
/var/tmp/pbs.5076255.sched01/tmpg_ssl3dq/162k0u29fl7.sdf

>  <i_m_source_file_index>  (357) 
9

>  <i_lp_mmshare_version>  (357) 
48012

>  <i_f3d_flags>  (357) 
0

>  <s_epik_input>  (357) 
QzEyM1tDSF00W0NIMl1bQ0BdNShbQ0hdKFtDSDNdKVtDSDNdKVtDQEBIXShbQ0gyXVtDQEBdMyhbQ0gzXSlPTzUpT1tDQEBIXTJbQ0BAXShPMSkoW0NIM10pW0NAQEhdKE80KVtPSF0=

>  <s_epik_cmdline>  (357) 
J2VwaWtfcHl0aG9uJywgJy1waHQnLCAnMi4wJywgJy1waCcsICc3LjAnLCAnLXRuJywgJzgnLCAnLW1hJywgJzIwMCcsICctaW1hZScsICc8aW5maWxlLm1hZT4nLCAnLW9tYWUnLCAnPG91dGZpbGUubWFlPic=

>  <r_lp_tautomer_probability>  (357) 
1

>  <r_epik_Ionization_Penalty>  (357) 
1.81065e-06

>  <r_epik_Ionization_Penalty_Charging>  (357) 
0

>  <r_epik_Ionization_Penalty_Neutral>  (357) 
1.81065e-06

>  <r_epik_State_Penalty>  (357) 
-0

>  <r_epik_Charging_Adjusted_Penalty>  (357) 
0

>  <i_epik_Tot_Q>  (357) 
0

>  <i_epik_Tot_abs_Q>  (357) 
0

>  <s_epik_Chemistry_Notes>  (357) 
This compound contains an acetal/aminal-like group ( X-CH(R)-Y where X, Y are N, S, or O) that may be acid/base labile, releasing an aldehyde.

>  <s_lp_Force_Field>  (357) 
OPLS3e

>  <r_lp_Energy>  (357) 
300.561

>  <b_lp_Chiralities_Consistent>  (357) 
1

>  <s_lp_Variant>  (357) 
92:0-1

>  <s_i_glide_gridfile>  (357) 
pfpi4k_grid

>  <i_i_glide_lignum>  (357) 
9

>  <i_i_glide_rotatable_bonds>  (357) 
2

>  <r_i_docking_score>  (357) 
-3.18809

>  <r_i_glide_ligand_efficiency>  (357) 
-0.151814

>  <r_i_glide_ligand_efficiency_sa>  (357) 
-0.418843

>  <r_i_glide_ligand_efficiency_ln>  (357) 
-0.788249

>  <r_i_glide_gscore>  (357) 
-3.18809

>  <r_i_glide_lipo>  (357) 
-0.427625

>  <r_i_glide_hbond>  (357) 
0

>  <r_i_glide_metal>  (357) 
-0

>  <r_i_glide_rewards>  (357) 
-1.40457

>  <r_i_glide_evdw>  (357) 
-20.3391

>  <r_i_glide_ecoul>  (357) 
-2.25965

>  <r_i_glide_erotb>  (357) 
0

>  <r_i_glide_esite>  (357) 
0

>  <r_i_glide_emodel>  (357) 
-25.4793

>  <r_i_glide_energy>  (357) 
-22.5987

>  <r_i_glide_einternal>  (357) 
2.91756

>  <r_i_glide_intrahb_reward>  (357) 
-0

>  <i_i_glide_confnum>  (357) 
1

>  <i_i_glide_posenum>  (357) 
15

>  <r_i_glide_eff_state_penalty>  (357) 
0

>  <ligand_id>  (357) 
92

>  <original_smiles>  (357) 
CC(C)C12CC3OC(O)C4(C)OC35C4OC1CC5(C)OO2

>  <smiles>  (357) 
[H]OC1([H])OC2([H])C([H])([H])C3(C([H])(C([H])([H])[H])C([H])([H])[H])OOC4(C([H])([H])[H])C([H])([H])C3([H])OC3([H])C1(C([H])([H])[H])OC234

$$$$
92:0:2
     RDKit          3D

 43 47  0  0  1  0  0  0  0  0999 V2000
   -0.3311    2.5570    9.3939 C   0  0  0  0  0  0  0  0  0  0  0  0
    0.2601    2.0294    8.0699 C   0  0  0  0  0  0  0  0  0  0  0  0
    1.7933    2.1837    8.0696 C   0  0  0  0  0  0  0  0  0  0  0  0
   -0.3830    2.6112    6.7773 C   0  0  1  0  0  0  0  0  0  0  0  0
   -0.4649    4.2474    6.8181 C   0  0  0  0  0  0  0  0  0  0  0  0
   -0.6638    4.9886    5.3742 C   0  0  1  0  0  0  0  0  0  0  0  0
   -0.1857    6.1417    4.5948 O   0  0  0  0  0  0  0  0  0  0  0  0
    0.8362    5.9324    3.6000 C   0  0  1  0  0  0  0  0  0  0  0  0
    1.8113    6.9398    3.6842 O   0  0  0  0  0  0  0  0  0  0  0  0
    1.4290    4.4688    3.7549 C   0  0  1  0  0  0  0  0  0  0  0  0
    2.9489    4.3896    3.6249 C   0  0  0  0  0  0  0  0  0  0  0  0
    0.9476    4.1285    5.0072 O   0  0  0  0  0  0  0  0  0  0  0  0
   -0.4150    3.8846    4.3397 C   0  0  2  0  0  0  0  0  0  0  0  0
    0.6426    3.1920    3.4968 C   0  0  2  0  0  0  0  0  0  0  0  0
    0.9999    2.0291    4.3719 O   0  0  0  0  0  0  0  0  0  0  0  0
    0.0696    1.6546    5.4777 C   0  0  2  0  0  0  0  0  0  0  0  0
   -1.1498    1.4322    4.5970 C   0  0  0  0  0  0  0  0  0  0  0  0
   -1.6498    2.8692    4.4852 C   0  0  2  0  0  0  0  0  0  0  0  0
   -2.6392    2.9855    3.3084 C   0  0  0  0  0  0  0  0  0  0  0  0
   -2.4287    3.0906    5.6645 O   0  0  0  0  0  0  0  0  0  0  0  0
   -1.7803    2.3545    6.8367 O   0  0  0  0  0  0  0  0  0  0  0  0
   -0.1250    3.6177    9.5489 H   0  0  0  0  0  0  0  0  0  0  0  0
    0.1078    2.0201   10.2346 H   0  0  0  0  0  0  0  0  0  0  0  0
   -1.4088    2.4050    9.4451 H   0  0  0  0  0  0  0  0  0  0  0  0
    0.0516    0.9596    8.0601 H   0  0  0  0  0  0  0  0  0  0  0  0
    2.0998    3.2297    8.1164 H   0  0  0  0  0  0  0  0  0  0  0  0
    2.2408    1.7476    7.1771 H   0  0  0  0  0  0  0  0  0  0  0  0
    2.2276    1.6770    8.9305 H   0  0  0  0  0  0  0  0  0  0  0  0
   -1.2570    4.5774    7.5044 H   0  0  0  0  0  0  0  0  0  0  0  0
    0.4527    4.5719    7.3226 H   0  0  0  0  0  0  0  0  0  0  0  0
    0.0181    5.6975    5.8694 H   0  0  0  0  0  0  0  0  0  0  0  0
    0.3745    6.0452    2.6140 H   0  0  0  0  0  0  0  0  0  0  0  0
    1.4323    7.7039    3.2733 H   0  0  0  0  0  0  0  0  0  0  0  0
    3.2514    4.6452    2.6069 H   0  0  0  0  0  0  0  0  0  0  0  0
    3.2941    3.3677    3.8154 H   0  0  0  0  0  0  0  0  0  0  0  0
    3.4637    5.0476    4.3242 H   0  0  0  0  0  0  0  0  0  0  0  0
    0.3414    2.9681    2.4805 H   0  0  0  0  0  0  0  0  0  0  0  0
    0.4134    0.6813    5.8432 H   0  0  0  0  0  0  0  0  0  0  0  0
   -0.8812    1.0028    3.6299 H   0  0  0  0  0  0  0  0  0  0  0  0
   -1.8864    0.7569    5.0358 H   0  0  0  0  0  0  0  0  0  0  0  0
   -2.1380    2.8443    2.3498 H   0  0  0  0  0  0  0  0  0  0  0  0
   -3.1396    3.9539    3.2837 H   0  0  0  0  0  0  0  0  0  0  0  0
   -3.4108    2.2171    3.3884 H   0  0  0  0  0  0  0  0  0  0  0  0
  1  2  1  0
  1 22  1  0
  1 23  1  0
  1 24  1  0
  2  3  1  0
  4  2  1  1
  2 25  1  0
  3 26  1  0
  3 27  1  0
  3 28  1  0
  4 16  1  0
  4 21  1  0
  4  5  1  0
  5  6  1  0
  5 29  1  0
  5 30  1  0
  6 13  1  0
  6  7  1  0
  6 31  1  1
  7  8  1  0
  8  9  1  0
  8 10  1  0
  8 32  1  6
  9 33  1  0
 10 14  1  0
 10 11  1  1
 10 12  1  0
 11 34  1  0
 11 35  1  0
 11 36  1  0
 13 12  1  1
 13 18  1  0
 13 14  1  0
 14 15  1  0
 14 37  1  6
 15 16  1  0
 16 17  1  0
 16 38  1  1
 17 18  1  0
 17 39  1  0
 17 40  1  0
 18 19  1  6
 18 20  1  0
 19 41  1  0
 19 42  1  0
 19 43  1  0
 20 21  1  0
M  END
>  <i_m_ct_stereo_status>  (358) 
1

>  <s_m_source_file>  (358) 
/var/tmp/pbs.5076255.sched01/tmpg_ssl3dq/162k0u29fl7.sdf

>  <i_m_source_file_index>  (358) 
9

>  <i_lp_mmshare_version>  (358) 
48012

>  <i_f3d_flags>  (358) 
0

>  <s_epik_input>  (358) 
QzEyM1tDSF00W0NIMl1bQ0BdNShbQ0hdKFtDSDNdKVtDSDNdKVtDQEBIXShbQ0gyXVtDQEBdMyhbQ0gzXSlPTzUpT1tDQEBIXTJbQ0BAXShPMSkoW0NIM10pW0NAQEhdKE80KVtPSF0=

>  <s_epik_cmdline>  (358) 
J2VwaWtfcHl0aG9uJywgJy1waHQnLCAnMi4wJywgJy1waCcsICc3LjAnLCAnLXRuJywgJzgnLCAnLW1hJywgJzIwMCcsICctaW1hZScsICc8aW5maWxlLm1hZT4nLCAnLW9tYWUnLCAnPG91dGZpbGUubWFlPic=

>  <r_lp_tautomer_probability>  (358) 
1

>  <r_epik_Ionization_Penalty>  (358) 
1.81065e-06

>  <r_epik_Ionization_Penalty_Charging>  (358) 
0

>  <r_epik_Ionization_Penalty_Neutral>  (358) 
1.81065e-06

>  <r_epik_State_Penalty>  (358) 
-0

>  <r_epik_Charging_Adjusted_Penalty>  (358) 
0

>  <i_epik_Tot_Q>  (358) 
0

>  <i_epik_Tot_abs_Q>  (358) 
0

>  <s_epik_Chemistry_Notes>  (358) 
This compound contains an acetal/aminal-like group ( X-CH(R)-Y where X, Y are N, S, or O) that may be acid/base labile, releasing an aldehyde.

>  <s_lp_Force_Field>  (358) 
OPLS3e

>  <r_lp_Energy>  (358) 
300.561

>  <b_lp_Chiralities_Consistent>  (358) 
1

>  <s_lp_Variant>  (358) 
92:0-1

>  <s_i_glide_gridfile>  (358) 
pfpi4k_grid

>  <i_i_glide_lignum>  (358) 
9

>  <i_i_glide_rotatable_bonds>  (358) 
2

>  <r_i_docking_score>  (358) 
-3.13767

>  <r_i_glide_ligand_efficiency>  (358) 
-0.149413

>  <r_i_glide_ligand_efficiency_sa>  (358) 
-0.412218

>  <r_i_glide_ligand_efficiency_ln>  (358) 
-0.775782

>  <r_i_glide_gscore>  (358) 
-3.13767

>  <r_i_glide_lipo>  (358) 
-0.0170669

>  <r_i_glide_hbond>  (358) 
-0.00640392

>  <r_i_glide_metal>  (358) 
-0

>  <r_i_glide_rewards>  (358) 
-1.37501

>  <r_i_glide_evdw>  (358) 
-13.9489

>  <r_i_glide_ecoul>  (358) 
-6.36008

>  <r_i_glide_erotb>  (358) 
0

>  <r_i_glide_esite>  (358) 
-0.0877273

>  <r_i_glide_emodel>  (358) 
-24.8384

>  <r_i_glide_energy>  (358) 
-20.309

>  <r_i_glide_einternal>  (358) 
0.51861

>  <r_i_glide_intrahb_reward>  (358) 
-0

>  <i_i_glide_confnum>  (358) 
2

>  <i_i_glide_posenum>  (358) 
21

>  <r_i_glide_eff_state_penalty>  (358) 
0

>  <ligand_id>  (358) 
92

>  <original_smiles>  (358) 
CC(C)C12CC3OC(O)C4(C)OC35C4OC1CC5(C)OO2

>  <smiles>  (358) 
[H]OC1([H])OC2([H])C([H])([H])C3(C([H])(C([H])([H])[H])C([H])([H])[H])OOC4(C([H])([H])[H])C([H])([H])C3([H])OC3([H])C1(C([H])([H])[H])OC234

$$$$
93:1:0
     RDKit          3D

 57 62  0  0  1  0  0  0  0  0999 V2000
   -0.7960   -5.9290    5.2721 C   0  0  0  0  0  0  0  0  0  0  0  0
    0.4594   -6.7752    5.5660 C   0  0  0  0  0  0  0  0  0  0  0  0
    1.5163   -6.5516    4.6173 N   0  0  0  0  0  0  0  0  0  0  0  0
    2.0438   -7.6543    3.8404 C   0  0  0  0  0  0  0  0  0  0  0  0
    2.8341   -6.9869    2.7434 C   0  0  1  0  0  0  0  0  0  0  0  0
    2.1445   -6.0423    1.7646 C   0  0  1  0  0  0  0  0  0  0  0  0
    2.5808   -6.6513    0.5473 O   0  0  0  0  0  0  0  0  0  0  0  0
    2.2678   -5.2911    0.3612 C   0  0  2  0  0  0  0  0  0  0  0  0
    3.3838   -4.3692   -0.2265 C   0  0  1  0  0  0  0  0  0  0  0  0
    2.7770   -3.4653   -1.3060 C   0  0  0  0  0  0  0  0  0  0  0  0
    3.7537   -2.8974   -2.1641 O   0  0  0  0  0  0  0  0  0  0  0  0
    3.5047   -2.4740   -3.4311 C   0  0  0  0  0  0  0  0  0  0  0  0
    2.3459   -3.0278   -3.9708 N   0  0  0  0  0  0  0  0  0  0  0  0
    4.2288   -1.7165   -4.0610 O   0  0  0  0  0  0  0  0  0  0  0  0
    3.9552   -3.6686    1.0003 C   0  0  1  0  0  0  0  0  0  0  0  0
    2.7425   -3.1328    1.6184 O   0  0  0  0  0  0  0  0  0  0  0  0
    2.4232   -1.7396    1.5070 C   0  0  0  0  0  0  0  0  0  0  0  0
    4.7616   -4.8766    1.5704 C   0  0  1  0  0  0  0  0  0  0  0  0
    6.2224   -4.7212    1.1482 C   0  0  0  0  0  0  0  0  0  0  0  0
    6.3114   -3.3303    0.7805 N   0  0  0  0  0  0  0  0  0  0  0  0
    7.3917   -2.7025    0.3118 C   0  0  0  0  0  0  0  0  0  0  0  0
    8.6647   -3.5100    0.0361 C   0  0  0  0  0  0  0  0  0  0  0  0
    7.4077   -1.4816    0.0698 O   0  0  0  0  0  0  0  0  0  0  0  0
    5.0998   -2.6662    1.1640 C   0  0  2  0  0  0  0  0  0  0  0  0
    5.1531   -2.4334    2.5880 O   0  0  0  0  0  0  0  0  0  0  0  0
    5.1021   -3.5740    3.5355 C   0  0  0  0  0  0  0  0  0  0  0  0
    4.3775   -4.8747    3.0112 C   0  0  2  0  0  0  0  0  0  0  0  0
    2.9415   -5.5593    3.0610 C   0  0  2  0  0  0  0  0  0  0  0  0
    2.0818   -5.3770    4.2768 C   0  0  0  0  0  0  0  0  0  0  0  0
    1.8902   -4.2839    4.8089 O   0  0  0  0  0  0  0  0  0  0  0  0
   -1.5610   -6.0659    6.0314 H   0  0  0  0  0  0  0  0  0  0  0  0
   -1.2321   -6.2054    4.3148 H   0  0  0  0  0  0  0  0  0  0  0  0
   -0.5478   -4.8750    5.2778 H   0  0  0  0  0  0  0  0  0  0  0  0
    0.8421   -6.5478    6.5713 H   0  0  0  0  0  0  0  0  0  0  0  0
    0.1677   -7.8425    5.5697 H   0  0  0  0  0  0  0  0  0  0  0  0
    2.7221   -8.2874    4.4395 H   0  0  0  0  0  0  0  0  0  0  0  0
    1.2645   -8.2810    3.3955 H   0  0  0  0  0  0  0  0  0  0  0  0
    3.7022   -7.5065    2.3744 H   0  0  0  0  0  0  0  0  0  0  0  0
    1.3290   -5.1218   -0.1191 H   0  0  0  0  0  0  0  0  0  0  0  0
    4.1124   -5.0304   -0.7186 H   0  0  0  0  0  0  0  0  0  0  0  0
    2.0731   -4.1121   -1.8249 H   0  0  0  0  0  0  0  0  0  0  0  0
    2.1805   -2.6606   -0.8989 H   0  0  0  0  0  0  0  0  0  0  0  0
    1.8264   -3.7329   -3.4543 H   0  0  0  0  0  0  0  0  0  0  0  0
    2.0876   -2.7253   -4.8940 H   0  0  0  0  0  0  0  0  0  0  0  0
    1.3615   -1.6094    1.7094 H   0  0  0  0  0  0  0  0  0  0  0  0
    2.6432   -1.3333    0.5218 H   0  0  0  0  0  0  0  0  0  0  0  0
    2.9797   -1.1459    2.2307 H   0  0  0  0  0  0  0  0  0  0  0  0
    4.5889   -5.8699    1.1746 H   0  0  0  0  0  0  0  0  0  0  0  0
    6.9342   -4.9812    1.9284 H   0  0  0  0  0  0  0  0  0  0  0  0
    6.4529   -5.3186    0.2620 H   0  0  0  0  0  0  0  0  0  0  0  0
    8.4550   -4.3054   -0.6748 H   0  0  0  0  0  0  0  0  0  0  0  0
    9.0709   -3.9376    0.9536 H   0  0  0  0  0  0  0  0  0  0  0  0
    9.4183   -2.8688   -0.4092 H   0  0  0  0  0  0  0  0  0  0  0  0
    4.9805   -1.7429    0.5927 H   0  0  0  0  0  0  0  0  0  0  0  0
    6.1177   -3.8893    3.7143 H   0  0  0  0  0  0  0  0  0  0  0  0
    4.7900   -3.2395    4.5298 H   0  0  0  0  0  0  0  0  0  0  0  0
    3.7245   -4.0665    3.2450 H   0  0  0  0  0  0  0  0  0  0  0  0
  1  2  1  0
  1 31  1  0
  1 32  1  0
  1 33  1  0
  2  3  1  0
  2 34  1  0
  2 35  1  0
  3 29  1  0
  3  4  1  0
  4  5  1  0
  4 36  1  0
  4 37  1  0
  5 28  1  0
  5  6  1  0
  5 38  1  6
  6  8  1  0
  6 28  1  0
  6  7  1  1
  7  8  1  0
  8  9  1  0
  8 39  1  6
  9 10  1  0
  9 15  1  0
  9 40  1  6
 10 11  1  0
 10 41  1  0
 10 42  1  0
 11 12  1  0
 12 13  1  0
 12 14  2  0
 13 43  1  0
 13 44  1  0
 15 24  1  0
 15 16  1  1
 15 18  1  0
 16 17  1  0
 17 45  1  0
 17 46  1  0
 17 47  1  0
 18 27  1  0
 18 19  1  0
 18 48  1  6
 19 20  1  0
 19 49  1  0
 19 50  1  0
 20 21  1  0
 20 24  1  0
 21 22  1  0
 21 23  2  0
 22 51  1  0
 22 52  1  0
 22 53  1  0
 24 25  1  0
 24 54  1  6
 25 26  1  0
 26 27  1  0
 26 55  1  0
 26 56  1  0
 27 28  1  0
 27 57  1  1
 28 29  1  1
 29 30  2  0
M  END
>  <i_m_ct_stereo_status>  (359) 
1

>  <s_m_source_file>  (359) 
/var/tmp/pbs.5076255.sched01/tmpg_ssl3dq/162k0u29fl7.sdf

>  <i_m_source_file_index>  (359) 
11

>  <i_lp_mmshare_version>  (359) 
48012

>  <i_f3d_flags>  (359) 
0

>  <s_epik_input>  (359) 
W0NIM11bQ0gyXU4oQzE9TylbQ0gyXVtDQEBIXTJbQ0BdMShDMjM0KVtDSF01W0NASF02W0NAQF0oT1tDSDNdKShbQ0BASF0oT1tDSDJdNSlOKFtDSDJdNilDKD1PKVtDSDNdKVtDQEBIXShbQ0BIXTRPMylbQ0gyXU9DKD1PKVtOSDJd

>  <s_epik_cmdline>  (359) 
J2VwaWtfcHl0aG9uJywgJy1waHQnLCAnMi4wJywgJy1waCcsICc3LjAnLCAnLXRuJywgJzgnLCAnLW1hJywgJzIwMCcsICctaW1hZScsICc8aW5maWxlLm1hZT4nLCAnLW9tYWUnLCAnPG91dGZpbGUubWFlPic=

>  <r_lp_tautomer_probability>  (359) 
1

>  <r_epik_Ionization_Penalty>  (359) 
0.000130887

>  <r_epik_Ionization_Penalty_Charging>  (359) 
0

>  <r_epik_Ionization_Penalty_Neutral>  (359) 
0.000130887

>  <r_epik_State_Penalty>  (359) 
-0

>  <r_epik_Charging_Adjusted_Penalty>  (359) 
0

>  <i_epik_Tot_Q>  (359) 
0

>  <i_epik_Tot_abs_Q>  (359) 
0

>  <s_epik_Chemistry_Notes>  (359) 
This compound has an ester and may undergo hydrolysis at high or low pH. This compound contains an acetal/aminal-like group ( X-CH(R)-Y where X, Y are N, S, or O) that may be acid/base labile, releasing an aldehyde.

>  <s_lp_Force_Field>  (359) 
OPLS3e

>  <r_lp_Energy>  (359) 
151.142

>  <b_lp_Chiralities_Consistent>  (359) 
1

>  <s_lp_Variant>  (359) 
93:0-2

>  <s_i_glide_gridfile>  (359) 
pfpi4k_grid

>  <i_i_glide_lignum>  (359) 
11

>  <i_i_glide_rotatable_bonds>  (359) 
6

>  <r_i_docking_score>  (359) 
-4.49973

>  <r_i_glide_ligand_efficiency>  (359) 
-0.149991

>  <r_i_glide_ligand_efficiency_sa>  (359) 
-0.466057

>  <r_i_glide_ligand_efficiency_ln>  (359) 
-1.02239

>  <r_i_glide_gscore>  (359) 
-4.49973

>  <r_i_glide_lipo>  (359) 
-0.33845

>  <r_i_glide_hbond>  (359) 
-0.690885

>  <r_i_glide_metal>  (359) 
-0

>  <r_i_glide_rewards>  (359) 
-1.15163

>  <r_i_glide_evdw>  (359) 
-23.8844

>  <r_i_glide_ecoul>  (359) 
-8.95674

>  <r_i_glide_erotb>  (359) 
0.222971

>  <r_i_glide_esite>  (359) 
-0.00400631

>  <r_i_glide_emodel>  (359) 
-38.8594

>  <r_i_glide_energy>  (359) 
-32.8412

>  <r_i_glide_einternal>  (359) 
5.46229

>  <r_i_glide_intrahb_reward>  (359) 
-0

>  <i_i_glide_confnum>  (359) 
2

>  <i_i_glide_posenum>  (359) 
40

>  <r_i_glide_eff_state_penalty>  (359) 
0

>  <ligand_id>  (359) 
93

>  <original_smiles>  (359) 
CCN1CC2C34OC3C(COC(N)=O)C3(OC)C5CN(C(C)=O)C3OCC5C24C1=O

>  <smiles>  (359) 
[H]N([H])C(=O)OC([H])([H])C1([H])C2([H])OC23C2([H])C([H])([H])N(C([H])([H])C([H])([H])[H])C(=O)C23C2([H])C([H])([H])OC3([H])N(C(=O)C([H])([H])[H])C([H])([H])C2([H])C31OC([H])([H])[H]

$$$$
93:1:1
     RDKit          3D

 57 62  0  0  1  0  0  0  0  0999 V2000
    0.2741   -6.9881    5.4254 C   0  0  0  0  0  0  0  0  0  0  0  0
   -0.1318   -6.2326    4.1737 C   0  0  0  0  0  0  0  0  0  0  0  0
    1.0206   -6.0516    3.2947 N   0  0  0  0  0  0  0  0  0  0  0  0
    1.2320   -6.9175    2.1557 C   0  0  0  0  0  0  0  0  0  0  0  0
    2.1848   -6.1460    1.2933 C   0  0  1  0  0  0  0  0  0  0  0  0
    1.8182   -4.7386    0.7740 C   0  0  1  0  0  0  0  0  0  0  0  0
    2.0774   -5.0147   -0.5838 O   0  0  0  0  0  0  0  0  0  0  0  0
    2.2311   -3.6542   -0.3443 C   0  0  2  0  0  0  0  0  0  0  0  0
    3.5862   -2.9840   -0.7410 C   0  0  1  0  0  0  0  0  0  0  0  0
    3.3048   -1.6338   -1.4756 C   0  0  0  0  0  0  0  0  0  0  0  0
    4.1735   -1.4274   -2.5630 O   0  0  0  0  0  0  0  0  0  0  0  0
    3.7647   -1.5093   -3.8337 C   0  0  0  0  0  0  0  0  0  0  0  0
    2.6533   -2.3030   -4.0191 N   0  0  0  0  0  0  0  0  0  0  0  0
    4.3398   -0.9371   -4.7345 O   0  0  0  0  0  0  0  0  0  0  0  0
    4.2276   -2.8694    0.6339 C   0  0  1  0  0  0  0  0  0  0  0  0
    3.1881   -2.2494    1.4748 O   0  0  0  0  0  0  0  0  0  0  0  0
    3.1330   -0.8421    1.7639 C   0  0  0  0  0  0  0  0  0  0  0  0
    4.6483   -4.3786    0.7537 C   0  0  1  0  0  0  0  0  0  0  0  0
    6.1201   -4.4853    0.3298 C   0  0  0  0  0  0  0  0  0  0  0  0
    6.5850   -3.1330    0.4173 N   0  0  0  0  0  0  0  0  0  0  0  0
    7.8353   -2.6916    0.1224 C   0  0  0  0  0  0  0  0  0  0  0  0
    8.8527   -3.7244   -0.3922 C   0  0  0  0  0  0  0  0  0  0  0  0
    8.1677   -1.5292    0.2378 O   0  0  0  0  0  0  0  0  0  0  0  0
    5.5893   -2.3125    1.0486 C   0  0  2  0  0  0  0  0  0  0  0  0
    5.6344   -2.5773    2.4608 O   0  0  0  0  0  0  0  0  0  0  0  0
    5.2845   -3.9205    3.0034 C   0  0  0  0  0  0  0  0  0  0  0  0
    4.2548   -4.7429    2.1362 C   0  0  2  0  0  0  0  0  0  0  0  0
    2.7024   -5.0165    2.0594 C   0  0  2  0  0  0  0  0  0  0  0  0
    1.8654   -5.0122    3.2922 C   0  0  0  0  0  0  0  0  0  0  0  0
    1.8889   -4.1122    4.1322 O   0  0  0  0  0  0  0  0  0  0  0  0
   -0.5807   -7.1007    6.0833 H   0  0  0  0  0  0  0  0  0  0  0  0
    1.0539   -6.4555    5.9664 H   0  0  0  0  0  0  0  0  0  0  0  0
    0.6433   -7.9803    5.1781 H   0  0  0  0  0  0  0  0  0  0  0  0
   -0.9270   -6.7602    3.6499 H   0  0  0  0  0  0  0  0  0  0  0  0
   -0.5634   -5.2757    4.4717 H   0  0  0  0  0  0  0  0  0  0  0  0
    1.6638   -7.8671    2.4961 H   0  0  0  0  0  0  0  0  0  0  0  0
    0.3218   -7.1213    1.5923 H   0  0  0  0  0  0  0  0  0  0  0  0
    2.9134   -6.7381    0.7595 H   0  0  0  0  0  0  0  0  0  0  0  0
    1.4480   -3.0638   -0.7608 H   0  0  0  0  0  0  0  0  0  0  0  0
    4.0680   -3.6829   -1.4527 H   0  0  0  0  0  0  0  0  0  0  0  0
    2.2693   -1.6304   -1.8492 H   0  0  0  0  0  0  0  0  0  0  0  0
    3.3697   -0.6864   -0.9334 H   0  0  0  0  0  0  0  0  0  0  0  0
    2.1719   -2.6204   -3.1946 H   0  0  0  0  0  0  0  0  0  0  0  0
    2.2211   -2.2630   -4.9401 H   0  0  0  0  0  0  0  0  0  0  0  0
    2.1115   -0.6369    2.1026 H   0  0  0  0  0  0  0  0  0  0  0  0
    3.2924   -0.1307    0.9556 H   0  0  0  0  0  0  0  0  0  0  0  0
    3.8531   -0.5644    2.5373 H   0  0  0  0  0  0  0  0  0  0  0  0
    4.2158   -5.1128    0.0664 H   0  0  0  0  0  0  0  0  0  0  0  0
    6.7163   -5.1772    0.9314 H   0  0  0  0  0  0  0  0  0  0  0  0
    6.1678   -4.7855   -0.7140 H   0  0  0  0  0  0  0  0  0  0  0  0
    8.5148   -4.2222   -1.2967 H   0  0  0  0  0  0  0  0  0  0  0  0
    9.0865   -4.4700    0.3647 H   0  0  0  0  0  0  0  0  0  0  0  0
    9.7805   -3.2260   -0.6561 H   0  0  0  0  0  0  0  0  0  0  0  0
    5.7534   -1.2485    0.8179 H   0  0  0  0  0  0  0  0  0  0  0  0
    6.1983   -4.5074    3.0127 H   0  0  0  0  0  0  0  0  0  0  0  0
    5.0532   -3.8576    4.0706 H   0  0  0  0  0  0  0  0  0  0  0  0
    3.8506   -3.9024    2.6639 H   0  0  0  0  0  0  0  0  0  0  0  0
  1  2  1  0
  1 31  1  0
  1 32  1  0
  1 33  1  0
  2  3  1  0
  2 34  1  0
  2 35  1  0
  3 29  1  0
  3  4  1  0
  4  5  1  0
  4 36  1  0
  4 37  1  0
  5 28  1  0
  5  6  1  0
  5 38  1  6
  6  8  1  0
  6 28  1  0
  6  7  1  1
  7  8  1  0
  8  9  1  0
  8 39  1  6
  9 10  1  0
  9 15  1  0
  9 40  1  6
 10 11  1  0
 10 41  1  0
 10 42  1  0
 11 12  1  0
 12 13  1  0
 12 14  2  0
 13 43  1  0
 13 44  1  0
 15 24  1  0
 15 16  1  1
 15 18  1  0
 16 17  1  0
 17 45  1  0
 17 46  1  0
 17 47  1  0
 18 27  1  0
 18 19  1  0
 18 48  1  6
 19 20  1  0
 19 49  1  0
 19 50  1  0
 20 21  1  0
 20 24  1  0
 21 22  1  0
 21 23  2  0
 22 51  1  0
 22 52  1  0
 22 53  1  0
 24 25  1  0
 24 54  1  1
 25 26  1  0
 26 27  1  0
 26 55  1  0
 26 56  1  0
 27 28  1  0
 27 57  1  6
 28 29  1  1
 29 30  2  0
M  END
>  <i_m_ct_stereo_status>  (360) 
1

>  <s_m_source_file>  (360) 
/var/tmp/pbs.5076255.sched01/tmpg_ssl3dq/162k0u29fl7.sdf

>  <i_m_source_file_index>  (360) 
11

>  <i_lp_mmshare_version>  (360) 
48012

>  <i_f3d_flags>  (360) 
0

>  <s_epik_input>  (360) 
W0NIM11bQ0gyXU4oQzE9TylbQ0gyXVtDQEBIXTJbQ0BdMShDMjM0KVtDSF01W0NASF02W0NAQF0oT1tDSDNdKShbQ0BASF0oT1tDSDJdNSlOKFtDSDJdNilDKD1PKVtDSDNdKVtDQEBIXShbQ0BIXTRPMylbQ0gyXU9DKD1PKVtOSDJd

>  <s_epik_cmdline>  (360) 
J2VwaWtfcHl0aG9uJywgJy1waHQnLCAnMi4wJywgJy1waCcsICc3LjAnLCAnLXRuJywgJzgnLCAnLW1hJywgJzIwMCcsICctaW1hZScsICc8aW5maWxlLm1hZT4nLCAnLW9tYWUnLCAnPG91dGZpbGUubWFlPic=

>  <r_lp_tautomer_probability>  (360) 
1

>  <r_epik_Ionization_Penalty>  (360) 
0.000130887

>  <r_epik_Ionization_Penalty_Charging>  (360) 
0

>  <r_epik_Ionization_Penalty_Neutral>  (360) 
0.000130887

>  <r_epik_State_Penalty>  (360) 
-0

>  <r_epik_Charging_Adjusted_Penalty>  (360) 
0

>  <i_epik_Tot_Q>  (360) 
0

>  <i_epik_Tot_abs_Q>  (360) 
0

>  <s_epik_Chemistry_Notes>  (360) 
This compound has an ester and may undergo hydrolysis at high or low pH. This compound contains an acetal/aminal-like group ( X-CH(R)-Y where X, Y are N, S, or O) that may be acid/base labile, releasing an aldehyde.

>  <s_lp_Force_Field>  (360) 
OPLS3e

>  <r_lp_Energy>  (360) 
151.142

>  <b_lp_Chiralities_Consistent>  (360) 
1

>  <s_lp_Variant>  (360) 
93:0-2

>  <s_i_glide_gridfile>  (360) 
pfpi4k_grid

>  <i_i_glide_lignum>  (360) 
11

>  <i_i_glide_rotatable_bonds>  (360) 
6

>  <r_i_docking_score>  (360) 
-4.00979

>  <r_i_glide_ligand_efficiency>  (360) 
-0.13366

>  <r_i_glide_ligand_efficiency_sa>  (360) 
-0.415312

>  <r_i_glide_ligand_efficiency_ln>  (360) 
-0.911068

>  <r_i_glide_gscore>  (360) 
-4.00979

>  <r_i_glide_lipo>  (360) 
-0.172673

>  <r_i_glide_hbond>  (360) 
-0.658085

>  <r_i_glide_metal>  (360) 
-0

>  <r_i_glide_rewards>  (360) 
-1.14026

>  <r_i_glide_evdw>  (360) 
-22.3669

>  <r_i_glide_ecoul>  (360) 
-7.37947

>  <r_i_glide_erotb>  (360) 
0.222971

>  <r_i_glide_esite>  (360) 
-0.0364796

>  <r_i_glide_emodel>  (360) 
-32.6844

>  <r_i_glide_energy>  (360) 
-29.7463

>  <r_i_glide_einternal>  (360) 
6.10637

>  <r_i_glide_intrahb_reward>  (360) 
-0

>  <i_i_glide_confnum>  (360) 
2

>  <i_i_glide_posenum>  (360) 
35

>  <r_i_glide_eff_state_penalty>  (360) 
0

>  <ligand_id>  (360) 
93

>  <original_smiles>  (360) 
CCN1CC2C34OC3C(COC(N)=O)C3(OC)C5CN(C(C)=O)C3OCC5C24C1=O

>  <smiles>  (360) 
[H]N([H])C(=O)OC([H])([H])C1([H])C2([H])OC23C2([H])C([H])([H])N(C([H])([H])C([H])([H])[H])C(=O)C23C2([H])C([H])([H])OC3([H])N(C(=O)C([H])([H])[H])C([H])([H])C2([H])C31OC([H])([H])[H]

$$$$
93:1:2
     RDKit          3D

 57 62  0  0  1  0  0  0  0  0999 V2000
    4.8614   -1.4636   -2.4690 C   0  0  0  0  0  0  0  0  0  0  0  0
    4.0714   -1.0681   -1.2276 C   0  0  0  0  0  0  0  0  0  0  0  0
    4.2366   -2.0430   -0.1537 N   0  0  0  0  0  0  0  0  0  0  0  0
    4.7334   -1.6159    1.1443 C   0  0  0  0  0  0  0  0  0  0  0  0
    4.3223   -2.7216    2.0770 C   0  0  1  0  0  0  0  0  0  0  0  0
    2.8441   -3.0743    2.2985 C   0  0  1  0  0  0  0  0  0  0  0  0
    2.8462   -3.1005    3.7297 O   0  0  0  0  0  0  0  0  0  0  0  0
    1.8249   -3.8969    3.2142 C   0  0  2  0  0  0  0  0  0  0  0  0
    1.8114   -5.3784    3.7207 C   0  0  1  0  0  0  0  0  0  0  0  0
    0.3780   -5.7968    4.0743 C   0  0  0  0  0  0  0  0  0  0  0  0
    0.3402   -7.0882    4.6218 O   0  0  0  0  0  0  0  0  0  0  0  0
   -0.7595   -7.8549    4.4781 C   0  0  0  0  0  0  0  0  0  0  0  0
   -0.5761   -9.0053    5.1733 N   0  0  0  0  0  0  0  0  0  0  0  0
   -1.7534   -7.5319    3.8167 O   0  0  0  0  0  0  0  0  0  0  0  0
    2.4690   -6.1265    2.5613 C   0  0  1  0  0  0  0  0  0  0  0  0
    1.6781   -5.6908    1.4148 O   0  0  0  0  0  0  0  0  0  0  0  0
    0.6430   -6.5251    0.8892 C   0  0  0  0  0  0  0  0  0  0  0  0
    3.9425   -5.6961    2.8399 C   0  0  1  0  0  0  0  0  0  0  0  0
    4.6330   -6.8391    3.6135 C   0  0  0  0  0  0  0  0  0  0  0  0
    3.7663   -7.9623    3.3807 N   0  0  0  0  0  0  0  0  0  0  0  0
    3.9750   -9.2130    3.8621 C   0  0  0  0  0  0  0  0  0  0  0  0
    3.0646  -10.3702    3.4430 C   0  0  0  0  0  0  0  0  0  0  0  0
    4.8846   -9.4387    4.6634 O   0  0  0  0  0  0  0  0  0  0  0  0
    2.7947   -7.6166    2.3863 C   0  0  2  0  0  0  0  0  0  0  0  0
    3.4493   -7.6650    1.1124 O   0  0  0  0  0  0  0  0  0  0  0  0
    4.5163   -6.6959    0.7502 C   0  0  0  0  0  0  0  0  0  0  0  0
    4.4220   -5.3014    1.4913 C   0  0  2  0  0  0  0  0  0  0  0  0
    3.8161   -3.8382    1.2742 C   0  0  2  0  0  0  0  0  0  0  0  0
    3.7574   -3.2848   -0.1140 C   0  0  0  0  0  0  0  0  0  0  0  0
    3.2507   -3.8520   -1.0679 O   0  0  0  0  0  0  0  0  0  0  0  0
    4.7124   -0.7240   -3.2574 H   0  0  0  0  0  0  0  0  0  0  0  0
    4.5336   -2.4257   -2.8519 H   0  0  0  0  0  0  0  0  0  0  0  0
    5.9140   -1.5320   -2.2205 H   0  0  0  0  0  0  0  0  0  0  0  0
    4.3744   -0.0938   -0.8615 H   0  0  0  0  0  0  0  0  0  0  0  0
    3.0155   -0.9863   -1.4819 H   0  0  0  0  0  0  0  0  0  0  0  0
    5.8288   -1.5058    1.1173 H   0  0  0  0  0  0  0  0  0  0  0  0
    4.2801   -0.6759    1.4865 H   0  0  0  0  0  0  0  0  0  0  0  0
    5.0198   -2.9595    2.8640 H   0  0  0  0  0  0  0  0  0  0  0  0
    0.8476   -3.4508    3.1653 H   0  0  0  0  0  0  0  0  0  0  0  0
    2.3925   -5.4118    4.6443 H   0  0  0  0  0  0  0  0  0  0  0  0
   -0.0253   -5.1178    4.8244 H   0  0  0  0  0  0  0  0  0  0  0  0
   -0.2781   -5.6790    3.2198 H   0  0  0  0  0  0  0  0  0  0  0  0
    0.3015   -9.1501    5.6654 H   0  0  0  0  0  0  0  0  0  0  0  0
   -1.3044   -9.7445    5.1471 H   0  0  0  0  0  0  0  0  0  0  0  0
   -0.0082   -5.9248    0.2648 H   0  0  0  0  0  0  0  0  0  0  0  0
    0.0388   -6.9933    1.6669 H   0  0  0  0  0  0  0  0  0  0  0  0
    1.0183   -7.3262    0.2591 H   0  0  0  0  0  0  0  0  0  0  0  0
    4.1525   -4.8850    3.5271 H   0  0  0  0  0  0  0  0  0  0  0  0
    5.6561   -7.0304    3.2894 H   0  0  0  0  0  0  0  0  0  0  0  0
    4.6648   -6.6494    4.6868 H   0  0  0  0  0  0  0  0  0  0  0  0
    3.0776  -10.5100    2.3612 H   0  0  0  0  0  0  0  0  0  0  0  0
    2.0426  -10.1949    3.7758 H   0  0  0  0  0  0  0  0  0  0  0  0
    3.3895  -11.3075    3.8975 H   0  0  0  0  0  0  0  0  0  0  0  0
    1.9280   -8.2704    2.4425 H   0  0  0  0  0  0  0  0  0  0  0  0
    5.4491   -7.1605    1.0537 H   0  0  0  0  0  0  0  0  0  0  0  0
    4.6291   -6.6439   -0.3334 H   0  0  0  0  0  0  0  0  0  0  0  0
    3.6792   -5.4599    0.7360 H   0  0  0  0  0  0  0  0  0  0  0  0
  1  2  1  0
  1 31  1  0
  1 32  1  0
  1 33  1  0
  2  3  1  0
  2 34  1  0
  2 35  1  0
  3 29  1  0
  3  4  1  0
  4  5  1  0
  4 36  1  0
  4 37  1  0
  5 28  1  0
  5  6  1  0
  5 38  1  1
  6  8  1  0
  6 28  1  0
  6  7  1  6
  7  8  1  0
  8  9  1  0
  8 39  1  1
  9 10  1  0
  9 15  1  0
  9 40  1  1
 10 11  1  0
 10 41  1  0
 10 42  1  0
 11 12  1  0
 12 13  1  0
 12 14  2  0
 13 43  1  0
 13 44  1  0
 15 24  1  0
 15 16  1  6
 15 18  1  0
 16 17  1  0
 17 45  1  0
 17 46  1  0
 17 47  1  0
 18 27  1  0
 18 19  1  0
 18 48  1  1
 19 20  1  0
 19 49  1  0
 19 50  1  0
 20 21  1  0
 20 24  1  0
 21 22  1  0
 21 23  2  0
 22 51  1  0
 22 52  1  0
 22 53  1  0
 24 25  1  0
 24 54  1  6
 25 26  1  0
 26 27  1  0
 26 55  1  0
 26 56  1  0
 27 28  1  0
 27 57  1  1
 28 29  1  6
 29 30  2  0
M  END
>  <i_m_ct_stereo_status>  (361) 
1

>  <s_m_source_file>  (361) 
/var/tmp/pbs.5076255.sched01/tmpg_ssl3dq/162k0u29fl7.sdf

>  <i_m_source_file_index>  (361) 
11

>  <i_lp_mmshare_version>  (361) 
48012

>  <i_f3d_flags>  (361) 
0

>  <s_epik_input>  (361) 
W0NIM11bQ0gyXU4oQzE9TylbQ0gyXVtDQEBIXTJbQ0BdMShDMjM0KVtDSF01W0NASF02W0NAQF0oT1tDSDNdKShbQ0BASF0oT1tDSDJdNSlOKFtDSDJdNilDKD1PKVtDSDNdKVtDQEBIXShbQ0BIXTRPMylbQ0gyXU9DKD1PKVtOSDJd

>  <s_epik_cmdline>  (361) 
J2VwaWtfcHl0aG9uJywgJy1waHQnLCAnMi4wJywgJy1waCcsICc3LjAnLCAnLXRuJywgJzgnLCAnLW1hJywgJzIwMCcsICctaW1hZScsICc8aW5maWxlLm1hZT4nLCAnLW9tYWUnLCAnPG91dGZpbGUubWFlPic=

>  <r_lp_tautomer_probability>  (361) 
1

>  <r_epik_Ionization_Penalty>  (361) 
0.000130887

>  <r_epik_Ionization_Penalty_Charging>  (361) 
0

>  <r_epik_Ionization_Penalty_Neutral>  (361) 
0.000130887

>  <r_epik_State_Penalty>  (361) 
-0

>  <r_epik_Charging_Adjusted_Penalty>  (361) 
0

>  <i_epik_Tot_Q>  (361) 
0

>  <i_epik_Tot_abs_Q>  (361) 
0

>  <s_epik_Chemistry_Notes>  (361) 
This compound has an ester and may undergo hydrolysis at high or low pH. This compound contains an acetal/aminal-like group ( X-CH(R)-Y where X, Y are N, S, or O) that may be acid/base labile, releasing an aldehyde.

>  <s_lp_Force_Field>  (361) 
OPLS3e

>  <r_lp_Energy>  (361) 
151.142

>  <b_lp_Chiralities_Consistent>  (361) 
1

>  <s_lp_Variant>  (361) 
93:0-2

>  <s_i_glide_gridfile>  (361) 
pfpi4k_grid

>  <i_i_glide_lignum>  (361) 
11

>  <i_i_glide_rotatable_bonds>  (361) 
6

>  <r_i_docking_score>  (361) 
-2.95964

>  <r_i_glide_ligand_efficiency>  (361) 
-0.0986547

>  <r_i_glide_ligand_efficiency_sa>  (361) 
-0.306543

>  <r_i_glide_ligand_efficiency_ln>  (361) 
-0.672463

>  <r_i_glide_gscore>  (361) 
-2.95964

>  <r_i_glide_lipo>  (361) 
-0.201401

>  <r_i_glide_hbond>  (361) 
-0.243394

>  <r_i_glide_metal>  (361) 
-0

>  <r_i_glide_rewards>  (361) 
-0.563815

>  <r_i_glide_evdw>  (361) 
-23.147

>  <r_i_glide_ecoul>  (361) 
-5.53203

>  <r_i_glide_erotb>  (361) 
0.222971

>  <r_i_glide_esite>  (361) 
-0.186844

>  <r_i_glide_emodel>  (361) 
-33.9014

>  <r_i_glide_energy>  (361) 
-28.6791

>  <r_i_glide_einternal>  (361) 
1.53224

>  <r_i_glide_intrahb_reward>  (361) 
-0

>  <i_i_glide_confnum>  (361) 
2

>  <i_i_glide_posenum>  (361) 
8

>  <r_i_glide_eff_state_penalty>  (361) 
0

>  <ligand_id>  (361) 
93

>  <original_smiles>  (361) 
CCN1CC2C34OC3C(COC(N)=O)C3(OC)C5CN(C(C)=O)C3OCC5C24C1=O

>  <smiles>  (361) 
[H]N([H])C(=O)OC([H])([H])C1([H])C2([H])OC23C2([H])C([H])([H])N(C([H])([H])C([H])([H])[H])C(=O)C23C2([H])C([H])([H])OC3([H])N(C(=O)C([H])([H])[H])C([H])([H])C2([H])C31OC([H])([H])[H]

$$$$
94:0:0
     RDKit          3D

 71 76  0  0  1  0  0  0  0  0999 V2000
    6.9243  -10.3010    2.9658 C   0  0  0  0  0  0  0  0  0  0  0  0
    5.5664  -10.6308    3.2526 O   0  0  0  0  0  0  0  0  0  0  0  0
    4.6778   -9.5666    3.6338 C   0  0  2  0  0  0  0  0  0  0  0  0
    4.6229   -8.5370    2.4834 C   0  0  1  0  0  0  0  0  0  0  0  0
    3.3469   -7.8154    2.1132 C   0  0  0  0  0  0  0  0  0  0  0  0
    3.6649   -6.9004    1.1800 C   0  0  0  0  0  0  0  0  0  0  0  0
    5.1301   -6.5843    1.3246 C   0  0  1  0  0  0  0  0  0  0  0  0
    5.4162   -5.1930    1.3437 O   0  0  0  0  0  0  0  0  0  0  0  0
    6.6206   -4.7351    0.9544 C   0  0  0  0  0  0  0  0  0  0  0  0
    6.7363   -3.2281    1.0601 C   0  0  0  0  0  0  0  0  0  0  0  0
    7.5694   -5.4264    0.5512 O   0  0  0  0  0  0  0  0  0  0  0  0
    5.4802   -7.3004    2.6535 C   0  0  1  0  0  0  0  0  0  0  0  0
    4.9806   -6.6586    4.0044 C   0  0  1  0  0  0  0  0  0  0  0  0
    3.4303   -6.3402    4.0412 C   0  0  0  0  0  0  0  0  0  0  0  0
    2.4890   -7.2911    3.2378 C   0  0  2  0  0  0  0  0  0  0  0  0
    1.5340   -8.2763    4.0126 C   0  0  2  0  0  0  0  0  0  0  0  0
    1.0469   -9.4501    3.1154 C   0  0  1  0  0  0  0  0  0  0  0  0
    0.6709  -10.6058    3.8514 O   0  0  0  0  0  0  0  0  0  0  0  0
    0.8031  -11.8225    3.1400 C   0  0  0  0  0  0  0  0  0  0  0  0
   -0.2586   -8.9131    2.5239 C   0  0  0  0  0  0  0  0  0  0  0  0
   -0.9233   -8.1528    3.6778 C   0  0  0  0  0  0  0  0  0  0  0  0
    0.2232   -7.6446    4.5578 C   0  0  2  0  0  0  0  0  0  0  0  0
    0.0765   -6.1282    4.7445 C   0  0  0  0  0  0  0  0  0  0  0  0
    0.4992   -8.4083    5.8479 C   0  0  0  0  0  0  0  0  0  0  0  0
    1.9081   -8.5350    5.4390 N   0  0  1  0  0  0  0  0  0  0  0  0
    2.5845   -9.7967    5.8923 C   0  0  0  0  0  0  0  0  0  0  0  0
    4.0828   -9.6149    6.1816 C   0  0  0  0  0  0  0  0  0  0  0  0
    5.0103   -9.0194    5.0765 C   0  0  2  0  0  0  0  0  0  0  0  0
    5.4905   -7.5095    5.2066 C   0  0  0  0  0  0  0  0  0  0  0  0
    7.0520   -7.4248    5.2427 C   0  0  0  0  0  0  0  0  0  0  0  0
    5.0615   -6.8485    6.5542 C   0  0  0  0  0  0  0  0  0  0  0  0
    7.4616  -11.2088    2.6474 H   0  0  0  0  0  0  0  0  0  0  0  0
    7.4113   -9.8624    3.8126 H   0  0  0  0  0  0  0  0  0  0  0  0
    7.0010   -9.6283    2.1095 H   0  0  0  0  0  0  0  0  0  0  0  0
    3.7105  -10.0600    3.6331 H   0  0  0  0  0  0  0  0  0  0  0  0
    4.8493   -9.0809    1.5633 H   0  0  0  0  0  0  0  0  0  0  0  0
    3.0283   -6.0741    0.9059 H   0  0  0  0  0  0  0  0  0  0  0  0
    5.6403   -7.0697    0.4935 H   0  0  0  0  0  0  0  0  0  0  0  0
    6.5257   -2.9115    2.0832 H   0  0  0  0  0  0  0  0  0  0  0  0
    6.0033   -2.7651    0.3982 H   0  0  0  0  0  0  0  0  0  0  0  0
    7.7344   -2.8838    0.7837 H   0  0  0  0  0  0  0  0  0  0  0  0
    6.5475   -7.4884    2.6591 H   0  0  0  0  0  0  0  0  0  0  0  0
    5.4776   -5.6974    4.0887 H   0  0  0  0  0  0  0  0  0  0  0  0
    3.0639   -6.1784    5.0440 H   0  0  0  0  0  0  0  0  0  0  0  0
    3.3276   -5.3458    3.5901 H   0  0  0  0  0  0  0  0  0  0  0  0
    1.8027   -6.6261    2.7185 H   0  0  0  0  0  0  0  0  0  0  0  0
    1.7497   -9.7296    2.3348 H   0  0  0  0  0  0  0  0  0  0  0  0
    0.4498  -12.6371    3.7705 H   0  0  0  0  0  0  0  0  0  0  0  0
    1.8438  -12.0154    2.8917 H   0  0  0  0  0  0  0  0  0  0  0  0
    0.2168  -11.8225    2.2251 H   0  0  0  0  0  0  0  0  0  0  0  0
   -0.0172   -8.2096    1.7291 H   0  0  0  0  0  0  0  0  0  0  0  0
   -0.8942   -9.6860    2.0974 H   0  0  0  0  0  0  0  0  0  0  0  0
   -1.5704   -7.3551    3.3124 H   0  0  0  0  0  0  0  0  0  0  0  0
   -1.5532   -8.8467    4.2353 H   0  0  0  0  0  0  0  0  0  0  0  0
   -0.8573   -5.8834    5.2563 H   0  0  0  0  0  0  0  0  0  0  0  0
    0.0683   -5.6113    3.7848 H   0  0  0  0  0  0  0  0  0  0  0  0
    0.8829   -5.7009    5.3425 H   0  0  0  0  0  0  0  0  0  0  0  0
    0.4145   -7.8223    6.7639 H   0  0  0  0  0  0  0  0  0  0  0  0
   -0.0116   -9.3648    5.9364 H   0  0  0  0  0  0  0  0  0  0  0  0
    2.1271  -10.0594    6.8444 H   0  0  0  0  0  0  0  0  0  0  0  0
    2.4136  -10.6671    5.2729 H   0  0  0  0  0  0  0  0  0  0  0  0
    4.2272   -9.1458    7.1542 H   0  0  0  0  0  0  0  0  0  0  0  0
    4.4185  -10.6335    6.3683 H   0  0  0  0  0  0  0  0  0  0  0  0
    5.9145   -9.5537    5.3656 H   0  0  0  0  0  0  0  0  0  0  0  0
    7.4336   -7.8665    6.1681 H   0  0  0  0  0  0  0  0  0  0  0  0
    7.3698   -6.3678    5.2722 H   0  0  0  0  0  0  0  0  0  0  0  0
    7.5486   -7.9191    4.4257 H   0  0  0  0  0  0  0  0  0  0  0  0
    5.6035   -7.2900    7.3877 H   0  0  0  0  0  0  0  0  0  0  0  0
    4.0020   -6.9492    6.7839 H   0  0  0  0  0  0  0  0  0  0  0  0
    5.3007   -5.7884    6.5416 H   0  0  0  0  0  0  0  0  0  0  0  0
    2.4007   -7.7266    5.7888 H   0  0  0  0  0  0  0  0  0  0  0  0
  1  2  1  0
  1 32  1  0
  1 33  1  0
  1 34  1  0
  2  3  1  0
  3 28  1  0
  3  4  1  0
  3 35  1  1
  4 12  1  0
  4  5  1  0
  4 36  1  6
  5 15  1  0
  5  6  2  0
  6  7  1  0
  6 37  1  0
  7  8  1  0
  7 12  1  0
  7 38  1  6
  8  9  1  0
  9 10  1  0
  9 11  2  0
 10 39  1  0
 10 40  1  0
 10 41  1  0
 12 13  1  0
 12 42  1  1
 13 29  1  0
 13 14  1  0
 13 43  1  1
 14 15  1  0
 14 44  1  0
 14 45  1  0
 15 16  1  0
 15 46  1  6
 16 22  1  1
 16 25  1  0
 16 17  1  0
 17 18  1  0
 17 20  1  0
 17 47  1  6
 18 19  1  0
 19 48  1  0
 19 49  1  0
 19 50  1  0
 20 21  1  0
 20 51  1  0
 20 52  1  0
 21 22  1  0
 21 53  1  0
 21 54  1  0
 22 23  1  1
 22 24  1  0
 23 55  1  0
 23 56  1  0
 23 57  1  0
 24 25  1  0
 24 58  1  0
 24 59  1  0
 25 26  1  0
 25 71  1  1
 26 27  1  0
 26 60  1  0
 26 61  1  0
 27 28  1  0
 27 62  1  0
 27 63  1  0
 28 29  1  0
 28 64  1  1
 29 30  1  0
 29 31  1  0
 30 65  1  0
 30 66  1  0
 30 67  1  0
 31 68  1  0
 31 69  1  0
 31 70  1  0
M  CHG  1  25   1
M  END
>  <i_m_ct_stereo_status>  (362) 
1

>  <s_m_source_file>  (362) 
/var/tmp/pbs.5076255.sched01/tmpg_ssl3dq/162k0u29fl7.sdf

>  <i_m_source_file_index>  (362) 
12

>  <i_lp_mmshare_version>  (362) 
48012

>  <i_f3d_flags>  (362) 
0

>  <s_epik_input>  (362) 
W0NIM11DKD1PKU9bQ0BIXShbQ0hdMSlbQ0BIXShbQ0BASF0yQz0xW0NASF0zW0NAXTQ1NilbQ0BASF0oW0NIMl0zKUMoW0NIM10pKFtDSDNdKVtDQEhdKFtDQEBIXTJPW0NIM10pW0NIMl1bQ0gyXU42W0NIMl1bQ0BdNShbQ0gzXSlbQ0gyXVtDSDJdW0NAQEhdNE9bQ0gzXQ==

>  <s_epik_cmdline>  (362) 
J2VwaWtfcHl0aG9uJywgJy1waHQnLCAnMi4wJywgJy1waCcsICc3LjAnLCAnLXRuJywgJzgnLCAnLW1hJywgJzIwMCcsICctaW1hZScsICc8aW5maWxlLm1hZT4nLCAnLW9tYWUnLCAnPG91dGZpbGUubWFlPic=

>  <r_epik_Ionization_Penalty>  (362) 
0.000397374

>  <r_epik_Ionization_Penalty_Charging>  (362) 
0.000397374

>  <r_epik_Ionization_Penalty_Neutral>  (362) 
7.8806e-12

>  <r_epik_State_Penalty>  (362) 
0.000243437

>  <r_epik_Charging_Adjusted_Penalty>  (362) 
0.000640811

>  <i_epik_Tot_Q>  (362) 
1

>  <i_epik_Tot_abs_Q>  (362) 
1

>  <s_epik_Chemistry_Notes>  (362) 
This compound has an ester and may undergo hydrolysis at high or low pH.

>  <s_lp_Force_Field>  (362) 
OPLS3e

>  <r_lp_Energy>  (362) 
130.382

>  <b_lp_Chiralities_Consistent>  (362) 
1

>  <s_lp_Variant>  (362) 
94:0-1

>  <s_i_glide_gridfile>  (362) 
pfpi4k_grid

>  <i_i_glide_lignum>  (362) 
12

>  <i_i_glide_rotatable_bonds>  (362) 
4

>  <r_i_docking_score>  (362) 
-2.19288

>  <r_i_glide_ligand_efficiency>  (362) 
-0.0707379

>  <r_i_glide_ligand_efficiency_sa>  (362) 
-0.222215

>  <r_i_glide_ligand_efficiency_ln>  (362) 
-0.494561

>  <r_i_glide_gscore>  (362) 
-2.19288

>  <r_i_glide_lipo>  (362) 
-0.258519

>  <r_i_glide_hbond>  (362) 
0

>  <r_i_glide_metal>  (362) 
-0

>  <r_i_glide_rewards>  (362) 
-0.618686

>  <r_i_glide_evdw>  (362) 
-22.511

>  <r_i_glide_ecoul>  (362) 
-1.88459

>  <r_i_glide_erotb>  (362) 
0.107232

>  <r_i_glide_esite>  (362) 
-0.0146641

>  <r_i_glide_emodel>  (362) 
-27.1351

>  <r_i_glide_energy>  (362) 
-24.3956

>  <r_i_glide_einternal>  (362) 
3.23768

>  <r_i_glide_intrahb_reward>  (362) 
-0

>  <i_i_glide_confnum>  (362) 
1

>  <i_i_glide_posenum>  (362) 
12

>  <r_i_glide_eff_state_penalty>  (362) 
0

>  <ligand_id>  (362) 
94

>  <original_smiles>  (362) 
COC1C2C3=CC(OC(C)=O)C2C2CC3C34C(OC)CCC3(C)CN4CCC1C2(C)C

>  <smiles>  (362) 
[H]C1=C2C3([H])C([H])(OC([H])([H])[H])C4([H])C([H])([H])C([H])([H])[N+]5([H])C([H])([H])C6(C([H])([H])[H])C([H])([H])C([H])([H])C([H])(OC([H])([H])[H])C65C2([H])C([H])([H])C([H])(C3([H])C1([H])OC(=O)C([H])([H])[H])C4(C([H])([H])[H])C([H])([H])[H]

$$$$
94:0:1
     RDKit          3D

 71 76  0  0  1  0  0  0  0  0999 V2000
    5.7830   -7.3976    8.0324 C   0  0  0  0  0  0  0  0  0  0  0  0
    4.5709   -6.6972    7.8096 O   0  0  0  0  0  0  0  0  0  0  0  0
    3.6175   -7.4006    7.0200 C   0  0  2  0  0  0  0  0  0  0  0  0
    2.7542   -6.2932    6.3881 C   0  0  1  0  0  0  0  0  0  0  0  0
    2.1696   -6.4698    5.0080 C   0  0  0  0  0  0  0  0  0  0  0  0
    1.3261   -5.4472    4.7905 C   0  0  0  0  0  0  0  0  0  0  0  0
    0.9054   -4.8841    6.1222 C   0  0  1  0  0  0  0  0  0  0  0  0
   -0.5022   -4.7651    6.2614 O   0  0  0  0  0  0  0  0  0  0  0  0
   -1.0068   -4.1345    7.3385 C   0  0  0  0  0  0  0  0  0  0  0  0
   -2.5181   -4.2584    7.4345 C   0  0  0  0  0  0  0  0  0  0  0  0
   -0.3730   -3.5207    8.1962 O   0  0  0  0  0  0  0  0  0  0  0  0
    1.4767   -5.9500    7.0987 C   0  0  1  0  0  0  0  0  0  0  0  0
    0.6948   -7.3123    7.1736 C   0  0  1  0  0  0  0  0  0  0  0  0
    0.4399   -8.0224    5.7764 C   0  0  0  0  0  0  0  0  0  0  0  0
    1.5479   -7.8178    4.6950 C   0  0  2  0  0  0  0  0  0  0  0  0
    2.4652   -9.0365    4.2974 C   0  0  2  0  0  0  0  0  0  0  0  0
    3.7923   -8.5566    3.5958 C   0  0  1  0  0  0  0  0  0  0  0  0
    4.8792   -9.4554    3.7150 O   0  0  0  0  0  0  0  0  0  0  0  0
    6.1520   -8.8983    3.3998 C   0  0  0  0  0  0  0  0  0  0  0  0
    3.3941   -8.5622    2.1100 C   0  0  0  0  0  0  0  0  0  0  0  0
    2.5374   -9.8313    1.9534 C   0  0  0  0  0  0  0  0  0  0  0  0
    1.8711  -10.0539    3.3020 C   0  0  2  0  0  0  0  0  0  0  0  0
    0.3616  -10.1670    3.0696 C   0  0  0  0  0  0  0  0  0  0  0  0
    2.4539  -11.1258    4.2251 C   0  0  0  0  0  0  0  0  0  0  0  0
    2.5204  -10.1457    5.2771 N   0  0  1  0  0  0  0  0  0  0  0  0
    3.6417  -10.3386    6.2105 C   0  0  0  0  0  0  0  0  0  0  0  0
    3.3653   -9.9155    7.6684 C   0  0  0  0  0  0  0  0  0  0  0  0
    2.8853   -8.4612    7.9258 C   0  0  2  0  0  0  0  0  0  0  0  0
    1.3542   -8.2245    8.2355 C   0  0  0  0  0  0  0  0  0  0  0  0
    1.2147   -7.5397    9.6239 C   0  0  0  0  0  0  0  0  0  0  0  0
    0.5359   -9.5251    8.3965 C   0  0  0  0  0  0  0  0  0  0  0  0
    6.4617   -6.7475    8.5873 H   0  0  0  0  0  0  0  0  0  0  0  0
    6.2642   -7.6725    7.0914 H   0  0  0  0  0  0  0  0  0  0  0  0
    5.6321   -8.2922    8.6304 H   0  0  0  0  0  0  0  0  0  0  0  0
    4.1628   -7.8447    6.2000 H   0  0  0  0  0  0  0  0  0  0  0  0
    3.3900   -5.3974    6.3081 H   0  0  0  0  0  0  0  0  0  0  0  0
    0.5718   -5.4755    4.0216 H   0  0  0  0  0  0  0  0  0  0  0  0
    1.3985   -3.9192    6.2331 H   0  0  0  0  0  0  0  0  0  0  0  0
   -2.7979   -5.3064    7.3656 H   0  0  0  0  0  0  0  0  0  0  0  0
   -2.9848   -3.7048    6.6227 H   0  0  0  0  0  0  0  0  0  0  0  0
   -2.8755   -3.8763    8.3943 H   0  0  0  0  0  0  0  0  0  0  0  0
    1.6535   -5.4846    8.0604 H   0  0  0  0  0  0  0  0  0  0  0  0
   -0.3014   -7.0904    7.5689 H   0  0  0  0  0  0  0  0  0  0  0  0
    0.1773   -9.0693    5.8663 H   0  0  0  0  0  0  0  0  0  0  0  0
   -0.4667   -7.5930    5.3701 H   0  0  0  0  0  0  0  0  0  0  0  0
    0.9998   -7.6142    3.7647 H   0  0  0  0  0  0  0  0  0  0  0  0
    4.1184   -7.5623    3.8980 H   0  0  0  0  0  0  0  0  0  0  0  0
    6.9117   -9.6731    3.4927 H   0  0  0  0  0  0  0  0  0  0  0  0
    6.4030   -8.0878    4.0841 H   0  0  0  0  0  0  0  0  0  0  0  0
    6.1964   -8.5170    2.3807 H   0  0  0  0  0  0  0  0  0  0  0  0
    2.7618   -7.6977    1.9029 H   0  0  0  0  0  0  0  0  0  0  0  0
    4.2278   -8.5349    1.4045 H   0  0  0  0  0  0  0  0  0  0  0  0
    1.8354   -9.7347    1.1271 H   0  0  0  0  0  0  0  0  0  0  0  0
    3.2098  -10.6614    1.7212 H   0  0  0  0  0  0  0  0  0  0  0  0
    0.1402  -11.0259    2.4347 H   0  0  0  0  0  0  0  0  0  0  0  0
   -0.0326   -9.2843    2.5649 H   0  0  0  0  0  0  0  0  0  0  0  0
   -0.1913  -10.3068    3.9997 H   0  0  0  0  0  0  0  0  0  0  0  0
    1.7684  -11.9416    4.4683 H   0  0  0  0  0  0  0  0  0  0  0  0
    3.4255  -11.5066    3.8897 H   0  0  0  0  0  0  0  0  0  0  0  0
    3.8321  -11.4118    6.2753 H   0  0  0  0  0  0  0  0  0  0  0  0
    4.6070   -9.9208    5.9062 H   0  0  0  0  0  0  0  0  0  0  0  0
    2.7407  -10.6489    8.1672 H   0  0  0  0  0  0  0  0  0  0  0  0
    4.3170  -10.0372    8.1708 H   0  0  0  0  0  0  0  0  0  0  0  0
    3.3248   -8.2947    8.9135 H   0  0  0  0  0  0  0  0  0  0  0  0
    1.4632   -8.2281   10.4314 H   0  0  0  0  0  0  0  0  0  0  0  0
    0.2036   -7.1822    9.7989 H   0  0  0  0  0  0  0  0  0  0  0  0
    1.8932   -6.6939    9.7459 H   0  0  0  0  0  0  0  0  0  0  0  0
    0.8340  -10.0690    9.2984 H   0  0  0  0  0  0  0  0  0  0  0  0
    0.6541  -10.2267    7.5652 H   0  0  0  0  0  0  0  0  0  0  0  0
   -0.5238   -9.2976    8.4751 H   0  0  0  0  0  0  0  0  0  0  0  0
    1.6365  -10.1954    5.7777 H   0  0  0  0  0  0  0  0  0  0  0  0
  1  2  1  0
  1 32  1  0
  1 33  1  0
  1 34  1  0
  2  3  1  0
  3 28  1  0
  3  4  1  0
  3 35  1  6
  4 12  1  0
  4  5  1  0
  4 36  1  6
  5 15  1  0
  5  6  2  0
  6  7  1  0
  6 37  1  0
  7  8  1  0
  7 12  1  0
  7 38  1  1
  8  9  1  0
  9 10  1  0
  9 11  2  0
 10 39  1  0
 10 40  1  0
 10 41  1  0
 12 13  1  0
 12 42  1  1
 13 29  1  0
 13 14  1  0
 13 43  1  1
 14 15  1  0
 14 44  1  0
 14 45  1  0
 15 16  1  0
 15 46  1  6
 16 22  1  6
 16 25  1  0
 16 17  1  0
 17 18  1  0
 17 20  1  0
 17 47  1  1
 18 19  1  0
 19 48  1  0
 19 49  1  0
 19 50  1  0
 20 21  1  0
 20 51  1  0
 20 52  1  0
 21 22  1  0
 21 53  1  0
 21 54  1  0
 22 23  1  6
 22 24  1  0
 23 55  1  0
 23 56  1  0
 23 57  1  0
 24 25  1  0
 24 58  1  0
 24 59  1  0
 25 26  1  0
 25 71  1  1
 26 27  1  0
 26 60  1  0
 26 61  1  0
 27 28  1  0
 27 62  1  0
 27 63  1  0
 28 29  1  0
 28 64  1  1
 29 30  1  0
 29 31  1  0
 30 65  1  0
 30 66  1  0
 30 67  1  0
 31 68  1  0
 31 69  1  0
 31 70  1  0
M  CHG  1  25   1
M  END
>  <i_m_ct_stereo_status>  (363) 
1

>  <s_m_source_file>  (363) 
/var/tmp/pbs.5076255.sched01/tmpg_ssl3dq/162k0u29fl7.sdf

>  <i_m_source_file_index>  (363) 
12

>  <i_lp_mmshare_version>  (363) 
48012

>  <i_f3d_flags>  (363) 
0

>  <s_epik_input>  (363) 
W0NIM11DKD1PKU9bQ0BIXShbQ0hdMSlbQ0BIXShbQ0BASF0yQz0xW0NASF0zW0NAXTQ1NilbQ0BASF0oW0NIMl0zKUMoW0NIM10pKFtDSDNdKVtDQEhdKFtDQEBIXTJPW0NIM10pW0NIMl1bQ0gyXU42W0NIMl1bQ0BdNShbQ0gzXSlbQ0gyXVtDSDJdW0NAQEhdNE9bQ0gzXQ==

>  <s_epik_cmdline>  (363) 
J2VwaWtfcHl0aG9uJywgJy1waHQnLCAnMi4wJywgJy1waCcsICc3LjAnLCAnLXRuJywgJzgnLCAnLW1hJywgJzIwMCcsICctaW1hZScsICc8aW5maWxlLm1hZT4nLCAnLW9tYWUnLCAnPG91dGZpbGUubWFlPic=

>  <r_epik_Ionization_Penalty>  (363) 
0.000397374

>  <r_epik_Ionization_Penalty_Charging>  (363) 
0.000397374

>  <r_epik_Ionization_Penalty_Neutral>  (363) 
7.8806e-12

>  <r_epik_State_Penalty>  (363) 
0.000243437

>  <r_epik_Charging_Adjusted_Penalty>  (363) 
0.000640811

>  <i_epik_Tot_Q>  (363) 
1

>  <i_epik_Tot_abs_Q>  (363) 
1

>  <s_epik_Chemistry_Notes>  (363) 
This compound has an ester and may undergo hydrolysis at high or low pH.

>  <s_lp_Force_Field>  (363) 
OPLS3e

>  <r_lp_Energy>  (363) 
130.382

>  <b_lp_Chiralities_Consistent>  (363) 
1

>  <s_lp_Variant>  (363) 
94:0-1

>  <s_i_glide_gridfile>  (363) 
pfpi4k_grid

>  <i_i_glide_lignum>  (363) 
12

>  <i_i_glide_rotatable_bonds>  (363) 
4

>  <r_i_docking_score>  (363) 
-2.07996

>  <r_i_glide_ligand_efficiency>  (363) 
-0.0670954

>  <r_i_glide_ligand_efficiency_sa>  (363) 
-0.210772

>  <r_i_glide_ligand_efficiency_ln>  (363) 
-0.469094

>  <r_i_glide_gscore>  (363) 
-2.07996

>  <r_i_glide_lipo>  (363) 
-0.0538859

>  <r_i_glide_hbond>  (363) 
-0.0231195

>  <r_i_glide_metal>  (363) 
-0

>  <r_i_glide_rewards>  (363) 
-0.473181

>  <r_i_glide_evdw>  (363) 
-18.506

>  <r_i_glide_ecoul>  (363) 
-4.3161

>  <r_i_glide_erotb>  (363) 
0.107232

>  <r_i_glide_esite>  (363) 
-0.0642877

>  <r_i_glide_emodel>  (363) 
-26.6152

>  <r_i_glide_energy>  (363) 
-22.8221

>  <r_i_glide_einternal>  (363) 
0.634891

>  <r_i_glide_intrahb_reward>  (363) 
-0

>  <i_i_glide_confnum>  (363) 
1

>  <i_i_glide_posenum>  (363) 
20

>  <r_i_glide_eff_state_penalty>  (363) 
0

>  <ligand_id>  (363) 
94

>  <original_smiles>  (363) 
COC1C2C3=CC(OC(C)=O)C2C2CC3C34C(OC)CCC3(C)CN4CCC1C2(C)C

>  <smiles>  (363) 
[H]C1=C2C3([H])C([H])(OC([H])([H])[H])C4([H])C([H])([H])C([H])([H])[N+]5([H])C([H])([H])C6(C([H])([H])[H])C([H])([H])C([H])([H])C([H])(OC([H])([H])[H])C65C2([H])C([H])([H])C([H])(C3([H])C1([H])OC(=O)C([H])([H])[H])C4(C([H])([H])[H])C([H])([H])[H]

$$$$
94:0:2
     RDKit          3D

 71 76  0  0  1  0  0  0  0  0999 V2000
    6.2322   -6.1965    6.5936 C   0  0  0  0  0  0  0  0  0  0  0  0
    5.1612   -7.0814    6.8867 O   0  0  0  0  0  0  0  0  0  0  0  0
    4.1773   -7.1757    5.8615 C   0  0  2  0  0  0  0  0  0  0  0  0
    3.1584   -6.0423    6.1016 C   0  0  1  0  0  0  0  0  0  0  0  0
    2.4727   -5.3796    4.9308 C   0  0  0  0  0  0  0  0  0  0  0  0
    1.5374   -4.5575    5.4253 C   0  0  0  0  0  0  0  0  0  0  0  0
    1.1854   -5.0339    6.8134 C   0  0  1  0  0  0  0  0  0  0  0  0
   -0.2109   -5.1912    7.0221 O   0  0  0  0  0  0  0  0  0  0  0  0
   -0.9302   -4.2000    7.5718 C   0  0  0  0  0  0  0  0  0  0  0  0
   -2.3893   -4.5740    7.7557 C   0  0  0  0  0  0  0  0  0  0  0  0
   -0.5146   -3.0901    7.9117 O   0  0  0  0  0  0  0  0  0  0  0  0
    1.9185   -6.3974    6.8774 C   0  0  1  0  0  0  0  0  0  0  0  0
    1.2800   -7.5933    6.0738 C   0  0  1  0  0  0  0  0  0  0  0  0
    0.9781   -7.2792    4.5515 C   0  0  0  0  0  0  0  0  0  0  0  0
    1.9572   -6.2938    3.8341 C   0  0  2  0  0  0  0  0  0  0  0  0
    2.9464   -6.8447    2.7416 C   0  0  2  0  0  0  0  0  0  0  0  0
    4.1458   -5.8661    2.4882 C   0  0  1  0  0  0  0  0  0  0  0  0
    5.3132   -6.4917    1.9799 O   0  0  0  0  0  0  0  0  0  0  0  0
    6.4982   -5.7148    2.1002 C   0  0  0  0  0  0  0  0  0  0  0  0
    3.6134   -4.9814    1.3530 C   0  0  0  0  0  0  0  0  0  0  0  0
    2.8712   -5.9533    0.4300 C   0  0  0  0  0  0  0  0  0  0  0  0
    2.3494   -7.0676    1.3352 C   0  0  2  0  0  0  0  0  0  0  0  0
    0.8376   -7.1963    1.1252 C   0  0  0  0  0  0  0  0  0  0  0  0
    3.1043   -8.4008    1.3396 C   0  0  0  0  0  0  0  0  0  0  0  0
    3.1909   -8.3107    2.7883 N   0  0  1  0  0  0  0  0  0  0  0  0
    4.4235   -8.9122    3.3652 C   0  0  0  0  0  0  0  0  0  0  0  0
    4.2404   -9.5309    4.7600 C   0  0  0  0  0  0  0  0  0  0  0  0
    3.6404   -8.6500    5.8880 C   0  0  2  0  0  0  0  0  0  0  0  0
    2.1292   -8.8792    6.2912 C   0  0  0  0  0  0  0  0  0  0  0  0
    2.0687   -9.2540    7.7994 C   0  0  0  0  0  0  0  0  0  0  0  0
    1.4608  -10.0876    5.5829 C   0  0  0  0  0  0  0  0  0  0  0  0
    6.8839   -6.1300    7.4635 H   0  0  0  0  0  0  0  0  0  0  0  0
    5.8896   -5.1883    6.3556 H   0  0  0  0  0  0  0  0  0  0  0  0
    6.8225   -6.5667    5.7543 H   0  0  0  0  0  0  0  0  0  0  0  0
    4.6826   -6.9640    4.9290 H   0  0  0  0  0  0  0  0  0  0  0  0
    3.6746   -5.2253    6.6120 H   0  0  0  0  0  0  0  0  0  0  0  0
    0.7258   -4.1695    4.8307 H   0  0  0  0  0  0  0  0  0  0  0  0
    1.6292   -4.3414    7.5297 H   0  0  0  0  0  0  0  0  0  0  0  0
   -2.4484   -5.4581    8.3804 H   0  0  0  0  0  0  0  0  0  0  0  0
   -2.8568   -4.7746    6.7915 H   0  0  0  0  0  0  0  0  0  0  0  0
   -2.9528   -3.8026    8.2743 H   0  0  0  0  0  0  0  0  0  0  0  0
    2.1378   -6.6277    7.9178 H   0  0  0  0  0  0  0  0  0  0  0  0
    0.3069   -7.8029    6.5181 H   0  0  0  0  0  0  0  0  0  0  0  0
    0.8241   -8.1735    3.9620 H   0  0  0  0  0  0  0  0  0  0  0  0
   -0.0078   -6.8173    4.5298 H   0  0  0  0  0  0  0  0  0  0  0  0
    1.3041   -5.6264    3.2678 H   0  0  0  0  0  0  0  0  0  0  0  0
    4.4115   -5.2678    3.3575 H   0  0  0  0  0  0  0  0  0  0  0  0
    7.3317   -6.2619    1.6610 H   0  0  0  0  0  0  0  0  0  0  0  0
    6.7355   -5.5190    3.1464 H   0  0  0  0  0  0  0  0  0  0  0  0
    6.4264   -4.7590    1.5811 H   0  0  0  0  0  0  0  0  0  0  0  0
    2.8950   -4.2695    1.7585 H   0  0  0  0  0  0  0  0  0  0  0  0
    4.3765   -4.4032    0.8272 H   0  0  0  0  0  0  0  0  0  0  0  0
    2.0920   -5.4477   -0.1397 H   0  0  0  0  0  0  0  0  0  0  0  0
    3.5902   -6.3459   -0.2949 H   0  0  0  0  0  0  0  0  0  0  0  0
    0.6171   -7.4547    0.0857 H   0  0  0  0  0  0  0  0  0  0  0  0
    0.3221   -6.2608    1.3230 H   0  0  0  0  0  0  0  0  0  0  0  0
    0.3893   -7.9790    1.7364 H   0  0  0  0  0  0  0  0  0  0  0  0
    2.5212   -9.2638    1.0167 H   0  0  0  0  0  0  0  0  0  0  0  0
    4.0720   -8.3642    0.8287 H   0  0  0  0  0  0  0  0  0  0  0  0
    4.7057   -9.7419    2.7176 H   0  0  0  0  0  0  0  0  0  0  0  0
    5.3080   -8.2750    3.3618 H   0  0  0  0  0  0  0  0  0  0  0  0
    3.7537  -10.4994    4.6834 H   0  0  0  0  0  0  0  0  0  0  0  0
    5.2481   -9.7946    5.0746 H   0  0  0  0  0  0  0  0  0  0  0  0
    4.1642   -9.0853    6.7407 H   0  0  0  0  0  0  0  0  0  0  0  0
    2.4536  -10.2565    7.9734 H   0  0  0  0  0  0  0  0  0  0  0  0
    1.0495   -9.2364    8.1830 H   0  0  0  0  0  0  0  0  0  0  0  0
    2.6751   -8.6030    8.4275 H   0  0  0  0  0  0  0  0  0  0  0  0
    1.8960  -11.0323    5.9185 H   0  0  0  0  0  0  0  0  0  0  0  0
    1.5673  -10.0803    4.4999 H   0  0  0  0  0  0  0  0  0  0  0  0
    0.3948  -10.1388    5.8043 H   0  0  0  0  0  0  0  0  0  0  0  0
    2.3707   -8.7660    3.1620 H   0  0  0  0  0  0  0  0  0  0  0  0
  1  2  1  0
  1 32  1  0
  1 33  1  0
  1 34  1  0
  2  3  1  0
  3 28  1  0
  3  4  1  0
  3 35  1  6
  4 12  1  0
  4  5  1  0
  4 36  1  1
  5 15  1  0
  5  6  2  0
  6  7  1  0
  6 37  1  0
  7  8  1  0
  7 12  1  0
  7 38  1  1
  8  9  1  0
  9 10  1  0
  9 11  2  0
 10 39  1  0
 10 40  1  0
 10 41  1  0
 12 13  1  0
 12 42  1  1
 13 29  1  0
 13 14  1  0
 13 43  1  1
 14 15  1  0
 14 44  1  0
 14 45  1  0
 15 16  1  0
 15 46  1  6
 16 22  1  6
 16 25  1  0
 16 17  1  0
 17 18  1  0
 17 20  1  0
 17 47  1  1
 18 19  1  0
 19 48  1  0
 19 49  1  0
 19 50  1  0
 20 21  1  0
 20 51  1  0
 20 52  1  0
 21 22  1  0
 21 53  1  0
 21 54  1  0
 22 23  1  1
 22 24  1  0
 23 55  1  0
 23 56  1  0
 23 57  1  0
 24 25  1  0
 24 58  1  0
 24 59  1  0
 25 26  1  0
 25 71  1  1
 26 27  1  0
 26 60  1  0
 26 61  1  0
 27 28  1  0
 27 62  1  0
 27 63  1  0
 28 29  1  0
 28 64  1  1
 29 30  1  0
 29 31  1  0
 30 65  1  0
 30 66  1  0
 30 67  1  0
 31 68  1  0
 31 69  1  0
 31 70  1  0
M  CHG  1  25   1
M  END
>  <i_m_ct_stereo_status>  (364) 
1

>  <s_m_source_file>  (364) 
/var/tmp/pbs.5076255.sched01/tmpg_ssl3dq/162k0u29fl7.sdf

>  <i_m_source_file_index>  (364) 
12

>  <i_lp_mmshare_version>  (364) 
48012

>  <i_f3d_flags>  (364) 
0

>  <s_epik_input>  (364) 
W0NIM11DKD1PKU9bQ0BIXShbQ0hdMSlbQ0BIXShbQ0BASF0yQz0xW0NASF0zW0NAXTQ1NilbQ0BASF0oW0NIMl0zKUMoW0NIM10pKFtDSDNdKVtDQEhdKFtDQEBIXTJPW0NIM10pW0NIMl1bQ0gyXU42W0NIMl1bQ0BdNShbQ0gzXSlbQ0gyXVtDSDJdW0NAQEhdNE9bQ0gzXQ==

>  <s_epik_cmdline>  (364) 
J2VwaWtfcHl0aG9uJywgJy1waHQnLCAnMi4wJywgJy1waCcsICc3LjAnLCAnLXRuJywgJzgnLCAnLW1hJywgJzIwMCcsICctaW1hZScsICc8aW5maWxlLm1hZT4nLCAnLW9tYWUnLCAnPG91dGZpbGUubWFlPic=

>  <r_epik_Ionization_Penalty>  (364) 
0.000397374

>  <r_epik_Ionization_Penalty_Charging>  (364) 
0.000397374

>  <r_epik_Ionization_Penalty_Neutral>  (364) 
7.8806e-12

>  <r_epik_State_Penalty>  (364) 
0.000243437

>  <r_epik_Charging_Adjusted_Penalty>  (364) 
0.000640811

>  <i_epik_Tot_Q>  (364) 
1

>  <i_epik_Tot_abs_Q>  (364) 
1

>  <s_epik_Chemistry_Notes>  (364) 
This compound has an ester and may undergo hydrolysis at high or low pH.

>  <s_lp_Force_Field>  (364) 
OPLS3e

>  <r_lp_Energy>  (364) 
130.382

>  <b_lp_Chiralities_Consistent>  (364) 
1

>  <s_lp_Variant>  (364) 
94:0-1

>  <s_i_glide_gridfile>  (364) 
pfpi4k_grid

>  <i_i_glide_lignum>  (364) 
12

>  <i_i_glide_rotatable_bonds>  (364) 
4

>  <r_i_docking_score>  (364) 
-1.97991

>  <r_i_glide_ligand_efficiency>  (364) 
-0.063868

>  <r_i_glide_ligand_efficiency_sa>  (364) 
-0.200634

>  <r_i_glide_ligand_efficiency_ln>  (364) 
-0.44653

>  <r_i_glide_gscore>  (364) 
-1.97991

>  <r_i_glide_lipo>  (364) 
-0.0571711

>  <r_i_glide_hbond>  (364) 
-0.0922404

>  <r_i_glide_metal>  (364) 
-0

>  <r_i_glide_rewards>  (364) 
-0.473181

>  <r_i_glide_evdw>  (364) 
-17.3761

>  <r_i_glide_ecoul>  (364) 
-3.76645

>  <r_i_glide_erotb>  (364) 
0.107232

>  <r_i_glide_esite>  (364) 
-0.0307743

>  <r_i_glide_emodel>  (364) 
-24.8149

>  <r_i_glide_energy>  (364) 
-21.1426

>  <r_i_glide_einternal>  (364) 
0.821328

>  <r_i_glide_intrahb_reward>  (364) 
-0

>  <i_i_glide_confnum>  (364) 
1

>  <i_i_glide_posenum>  (364) 
26

>  <r_i_glide_eff_state_penalty>  (364) 
0

>  <ligand_id>  (364) 
94

>  <original_smiles>  (364) 
COC1C2C3=CC(OC(C)=O)C2C2CC3C34C(OC)CCC3(C)CN4CCC1C2(C)C

>  <smiles>  (364) 
[H]C1=C2C3([H])C([H])(OC([H])([H])[H])C4([H])C([H])([H])C([H])([H])[N+]5([H])C([H])([H])C6(C([H])([H])[H])C([H])([H])C([H])([H])C([H])(OC([H])([H])[H])C65C2([H])C([H])([H])C([H])(C3([H])C1([H])OC(=O)C([H])([H])[H])C4(C([H])([H])[H])C([H])([H])[H]

$$$$
98:0:0
     RDKit          3D

 48 55  0  0  1  0  0  0  0  0999 V2000
   -3.4509    2.9440    3.5498 O   0  0  0  0  0  0  0  0  0  0  0  0
   -2.2769    2.8254    4.3104 C   0  0  1  0  0  0  0  0  0  0  0  0
   -2.5740    3.0829    5.7689 C   0  0  0  0  0  0  0  0  0  0  0  0
   -1.2462    3.6135    6.3570 C   0  0  1  0  0  0  0  0  0  0  0  0
   -0.4948    2.3418    6.8255 C   0  0  0  0  0  0  0  0  0  0  0  0
    0.2532    1.5970    5.6956 C   0  0  1  0  0  0  0  0  0  0  0  0
   -0.4502    0.7278    4.6076 C   0  0  2  0  0  0  0  0  0  0  0  0
    0.6578    0.1122    3.6409 C   0  0  0  0  0  0  0  0  0  0  0  0
    1.1176   -1.1293    3.7576 C   0  0  0  0  0  0  0  0  0  0  0  0
    2.1304   -1.4714    2.7017 C   0  0  0  0  0  0  0  0  0  0  0  0
    1.9177   -0.3856    1.7158 N   0  0  0  0  0  0  0  0  0  0  0  0
    1.3573    0.8106    2.4009 C   0  0  2  0  0  0  0  0  0  0  0  0
    2.5432    1.8942    2.5944 C   0  0  0  0  0  0  0  0  0  0  0  0
    2.3441    3.5025    2.6606 C   0  0  2  0  0  0  0  0  0  0  0  0
    3.2054    4.2581    3.6568 C   0  0  0  0  0  0  0  0  0  0  0  0
    1.7684    4.4391    3.7506 N   0  0  2  0  0  0  0  0  0  0  0  0
    1.0381    4.0024    5.0187 C   0  0  2  0  0  0  0  0  0  0  0  0
    0.7684    2.6076    4.7223 C   0  0  2  0  0  0  0  0  0  0  0  0
   -0.3139    2.7435    3.6032 C   0  0  1  0  0  0  0  0  0  0  0  0
   -1.3271    1.6908    3.7956 C   0  0  2  0  0  0  0  0  0  0  0  0
   -1.2036    3.8521    3.9914 C   0  0  2  0  0  0  0  0  0  0  0  0
   -0.4919    4.4175    5.2055 C   0  0  1  0  0  0  0  0  0  0  0  0
   -3.6825    2.0608    3.2678 H   0  0  0  0  0  0  0  0  0  0  0  0
   -3.3328    3.8550    5.8673 H   0  0  0  0  0  0  0  0  0  0  0  0
   -2.9664    2.2068    6.2855 H   0  0  0  0  0  0  0  0  0  0  0  0
   -1.4502    4.2484    7.2218 H   0  0  0  0  0  0  0  0  0  0  0  0
    0.2459    2.6689    7.5566 H   0  0  0  0  0  0  0  0  0  0  0  0
   -1.1485    1.6612    7.3726 H   0  0  0  0  0  0  0  0  0  0  0  0
    1.0567    1.0225    6.1663 H   0  0  0  0  0  0  0  0  0  0  0  0
   -1.0339   -0.0684    5.0729 H   0  0  0  0  0  0  0  0  0  0  0  0
    0.8383   -1.8387    4.5287 H   0  0  0  0  0  0  0  0  0  0  0  0
    3.1348   -1.4325    3.1246 H   0  0  0  0  0  0  0  0  0  0  0  0
    1.9636   -2.4600    2.2718 H   0  0  0  0  0  0  0  0  0  0  0  0
    2.7578   -0.1822    1.1851 H   0  0  0  0  0  0  0  0  0  0  0  0
    0.6152    1.1726    1.6929 H   0  0  0  0  0  0  0  0  0  0  0  0
    3.2337    1.5758    3.3806 H   0  0  0  0  0  0  0  0  0  0  0  0
    3.1733    1.7476    1.7133 H   0  0  0  0  0  0  0  0  0  0  0  0
    2.2149    3.9818    1.6938 H   0  0  0  0  0  0  0  0  0  0  0  0
    3.6193    3.7317    4.5173 H   0  0  0  0  0  0  0  0  0  0  0  0
    3.7034    5.1638    3.3121 H   0  0  0  0  0  0  0  0  0  0  0  0
    1.6282    4.1623    5.9207 H   0  0  0  0  0  0  0  0  0  0  0  0
    1.7312    2.1584    4.6408 H   0  0  0  0  0  0  0  0  0  0  0  0
   -0.0515    2.9250    2.5635 H   0  0  0  0  0  0  0  0  0  0  0  0
   -1.6754    1.2894    2.8450 H   0  0  0  0  0  0  0  0  0  0  0  0
   -1.4360    4.5308    3.1737 H   0  0  0  0  0  0  0  0  0  0  0  0
   -0.6341    5.4946    5.3052 H   0  0  0  0  0  0  0  0  0  0  0  0
    1.5099    5.3543    3.3919 H   0  0  0  0  0  0  0  0  0  0  0  0
    1.2099   -0.6940    1.0553 H   0  0  0  0  0  0  0  0  0  0  0  0
  2  1  1  6
  1 23  1  0
  2 20  1  0
  2 21  1  0
  2  3  1  0
  3  4  1  0
  3 24  1  0
  3 25  1  0
  4 22  1  0
  4  5  1  0
  4 26  1  1
  5  6  1  0
  5 27  1  0
  5 28  1  0
  6 18  1  0
  6  7  1  0
  6 29  1  1
  7 20  1  0
  7  8  1  0
  7 30  1  1
  8 12  1  0
  8  9  2  0
  9 10  1  0
  9 31  1  0
 10 11  1  0
 10 32  1  0
 10 33  1  0
 11 12  1  0
 11 34  1  0
 11 48  1  0
 12 13  1  0
 12 35  1  6
 13 14  1  0
 13 36  1  0
 13 37  1  0
 14 16  1  0
 14 15  1  0
 14 38  1  6
 15 16  1  0
 15 39  1  0
 15 40  1  0
 16 17  1  0
 16 47  1  6
 17 22  1  0
 17 18  1  0
 17 41  1  1
 18 19  1  0
 18 42  1  6
 19 20  1  0
 19 21  1  0
 19 43  1  6
 20 44  1  6
 21 22  1  0
 21 45  1  6
 22 46  1  1
M  CHG  2  11   1  16   1
M  END
>  <i_m_ct_stereo_status>  (365) 
1

>  <s_m_source_file>  (365) 
/var/tmp/pbs.5076255.sched01/tmpg_ssl3dq/162k0u29fl7.sdf

>  <i_m_source_file_index>  (365) 
16

>  <i_lp_mmshare_version>  (365) 
48012

>  <i_f3d_flags>  (365) 
2

>  <s_epik_input>  (365) 
W09IXVtDQF0xMltDQEBIXTNbQ0BASF00W0NASF01W0NAQEhdNltDQEhdKFtDQEhdKFtDQEBIXShbQ0gyXTEpW0NIMl01KVtDQEhdMltDQEBIXTM2KU43W0NASF0oW0NIMl03KVtDSDJdW0NAQEhdOEM0PVtDSF1bQ0gyXVtOSF04

>  <s_epik_cmdline>  (365) 
J2VwaWtfcHl0aG9uJywgJy1waHQnLCAnMi4wJywgJy1waCcsICc3LjAnLCAnLXRuJywgJzgnLCAnLW1hJywgJzIwMCcsICctaW1hZScsICc8aW5maWxlLm1hZT4nLCAnLW9tYWUnLCAnPG91dGZpbGUubWFlPic=

>  <r_epik_Ionization_Penalty>  (365) 
0.0627024

>  <r_epik_Ionization_Penalty_Charging>  (365) 
0.0627023

>  <r_epik_Ionization_Penalty_Neutral>  (365) 
7.40277e-08

>  <r_epik_State_Penalty>  (365) 
0.0509092

>  <r_epik_Charging_Adjusted_Penalty>  (365) 
0.113612

>  <i_epik_Tot_Q>  (365) 
2

>  <i_epik_Tot_abs_Q>  (365) 
2

>  <s_lp_Force_Field>  (365) 
OPLS3e

>  <r_lp_Energy>  (365) 
168.504

>  <b_lp_Chiralities_Consistent>  (365) 
0

>  <s_lp_Variant>  (365) 
98:0-1

>  <s_i_glide_gridfile>  (365) 
pfpi4k_grid

>  <i_i_glide_lignum>  (365) 
16

>  <i_i_glide_rotatable_bonds>  (365) 
1

>  <r_i_docking_score>  (365) 
-4.6067

>  <r_i_glide_ligand_efficiency>  (365) 
-0.209396

>  <r_i_glide_ligand_efficiency_sa>  (365) 
-0.586735

>  <r_i_glide_ligand_efficiency_ln>  (365) 
-1.12605

>  <r_i_glide_gscore>  (365) 
-4.6067

>  <r_i_glide_lipo>  (365) 
-0.0824808

>  <r_i_glide_hbond>  (365) 
-0.514648

>  <r_i_glide_metal>  (365) 
-0

>  <r_i_glide_rewards>  (365) 
-1.37439

>  <r_i_glide_evdw>  (365) 
-20.4542

>  <r_i_glide_ecoul>  (365) 
-9.84698

>  <r_i_glide_erotb>  (365) 
0

>  <r_i_glide_esite>  (365) 
-0.135426

>  <r_i_glide_emodel>  (365) 
-40.3221

>  <r_i_glide_energy>  (365) 
-30.3012

>  <r_i_glide_einternal>  (365) 
1.48077

>  <r_i_glide_intrahb_reward>  (365) 
-0

>  <i_i_glide_confnum>  (365) 
1

>  <i_i_glide_posenum>  (365) 
7

>  <r_i_glide_eff_state_penalty>  (365) 
0

>  <ligand_id>  (365) 
98

>  <original_smiles>  (365) 
OC12CC3CC4C5C6=CCNC6CC6CN6C6C4C(C51)C2C36

>  <smiles>  (365) 
[H]OC12C([H])([H])C3([H])C([H])([H])C4([H])C5([H])C6=C([H])C([H])([H])[N+]([H])([H])C6([H])C([H])([H])C6([H])C([H])([H])[N+]6([H])C6([H])C4([H])C([H])(C51[H])C2([H])C36[H]

$$$$
98:0:1
     RDKit          3D

 48 55  0  0  1  0  0  0  0  0999 V2000
   -3.4506    2.9886    3.6660 O   0  0  0  0  0  0  0  0  0  0  0  0
   -2.2557    2.8314    4.3870 C   0  0  1  0  0  0  0  0  0  0  0  0
   -2.5462    3.0605    5.8399 C   0  0  0  0  0  0  0  0  0  0  0  0
   -1.2184    3.5865    6.4198 C   0  0  1  0  0  0  0  0  0  0  0  0
   -0.4647    2.3085    6.8661 C   0  0  0  0  0  0  0  0  0  0  0  0
    0.2734    1.5735    5.7251 C   0  0  1  0  0  0  0  0  0  0  0  0
   -0.4441    0.7162    4.6345 C   0  0  2  0  0  0  0  0  0  0  0  0
    0.6497    0.1218    3.6470 C   0  0  0  0  0  0  0  0  0  0  0  0
    1.1142   -1.1371    3.7467 C   0  0  0  0  0  0  0  0  0  0  0  0
    2.1126   -1.4594    2.6807 C   0  0  0  0  0  0  0  0  0  0  0  0
    1.9017   -0.3575    1.7124 N   0  0  0  0  0  0  0  0  0  0  0  0
    1.3365    0.8272    2.4112 C   0  0  2  0  0  0  0  0  0  0  0  0
    2.5308    1.9040    2.6118 C   0  0  0  0  0  0  0  0  0  0  0  0
    2.3386    3.5074    2.6984 C   0  0  2  0  0  0  0  0  0  0  0  0
    3.1935    4.2497    3.6954 C   0  0  0  0  0  0  0  0  0  0  0  0
    1.7640    4.4275    3.7955 N   0  0  2  0  0  0  0  0  0  0  0  0
    1.0523    3.9804    5.0772 C   0  0  2  0  0  0  0  0  0  0  0  0
    0.7817    2.5911    4.7610 C   0  0  2  0  0  0  0  0  0  0  0  0
   -0.3162    2.7396    3.6551 C   0  0  1  0  0  0  0  0  0  0  0  0
   -1.3325    1.6875    3.8475 C   0  0  2  0  0  0  0  0  0  0  0  0
   -1.1900    3.8500    4.0638 C   0  0  2  0  0  0  0  0  0  0  0  0
   -0.4710    4.4026    5.2715 C   0  0  1  0  0  0  0  0  0  0  0  0
   -3.3232    2.5713    2.8276 H   0  0  0  0  0  0  0  0  0  0  0  0
   -3.3125    3.8279    5.9482 H   0  0  0  0  0  0  0  0  0  0  0  0
   -2.9454    2.1791    6.3427 H   0  0  0  0  0  0  0  0  0  0  0  0
   -1.4179    4.2098    7.2894 H   0  0  0  0  0  0  0  0  0  0  0  0
    0.2751    2.6253    7.5970 H   0  0  0  0  0  0  0  0  0  0  0  0
   -1.1170    1.6251    7.4076 H   0  0  0  0  0  0  0  0  0  0  0  0
    1.0816    0.9939    6.1822 H   0  0  0  0  0  0  0  0  0  0  0  0
   -1.0190   -0.0876    5.0968 H   0  0  0  0  0  0  0  0  0  0  0  0
    0.8437   -1.8389    4.5091 H   0  0  0  0  0  0  0  0  0  0  0  0
    3.1191   -1.4362    3.1050 H   0  0  0  0  0  0  0  0  0  0  0  0
    1.9410   -2.4480    2.2478 H   0  0  0  0  0  0  0  0  0  0  0  0
    2.7408   -0.1465    1.1850 H   0  0  0  0  0  0  0  0  0  0  0  0
    0.5807    1.2011    1.7171 H   0  0  0  0  0  0  0  0  0  0  0  0
    3.2266    1.5752    3.3883 H   0  0  0  0  0  0  0  0  0  0  0  0
    3.1495    1.7591    1.7260 H   0  0  0  0  0  0  0  0  0  0  0  0
    2.2139    4.0046    1.7365 H   0  0  0  0  0  0  0  0  0  0  0  0
    3.6144    3.7167    4.5485 H   0  0  0  0  0  0  0  0  0  0  0  0
    3.6693    5.1700    3.3538 H   0  0  0  0  0  0  0  0  0  0  0  0
    1.6524    4.1267    5.9778 H   0  0  0  0  0  0  0  0  0  0  0  0
    1.7418    2.1372    4.6658 H   0  0  0  0  0  0  0  0  0  0  0  0
   -0.0744    2.9399    2.6128 H   0  0  0  0  0  0  0  0  0  0  0  0
   -1.6819    1.3055    2.8892 H   0  0  0  0  0  0  0  0  0  0  0  0
   -1.4327    4.5224    3.2442 H   0  0  0  0  0  0  0  0  0  0  0  0
   -0.6103    5.4786    5.3839 H   0  0  0  0  0  0  0  0  0  0  0  0
    1.5165    5.3448    3.4543 H   0  0  0  0  0  0  0  0  0  0  0  0
    1.1895   -0.6581    1.0582 H   0  0  0  0  0  0  0  0  0  0  0  0
  2  1  1  6
  1 23  1  0
  2 20  1  0
  2 21  1  0
  2  3  1  0
  3  4  1  0
  3 24  1  0
  3 25  1  0
  4 22  1  0
  4  5  1  0
  4 26  1  1
  5  6  1  0
  5 27  1  0
  5 28  1  0
  6 18  1  0
  6  7  1  0
  6 29  1  1
  7 20  1  0
  7  8  1  0
  7 30  1  1
  8 12  1  0
  8  9  2  0
  9 10  1  0
  9 31  1  0
 10 11  1  0
 10 32  1  0
 10 33  1  0
 11 12  1  0
 11 34  1  0
 11 48  1  0
 12 13  1  0
 12 35  1  6
 13 14  1  0
 13 36  1  0
 13 37  1  0
 14 16  1  0
 14 15  1  0
 14 38  1  6
 15 16  1  0
 15 39  1  0
 15 40  1  0
 16 17  1  0
 16 47  1  6
 17 22  1  0
 17 18  1  0
 17 41  1  1
 18 19  1  0
 18 42  1  6
 19 20  1  0
 19 21  1  0
 19 43  1  6
 20 44  1  6
 21 22  1  0
 21 45  1  6
 22 46  1  1
M  CHG  2  11   1  16   1
M  END
>  <i_m_ct_stereo_status>  (366) 
1

>  <s_m_source_file>  (366) 
/var/tmp/pbs.5076255.sched01/tmpg_ssl3dq/162k0u29fl7.sdf

>  <i_m_source_file_index>  (366) 
16

>  <i_lp_mmshare_version>  (366) 
48012

>  <i_f3d_flags>  (366) 
2

>  <s_epik_input>  (366) 
W09IXVtDQF0xMltDQEBIXTNbQ0BASF00W0NASF01W0NAQEhdNltDQEhdKFtDQEhdKFtDQEBIXShbQ0gyXTEpW0NIMl01KVtDQEhdMltDQEBIXTM2KU43W0NASF0oW0NIMl03KVtDSDJdW0NAQEhdOEM0PVtDSF1bQ0gyXVtOSF04

>  <s_epik_cmdline>  (366) 
J2VwaWtfcHl0aG9uJywgJy1waHQnLCAnMi4wJywgJy1waCcsICc3LjAnLCAnLXRuJywgJzgnLCAnLW1hJywgJzIwMCcsICctaW1hZScsICc8aW5maWxlLm1hZT4nLCAnLW9tYWUnLCAnPG91dGZpbGUubWFlPic=

>  <r_epik_Ionization_Penalty>  (366) 
0.0627024

>  <r_epik_Ionization_Penalty_Charging>  (366) 
0.0627023

>  <r_epik_Ionization_Penalty_Neutral>  (366) 
7.40277e-08

>  <r_epik_State_Penalty>  (366) 
0.0509092

>  <r_epik_Charging_Adjusted_Penalty>  (366) 
0.113612

>  <i_epik_Tot_Q>  (366) 
2

>  <i_epik_Tot_abs_Q>  (366) 
2

>  <s_lp_Force_Field>  (366) 
OPLS3e

>  <r_lp_Energy>  (366) 
168.504

>  <b_lp_Chiralities_Consistent>  (366) 
0

>  <s_lp_Variant>  (366) 
98:0-1

>  <s_i_glide_gridfile>  (366) 
pfpi4k_grid

>  <i_i_glide_lignum>  (366) 
16

>  <i_i_glide_rotatable_bonds>  (366) 
1

>  <r_i_docking_score>  (366) 
-4.02781

>  <r_i_glide_ligand_efficiency>  (366) 
-0.183082

>  <r_i_glide_ligand_efficiency_sa>  (366) 
-0.513004

>  <r_i_glide_ligand_efficiency_ln>  (366) 
-0.984543

>  <r_i_glide_gscore>  (366) 
-4.02781

>  <r_i_glide_lipo>  (366) 
-0.091342

>  <r_i_glide_hbond>  (366) 
-0.197521

>  <r_i_glide_metal>  (366) 
-0

>  <r_i_glide_rewards>  (366) 
-1.37439

>  <r_i_glide_evdw>  (366) 
-20.2917

>  <r_i_glide_ecoul>  (366) 
-8.10248

>  <r_i_glide_erotb>  (366) 
0

>  <r_i_glide_esite>  (366) 
-0.134596

>  <r_i_glide_emodel>  (366) 
-37.4561

>  <r_i_glide_energy>  (366) 
-28.3942

>  <r_i_glide_einternal>  (366) 
0.360516

>  <r_i_glide_intrahb_reward>  (366) 
-0

>  <i_i_glide_confnum>  (366) 
2

>  <i_i_glide_posenum>  (366) 
9

>  <r_i_glide_eff_state_penalty>  (366) 
0

>  <ligand_id>  (366) 
98

>  <original_smiles>  (366) 
OC12CC3CC4C5C6=CCNC6CC6CN6C6C4C(C51)C2C36

>  <smiles>  (366) 
[H]OC12C([H])([H])C3([H])C([H])([H])C4([H])C5([H])C6=C([H])C([H])([H])[N+]([H])([H])C6([H])C([H])([H])C6([H])C([H])([H])[N+]6([H])C6([H])C4([H])C([H])(C51[H])C2([H])C36[H]

$$$$
98:0:2
     RDKit          3D

 48 55  0  0  1  0  0  0  0  0999 V2000
   -1.7142    4.4389    2.9240 O   0  0  0  0  0  0  0  0  0  0  0  0
   -1.1875    3.4911    3.8322 C   0  0  1  0  0  0  0  0  0  0  0  0
   -2.2399    3.2133    4.8672 C   0  0  0  0  0  0  0  0  0  0  0  0
   -1.4604    2.7816    6.1314 C   0  0  1  0  0  0  0  0  0  0  0  0
   -1.3085    1.2461    5.9992 C   0  0  0  0  0  0  0  0  0  0  0  0
   -0.1393    0.8016    5.0956 C   0  0  1  0  0  0  0  0  0  0  0  0
   -0.1772    0.8759    3.5381 C   0  0  2  0  0  0  0  0  0  0  0  0
    1.1974    0.3250    2.9643 C   0  0  0  0  0  0  0  0  0  0  0  0
    1.3461   -0.9228    2.4884 C   0  0  0  0  0  0  0  0  0  0  0  0
    2.7147   -1.1929    1.9756 C   0  0  0  0  0  0  0  0  0  0  0  0
    3.2620    0.1745    1.8777 N   0  0  0  0  0  0  0  0  0  0  0  0
    2.5691    1.0932    2.8195 C   0  0  2  0  0  0  0  0  0  0  0  0
    3.5498    1.3365    4.0897 C   0  0  0  0  0  0  0  0  0  0  0  0
    3.5534    2.6596    5.0091 C   0  0  2  0  0  0  0  0  0  0  0  0
    3.7515    2.4504    6.4993 C   0  0  0  0  0  0  0  0  0  0  0  0
    2.5809    3.1841    6.0745 N   0  0  2  0  0  0  0  0  0  0  0  0
    1.1870    2.6251    6.3979 C   0  0  2  0  0  0  0  0  0  0  0  0
    0.9726    1.7838    5.2395 C   0  0  2  0  0  0  0  0  0  0  0  0
    0.7782    2.8449    4.1028 C   0  0  1  0  0  0  0  0  0  0  0  0
   -0.2834    2.3689    3.1928 C   0  0  2  0  0  0  0  0  0  0  0  0
   -0.0029    3.9485    4.6719 C   0  0  2  0  0  0  0  0  0  0  0  0
   -0.0724    3.5650    6.1395 C   0  0  1  0  0  0  0  0  0  0  0  0
   -1.0852    4.4978    2.2049 H   0  0  0  0  0  0  0  0  0  0  0  0
   -2.7826    4.1261    5.1096 H   0  0  0  0  0  0  0  0  0  0  0  0
   -2.9826    2.4988    4.5064 H   0  0  0  0  0  0  0  0  0  0  0  0
   -2.0575    3.0025    7.0160 H   0  0  0  0  0  0  0  0  0  0  0  0
   -1.1112    0.8670    7.0023 H   0  0  0  0  0  0  0  0  0  0  0  0
   -2.2378    0.7614    5.6919 H   0  0  0  0  0  0  0  0  0  0  0  0
    0.1455   -0.2072    5.3984 H   0  0  0  0  0  0  0  0  0  0  0  0
   -1.0236    0.3102    3.1376 H   0  0  0  0  0  0  0  0  0  0  0  0
    0.5932   -1.6778    2.4845 H   0  0  0  0  0  0  0  0  0  0  0  0
    3.2728   -1.7934    2.6910 H   0  0  0  0  0  0  0  0  0  0  0  0
    2.6986   -1.7119    1.0130 H   0  0  0  0  0  0  0  0  0  0  0  0
    4.2692    0.1936    1.9558 H   0  0  0  0  0  0  0  0  0  0  0  0
    2.4414    2.0093    2.2339 H   0  0  0  0  0  0  0  0  0  0  0  0
    3.5928    0.4443    4.7213 H   0  0  0  0  0  0  0  0  0  0  0  0
    4.5585    1.3344    3.6801 H   0  0  0  0  0  0  0  0  0  0  0  0
    4.0548    3.5253    4.5718 H   0  0  0  0  0  0  0  0  0  0  0  0
    3.5064    1.4839    6.9432 H   0  0  0  0  0  0  0  0  0  0  0  0
    4.4801    3.0918    7.0038 H   0  0  0  0  0  0  0  0  0  0  0  0
    1.1386    2.1066    7.3530 H   0  0  0  0  0  0  0  0  0  0  0  0
    1.7292    1.0365    5.3002 H   0  0  0  0  0  0  0  0  0  0  0  0
    1.6111    3.3207    3.5974 H   0  0  0  0  0  0  0  0  0  0  0  0
   -0.0541    2.5778    2.1527 H   0  0  0  0  0  0  0  0  0  0  0  0
    0.3687    4.9394    4.4142 H   0  0  0  0  0  0  0  0  0  0  0  0
   -0.1211    4.4399    6.7894 H   0  0  0  0  0  0  0  0  0  0  0  0
    2.7117    4.1520    6.3041 H   0  0  0  0  0  0  0  0  0  0  0  0
    2.9737    0.4672    0.9581 H   0  0  0  0  0  0  0  0  0  0  0  0
  2  1  1  6
  1 23  1  0
  2 20  1  0
  2 21  1  0
  2  3  1  0
  3  4  1  0
  3 24  1  0
  3 25  1  0
  4 22  1  0
  4  5  1  0
  4 26  1  1
  5  6  1  0
  5 27  1  0
  5 28  1  0
  6 18  1  0
  6  7  1  0
  6 29  1  6
  7 20  1  0
  7  8  1  0
  7 30  1  6
  8 12  1  0
  8  9  2  0
  9 10  1  0
  9 31  1  0
 10 11  1  0
 10 32  1  0
 10 33  1  0
 11 12  1  0
 11 34  1  0
 11 48  1  0
 12 13  1  0
 12 35  1  6
 13 14  1  0
 13 36  1  0
 13 37  1  0
 14 16  1  0
 14 15  1  0
 14 38  1  6
 15 16  1  0
 15 39  1  0
 15 40  1  0
 16 17  1  0
 16 47  1  1
 17 22  1  0
 17 18  1  0
 17 41  1  1
 18 19  1  0
 18 42  1  6
 19 20  1  0
 19 21  1  0
 19 43  1  6
 20 44  1  6
 21 22  1  0
 21 45  1  1
 22 46  1  1
M  CHG  2  11   1  16   1
M  END
>  <i_m_ct_stereo_status>  (367) 
1

>  <s_m_source_file>  (367) 
/var/tmp/pbs.5076255.sched01/tmpg_ssl3dq/162k0u29fl7.sdf

>  <i_m_source_file_index>  (367) 
16

>  <i_lp_mmshare_version>  (367) 
48012

>  <i_f3d_flags>  (367) 
2

>  <s_epik_input>  (367) 
W09IXVtDQF0xMltDQEBIXTNbQ0BASF00W0NASF01W0NAQEhdNltDQEhdKFtDQEhdKFtDQEBIXShbQ0gyXTEpW0NIMl01KVtDQEhdMltDQEBIXTM2KU43W0NASF0oW0NIMl03KVtDSDJdW0NAQEhdOEM0PVtDSF1bQ0gyXVtOSF04

>  <s_epik_cmdline>  (367) 
J2VwaWtfcHl0aG9uJywgJy1waHQnLCAnMi4wJywgJy1waCcsICc3LjAnLCAnLXRuJywgJzgnLCAnLW1hJywgJzIwMCcsICctaW1hZScsICc8aW5maWxlLm1hZT4nLCAnLW9tYWUnLCAnPG91dGZpbGUubWFlPic=

>  <r_epik_Ionization_Penalty>  (367) 
0.0627024

>  <r_epik_Ionization_Penalty_Charging>  (367) 
0.0627023

>  <r_epik_Ionization_Penalty_Neutral>  (367) 
7.40277e-08

>  <r_epik_State_Penalty>  (367) 
0.0509092

>  <r_epik_Charging_Adjusted_Penalty>  (367) 
0.113612

>  <i_epik_Tot_Q>  (367) 
2

>  <i_epik_Tot_abs_Q>  (367) 
2

>  <s_lp_Force_Field>  (367) 
OPLS3e

>  <r_lp_Energy>  (367) 
168.504

>  <b_lp_Chiralities_Consistent>  (367) 
0

>  <s_lp_Variant>  (367) 
98:0-1

>  <s_i_glide_gridfile>  (367) 
pfpi4k_grid

>  <i_i_glide_lignum>  (367) 
16

>  <i_i_glide_rotatable_bonds>  (367) 
1

>  <r_i_docking_score>  (367) 
-3.85771

>  <r_i_glide_ligand_efficiency>  (367) 
-0.17535

>  <r_i_glide_ligand_efficiency_sa>  (367) 
-0.491339

>  <r_i_glide_ligand_efficiency_ln>  (367) 
-0.942965

>  <r_i_glide_gscore>  (367) 
-3.85771

>  <r_i_glide_lipo>  (367) 
-0.0345508

>  <r_i_glide_hbond>  (367) 
-0.236427

>  <r_i_glide_metal>  (367) 
-0

>  <r_i_glide_rewards>  (367) 
-1.37439

>  <r_i_glide_evdw>  (367) 
-18.5412

>  <r_i_glide_ecoul>  (367) 
-8.56853

>  <r_i_glide_erotb>  (367) 
0

>  <r_i_glide_esite>  (367) 
0

>  <r_i_glide_emodel>  (367) 
-35.8155

>  <r_i_glide_energy>  (367) 
-27.1097

>  <r_i_glide_einternal>  (367) 
0.212954

>  <r_i_glide_intrahb_reward>  (367) 
-0

>  <i_i_glide_confnum>  (367) 
1

>  <i_i_glide_posenum>  (367) 
37

>  <r_i_glide_eff_state_penalty>  (367) 
0

>  <ligand_id>  (367) 
98

>  <original_smiles>  (367) 
OC12CC3CC4C5C6=CCNC6CC6CN6C6C4C(C51)C2C36

>  <smiles>  (367) 
[H]OC12C([H])([H])C3([H])C([H])([H])C4([H])C5([H])C6=C([H])C([H])([H])[N+]([H])([H])C6([H])C([H])([H])C6([H])C([H])([H])[N+]6([H])C6([H])C4([H])C([H])(C51[H])C2([H])C36[H]

$$$$
98:1:0
     RDKit          3D

 47 54  0  0  1  0  0  0  0  0999 V2000
  -12.3434   -7.4595   -8.4194 O   0  0  0  0  0  0  0  0  0  0  0  0
  -11.0290   -7.3172   -8.9092 C   0  0  1  0  0  0  0  0  0  0  0  0
  -11.0700   -7.1469  -10.4043 C   0  0  0  0  0  0  0  0  0  0  0  0
   -9.7004   -7.6679  -10.8951 C   0  0  1  0  0  0  0  0  0  0  0  0
   -8.7645   -6.4388  -10.8480 C   0  0  0  0  0  0  0  0  0  0  0  0
   -8.1826   -6.1456   -9.4566 C   0  0  1  0  0  0  0  0  0  0  0  0
   -8.9787   -5.5142   -8.2814 C   0  0  2  0  0  0  0  0  0  0  0  0
   -8.0163   -5.3765   -7.0156 C   0  0  0  0  0  0  0  0  0  0  0  0
   -7.4599   -4.2237   -6.6677 C   0  0  0  0  0  0  0  0  0  0  0  0
   -6.5924   -4.2981   -5.4408 C   0  0  0  0  0  0  0  0  0  0  0  0
   -7.0314   -5.5780   -4.8778 N   0  0  0  0  0  0  0  0  0  0  0  0
   -7.5712   -6.4485   -5.9532 C   0  0  2  0  0  0  0  0  0  0  0  0
   -6.4914   -7.6202   -6.2650 C   0  0  0  0  0  0  0  0  0  0  0  0
   -6.8553   -9.0704   -6.8680 C   0  0  2  0  0  0  0  0  0  0  0  0
   -5.9044   -9.6074   -7.9216 C   0  0  0  0  0  0  0  0  0  0  0  0
   -7.3197   -9.5786   -8.2368 N   0  0  0  0  0  0  0  0  0  0  0  0
   -7.7460   -8.7232   -9.4125 C   0  0  2  0  0  0  0  0  0  0  0  0
   -7.9361   -7.4383   -8.7544 C   0  0  2  0  0  0  0  0  0  0  0  0
   -9.2241   -7.7043   -7.9202 C   0  0  1  0  0  0  0  0  0  0  0  0
  -10.0896   -6.5001   -7.9530 C   0  0  2  0  0  0  0  0  0  0  0  0
  -10.1259   -8.5299   -8.7358 C   0  0  2  0  0  0  0  0  0  0  0  0
   -9.2503   -8.8509   -9.9331 C   0  0  1  0  0  0  0  0  0  0  0  0
  -12.7651   -6.5905   -8.4230 H   0  0  0  0  0  0  0  0  0  0  0  0
  -11.8487   -7.7835  -10.8219 H   0  0  0  0  0  0  0  0  0  0  0  0
  -11.3049   -6.1245  -10.6987 H   0  0  0  0  0  0  0  0  0  0  0  0
   -9.7815   -8.0219  -11.9177 H   0  0  0  0  0  0  0  0  0  0  0  0
   -7.9219   -6.6592  -11.5047 H   0  0  0  0  0  0  0  0  0  0  0  0
   -9.2288   -5.5475  -11.2703 H   0  0  0  0  0  0  0  0  0  0  0  0
   -7.2961   -5.5448   -9.6168 H   0  0  0  0  0  0  0  0  0  0  0  0
   -9.3813   -4.5404   -8.5623 H   0  0  0  0  0  0  0  0  0  0  0  0
   -7.5665   -3.3373   -7.2567 H   0  0  0  0  0  0  0  0  0  0  0  0
   -5.5354   -4.3411   -5.7145 H   0  0  0  0  0  0  0  0  0  0  0  0
   -6.7399   -3.4622   -4.7482 H   0  0  0  0  0  0  0  0  0  0  0  0
   -6.3289   -6.0212   -4.2984 H   0  0  0  0  0  0  0  0  0  0  0  0
   -8.4773   -6.8166   -5.5166 H   0  0  0  0  0  0  0  0  0  0  0  0
   -5.6325   -7.1987   -6.7908 H   0  0  0  0  0  0  0  0  0  0  0  0
   -6.0555   -7.8619   -5.2929 H   0  0  0  0  0  0  0  0  0  0  0  0
   -7.1323   -9.7581   -6.0708 H   0  0  0  0  0  0  0  0  0  0  0  0
   -5.2571   -8.8934   -8.4238 H   0  0  0  0  0  0  0  0  0  0  0  0
   -5.4585  -10.5777   -7.7203 H   0  0  0  0  0  0  0  0  0  0  0  0
   -7.0048   -8.6895  -10.2090 H   0  0  0  0  0  0  0  0  0  0  0  0
   -6.9787   -7.1586   -8.3805 H   0  0  0  0  0  0  0  0  0  0  0  0
   -9.1277   -8.2320   -6.9816 H   0  0  0  0  0  0  0  0  0  0  0  0
  -10.6130   -6.2529   -7.0398 H   0  0  0  0  0  0  0  0  0  0  0  0
  -10.5638   -9.3638   -8.1884 H   0  0  0  0  0  0  0  0  0  0  0  0
   -9.4755   -9.8319  -10.3525 H   0  0  0  0  0  0  0  0  0  0  0  0
   -7.8306   -5.3239   -4.3086 H   0  0  0  0  0  0  0  0  0  0  0  0
  2  1  1  1
  1 23  1  0
  2 20  1  0
  2 21  1  0
  2  3  1  0
  3  4  1  0
  3 24  1  0
  3 25  1  0
  4 22  1  0
  4  5  1  0
  4 26  1  6
  5  6  1  0
  5 27  1  0
  5 28  1  0
  6 18  1  0
  6  7  1  0
  6 29  1  6
  7 20  1  0
  7  8  1  0
  7 30  1  6
  8 12  1  0
  8  9  2  0
  9 10  1  0
  9 31  1  0
 10 11  1  0
 10 32  1  0
 10 33  1  0
 11 12  1  0
 11 34  1  0
 11 47  1  0
 12 13  1  0
 12 35  1  1
 13 14  1  0
 13 36  1  0
 13 37  1  0
 14 16  1  0
 14 15  1  0
 14 38  1  1
 15 16  1  0
 15 39  1  0
 15 40  1  0
 16 17  1  0
 17 22  1  0
 17 18  1  0
 17 41  1  6
 18 19  1  0
 18 42  1  1
 19 20  1  0
 19 21  1  0
 19 43  1  1
 20 44  1  1
 21 22  1  0
 21 45  1  1
 22 46  1  6
M  CHG  1  11   1
M  END
>  <i_m_ct_stereo_status>  (368) 
1

>  <s_m_source_file>  (368) 
/var/tmp/pbs.5076255.sched01/tmpg_ssl3dq/162k0u29fl7.sdf

>  <i_m_source_file_index>  (368) 
17

>  <i_lp_mmshare_version>  (368) 
48012

>  <i_f3d_flags>  (368) 
2

>  <s_epik_input>  (368) 
W09IXVtDQF0xMltDQEBIXTNbQ0BASF00W0NASF01W0NAQEhdNltDQEhdKFtDQEhdKFtDQEBIXShbQ0gyXTEpW0NIMl01KVtDQEhdMltDQEBIXTM2KU43W0NASF0oW0NIMl03KVtDSDJdW0NAQEhdOEM0PVtDSF1bQ0gyXVtOSF04

>  <s_epik_cmdline>  (368) 
J2VwaWtfcHl0aG9uJywgJy1waHQnLCAnMi4wJywgJy1waCcsICc3LjAnLCAnLXRuJywgJzgnLCAnLW1hJywgJzIwMCcsICctaW1hZScsICc8aW5maWxlLm1hZT4nLCAnLW9tYWUnLCAnPG91dGZpbGUubWFlPic=

>  <r_epik_Ionization_Penalty>  (368) 
1.63832

>  <r_epik_Ionization_Penalty_Charging>  (368) 
0.00304578

>  <r_epik_Ionization_Penalty_Neutral>  (368) 
1.63527

>  <r_epik_State_Penalty>  (368) 
1.75454

>  <r_epik_Charging_Adjusted_Penalty>  (368) 
1.75758

>  <i_epik_Tot_Q>  (368) 
1

>  <i_epik_Tot_abs_Q>  (368) 
1

>  <s_lp_Force_Field>  (368) 
OPLS3e

>  <r_lp_Energy>  (368) 
159.568

>  <b_lp_Chiralities_Consistent>  (368) 
0

>  <s_lp_Variant>  (368) 
98:0-2

>  <s_i_glide_gridfile>  (368) 
pfpi4k_grid

>  <i_i_glide_lignum>  (368) 
17

>  <i_i_glide_rotatable_bonds>  (368) 
1

>  <r_i_docking_score>  (368) 
-6.0477

>  <r_i_glide_ligand_efficiency>  (368) 
-0.274896

>  <r_i_glide_ligand_efficiency_sa>  (368) 
-0.770268

>  <r_i_glide_ligand_efficiency_ln>  (368) 
-1.47828

>  <r_i_glide_gscore>  (368) 
-6.0477

>  <r_i_glide_lipo>  (368) 
-2.61868

>  <r_i_glide_hbond>  (368) 
-0.16

>  <r_i_glide_metal>  (368) 
-0

>  <r_i_glide_rewards>  (368) 
-2.02329

>  <r_i_glide_evdw>  (368) 
-18.7666

>  <r_i_glide_ecoul>  (368) 
-2.04934

>  <r_i_glide_erotb>  (368) 
0

>  <r_i_glide_esite>  (368) 
0

>  <r_i_glide_emodel>  (368) 
-32.1631

>  <r_i_glide_energy>  (368) 
-20.8159

>  <r_i_glide_einternal>  (368) 
0.93011

>  <r_i_glide_intrahb_reward>  (368) 
-0

>  <i_i_glide_confnum>  (368) 
1

>  <i_i_glide_posenum>  (368) 
5

>  <r_i_glide_eff_state_penalty>  (368) 
0

>  <ligand_id>  (368) 
98

>  <original_smiles>  (368) 
OC12CC3CC4C5C6=CCNC6CC6CN6C6C4C(C51)C2C36

>  <smiles>  (368) 
[H]OC12C([H])([H])C3([H])C([H])([H])C4([H])C5([H])C6=C([H])C([H])([H])[N+]([H])([H])C6([H])C([H])([H])C6([H])N(C6([H])[H])C6([H])C4([H])C([H])(C51[H])C2([H])C63[H]

$$$$
98:1:1
     RDKit          3D

 47 54  0  0  1  0  0  0  0  0999 V2000
   -3.4011    2.9432    3.6842 O   0  0  0  0  0  0  0  0  0  0  0  0
   -2.2379    2.7482    4.4331 C   0  0  1  0  0  0  0  0  0  0  0  0
   -2.5583    2.9408    5.8971 C   0  0  0  0  0  0  0  0  0  0  0  0
   -1.2287    3.3833    6.5328 C   0  0  1  0  0  0  0  0  0  0  0  0
   -0.5227    2.0569    6.9255 C   0  0  0  0  0  0  0  0  0  0  0  0
    0.2288    1.3622    5.7632 C   0  0  1  0  0  0  0  0  0  0  0  0
   -0.4820    0.5740    4.6226 C   0  0  2  0  0  0  0  0  0  0  0  0
    0.6349   -0.0044    3.6331 C   0  0  0  0  0  0  0  0  0  0  0  0
    1.0534   -1.2550    3.6745 C   0  0  0  0  0  0  0  0  0  0  0  0
    2.0902   -1.5588    2.6233 C   0  0  0  0  0  0  0  0  0  0  0  0
    1.9422   -0.3975    1.7265 N   0  0  0  0  0  0  0  0  0  0  0  0
    1.3780    0.7613    2.4520 C   0  0  2  0  0  0  0  0  0  0  0  0
    2.5853    1.8021    2.7437 C   0  0  0  0  0  0  0  0  0  0  0  0
    2.3972    3.4003    2.9571 C   0  0  2  0  0  0  0  0  0  0  0  0
    3.2262    4.0565    4.0579 C   0  0  0  0  0  0  0  0  0  0  0  0
    1.7961    4.2718    4.0626 N   0  0  0  0  0  0  0  0  0  0  0  0
    1.0764    3.7742    5.2815 C   0  0  2  0  0  0  0  0  0  0  0  0
    0.7828    2.4118    4.8637 C   0  0  2  0  0  0  0  0  0  0  0  0
   -0.2858    2.6347    3.7454 C   0  0  1  0  0  0  0  0  0  0  0  0
   -1.3287    1.6015    3.8660 C   0  0  2  0  0  0  0  0  0  0  0  0
   -1.1336    3.7461    4.1903 C   0  0  2  0  0  0  0  0  0  0  0  0
   -0.4358    4.2257    5.4474 C   0  0  1  0  0  0  0  0  0  0  0  0
   -3.3550    2.3731    2.9292 H   0  0  0  0  0  0  0  0  0  0  0  0
   -3.2947    3.7370    6.0196 H   0  0  0  0  0  0  0  0  0  0  0  0
   -2.9771    2.0558    6.3729 H   0  0  0  0  0  0  0  0  0  0  0  0
   -1.4232    3.9687    7.4340 H   0  0  0  0  0  0  0  0  0  0  0  0
    0.2164    2.3173    7.6833 H   0  0  0  0  0  0  0  0  0  0  0  0
   -1.2006    1.3641    7.4296 H   0  0  0  0  0  0  0  0  0  0  0  0
    1.0082    0.7401    6.2114 H   0  0  0  0  0  0  0  0  0  0  0  0
   -1.0867   -0.2429    5.0305 H   0  0  0  0  0  0  0  0  0  0  0  0
    0.7400   -2.0070    4.3950 H   0  0  0  0  0  0  0  0  0  0  0  0
    3.0706   -1.5902    3.0989 H   0  0  0  0  0  0  0  0  0  0  0  0
    1.9080   -2.5208    2.1430 H   0  0  0  0  0  0  0  0  0  0  0  0
    2.8066   -0.1849    1.2474 H   0  0  0  0  0  0  0  0  0  0  0  0
    0.6518    1.1802    1.7571 H   0  0  0  0  0  0  0  0  0  0  0  0
    3.2632    1.4135    3.5072 H   0  0  0  0  0  0  0  0  0  0  0  0
    3.2206    1.7476    1.8606 H   0  0  0  0  0  0  0  0  0  0  0  0
    2.3826    3.9181    2.0025 H   0  0  0  0  0  0  0  0  0  0  0  0
    3.6695    3.3991    4.8093 H   0  0  0  0  0  0  0  0  0  0  0  0
    3.8514    4.8887    3.7385 H   0  0  0  0  0  0  0  0  0  0  0  0
    1.6671    3.8536    6.2041 H   0  0  0  0  0  0  0  0  0  0  0  0
    1.7271    1.9341    4.7733 H   0  0  0  0  0  0  0  0  0  0  0  0
   -0.0189    2.8820    2.7251 H   0  0  0  0  0  0  0  0  0  0  0  0
   -1.6749    1.2800    2.8814 H   0  0  0  0  0  0  0  0  0  0  0  0
   -1.3386    4.4624    3.4013 H   0  0  0  0  0  0  0  0  0  0  0  0
   -0.5568    5.2993    5.6027 H   0  0  0  0  0  0  0  0  0  0  0  0
    1.2589   -0.6513    1.0310 H   0  0  0  0  0  0  0  0  0  0  0  0
  2  1  1  6
  1 23  1  0
  2 20  1  0
  2 21  1  0
  2  3  1  0
  3  4  1  0
  3 24  1  0
  3 25  1  0
  4 22  1  0
  4  5  1  0
  4 26  1  1
  5  6  1  0
  5 27  1  0
  5 28  1  0
  6 18  1  0
  6  7  1  0
  6 29  1  1
  7 20  1  0
  7  8  1  0
  7 30  1  1
  8 12  1  0
  8  9  2  0
  9 10  1  0
  9 31  1  0
 10 11  1  0
 10 32  1  0
 10 33  1  0
 11 12  1  0
 11 34  1  0
 11 47  1  0
 12 13  1  0
 12 35  1  6
 13 14  1  0
 13 36  1  0
 13 37  1  0
 14 16  1  0
 14 15  1  0
 14 38  1  6
 15 16  1  0
 15 39  1  0
 15 40  1  0
 16 17  1  0
 17 22  1  0
 17 18  1  0
 17 41  1  1
 18 19  1  0
 18 42  1  6
 19 20  1  0
 19 21  1  0
 19 43  1  6
 20 44  1  6
 21 22  1  0
 21 45  1  6
 22 46  1  1
M  CHG  1  11   1
M  END
>  <i_m_ct_stereo_status>  (369) 
1

>  <s_m_source_file>  (369) 
/var/tmp/pbs.5076255.sched01/tmpg_ssl3dq/162k0u29fl7.sdf

>  <i_m_source_file_index>  (369) 
17

>  <i_lp_mmshare_version>  (369) 
48012

>  <i_f3d_flags>  (369) 
2

>  <s_epik_input>  (369) 
W09IXVtDQF0xMltDQEBIXTNbQ0BASF00W0NASF01W0NAQEhdNltDQEhdKFtDQEhdKFtDQEBIXShbQ0gyXTEpW0NIMl01KVtDQEhdMltDQEBIXTM2KU43W0NASF0oW0NIMl03KVtDSDJdW0NAQEhdOEM0PVtDSF1bQ0gyXVtOSF04

>  <s_epik_cmdline>  (369) 
J2VwaWtfcHl0aG9uJywgJy1waHQnLCAnMi4wJywgJy1waCcsICc3LjAnLCAnLXRuJywgJzgnLCAnLW1hJywgJzIwMCcsICctaW1hZScsICc8aW5maWxlLm1hZT4nLCAnLW9tYWUnLCAnPG91dGZpbGUubWFlPic=

>  <r_epik_Ionization_Penalty>  (369) 
1.63832

>  <r_epik_Ionization_Penalty_Charging>  (369) 
0.00304578

>  <r_epik_Ionization_Penalty_Neutral>  (369) 
1.63527

>  <r_epik_State_Penalty>  (369) 
1.75454

>  <r_epik_Charging_Adjusted_Penalty>  (369) 
1.75758

>  <i_epik_Tot_Q>  (369) 
1

>  <i_epik_Tot_abs_Q>  (369) 
1

>  <s_lp_Force_Field>  (369) 
OPLS3e

>  <r_lp_Energy>  (369) 
159.568

>  <b_lp_Chiralities_Consistent>  (369) 
0

>  <s_lp_Variant>  (369) 
98:0-2

>  <s_i_glide_gridfile>  (369) 
pfpi4k_grid

>  <i_i_glide_lignum>  (369) 
17

>  <i_i_glide_rotatable_bonds>  (369) 
1

>  <r_i_docking_score>  (369) 
-4.00274

>  <r_i_glide_ligand_efficiency>  (369) 
-0.181943

>  <r_i_glide_ligand_efficiency_sa>  (369) 
-0.509811

>  <r_i_glide_ligand_efficiency_ln>  (369) 
-0.978415

>  <r_i_glide_gscore>  (369) 
-4.00274

>  <r_i_glide_lipo>  (369) 
-0.0913513

>  <r_i_glide_hbond>  (369) 
-0.30008

>  <r_i_glide_metal>  (369) 
-0

>  <r_i_glide_rewards>  (369) 
-1.38126

>  <r_i_glide_evdw>  (369) 
-21.9572

>  <r_i_glide_ecoul>  (369) 
-6.98775

>  <r_i_glide_erotb>  (369) 
0

>  <r_i_glide_esite>  (369) 
-0.0840234

>  <r_i_glide_emodel>  (369) 
-36.112

>  <r_i_glide_energy>  (369) 
-28.9449

>  <r_i_glide_einternal>  (369) 
0.858266

>  <r_i_glide_intrahb_reward>  (369) 
-0

>  <i_i_glide_confnum>  (369) 
1

>  <i_i_glide_posenum>  (369) 
28

>  <r_i_glide_eff_state_penalty>  (369) 
0

>  <ligand_id>  (369) 
98

>  <original_smiles>  (369) 
OC12CC3CC4C5C6=CCNC6CC6CN6C6C4C(C51)C2C36

>  <smiles>  (369) 
[H]OC12C([H])([H])C3([H])C([H])([H])C4([H])C5([H])C6=C([H])C([H])([H])[N+]([H])([H])C6([H])C([H])([H])C6([H])N(C6([H])[H])C6([H])C4([H])C([H])(C51[H])C2([H])C63[H]

$$$$
98:1:2
     RDKit          3D

 47 54  0  0  1  0  0  0  0  0999 V2000
   -1.7555    4.4565    2.9346 O   0  0  0  0  0  0  0  0  0  0  0  0
   -1.2373    3.4943    3.8305 C   0  0  1  0  0  0  0  0  0  0  0  0
   -2.2906    3.2200    4.8668 C   0  0  0  0  0  0  0  0  0  0  0  0
   -1.5122    2.7717    6.1261 C   0  0  1  0  0  0  0  0  0  0  0  0
   -1.3630    1.2346    5.9876 C   0  0  0  0  0  0  0  0  0  0  0  0
   -0.1968    0.7959    5.0743 C   0  0  1  0  0  0  0  0  0  0  0  0
   -0.2379    0.8730    3.5188 C   0  0  2  0  0  0  0  0  0  0  0  0
    1.1423    0.3031    2.9540 C   0  0  0  0  0  0  0  0  0  0  0  0
    1.2831   -0.9404    2.4803 C   0  0  0  0  0  0  0  0  0  0  0  0
    2.6611   -1.2206    1.9714 C   0  0  0  0  0  0  0  0  0  0  0  0
    3.2212    0.1350    1.8748 N   0  0  0  0  0  0  0  0  0  0  0  0
    2.5298    1.0549    2.8102 C   0  0  2  0  0  0  0  0  0  0  0  0
    3.5041    1.3058    4.0868 C   0  0  0  0  0  0  0  0  0  0  0  0
    3.4703    2.6219    5.0347 C   0  0  2  0  0  0  0  0  0  0  0  0
    3.6285    2.3927    6.5324 C   0  0  0  0  0  0  0  0  0  0  0  0
    2.4995    3.1735    6.0724 N   0  0  0  0  0  0  0  0  0  0  0  0
    1.1326    2.6109    6.3840 C   0  0  2  0  0  0  0  0  0  0  0  0
    0.9241    1.7745    5.2129 C   0  0  2  0  0  0  0  0  0  0  0  0
    0.7283    2.8281    4.0822 C   0  0  1  0  0  0  0  0  0  0  0  0
   -0.3413    2.3615    3.1748 C   0  0  2  0  0  0  0  0  0  0  0  0
   -0.0495    3.9378    4.6640 C   0  0  2  0  0  0  0  0  0  0  0  0
   -0.1278    3.5528    6.1242 C   0  0  1  0  0  0  0  0  0  0  0  0
   -1.1230    4.5110    2.2159 H   0  0  0  0  0  0  0  0  0  0  0  0
   -2.8132    4.1387    5.1263 H   0  0  0  0  0  0  0  0  0  0  0  0
   -3.0460    2.5255    4.5128 H   0  0  0  0  0  0  0  0  0  0  0  0
   -2.0952    2.9955    7.0226 H   0  0  0  0  0  0  0  0  0  0  0  0
   -1.1519    0.8567    6.9878 H   0  0  0  0  0  0  0  0  0  0  0  0
   -2.2952    0.7542    5.6881 H   0  0  0  0  0  0  0  0  0  0  0  0
    0.0826   -0.2192    5.3755 H   0  0  0  0  0  0  0  0  0  0  0  0
   -1.0810    0.3050    3.1217 H   0  0  0  0  0  0  0  0  0  0  0  0
    0.5118   -1.6983    2.4696 H   0  0  0  0  0  0  0  0  0  0  0  0
    3.2052   -1.8315    2.6952 H   0  0  0  0  0  0  0  0  0  0  0  0
    2.6466   -1.7403    1.0089 H   0  0  0  0  0  0  0  0  0  0  0  0
    4.2182    0.1386    1.9719 H   0  0  0  0  0  0  0  0  0  0  0  0
    2.4153    1.9651    2.2279 H   0  0  0  0  0  0  0  0  0  0  0  0
    3.5575    0.4110    4.7115 H   0  0  0  0  0  0  0  0  0  0  0  0
    4.5162    1.3368    3.6821 H   0  0  0  0  0  0  0  0  0  0  0  0
    4.0825    3.4167    4.6045 H   0  0  0  0  0  0  0  0  0  0  0  0
    3.4489    1.3837    6.9156 H   0  0  0  0  0  0  0  0  0  0  0  0
    4.4491    2.9253    7.0215 H   0  0  0  0  0  0  0  0  0  0  0  0
    1.0919    2.0822    7.3398 H   0  0  0  0  0  0  0  0  0  0  0  0
    1.6661    1.0151    5.2796 H   0  0  0  0  0  0  0  0  0  0  0  0
    1.5729    3.2906    3.5775 H   0  0  0  0  0  0  0  0  0  0  0  0
   -0.1243    2.5800    2.1274 H   0  0  0  0  0  0  0  0  0  0  0  0
    0.3401    4.9264    4.4186 H   0  0  0  0  0  0  0  0  0  0  0  0
   -0.1576    4.4261    6.7806 H   0  0  0  0  0  0  0  0  0  0  0  0
    2.9608    0.4370    0.9555 H   0  0  0  0  0  0  0  0  0  0  0  0
  2  1  1  6
  1 23  1  0
  2 20  1  0
  2 21  1  0
  2  3  1  0
  3  4  1  0
  3 24  1  0
  3 25  1  0
  4 22  1  0
  4  5  1  0
  4 26  1  1
  5  6  1  0
  5 27  1  0
  5 28  1  0
  6 18  1  0
  6  7  1  0
  6 29  1  6
  7 20  1  0
  7  8  1  0
  7 30  1  6
  8 12  1  0
  8  9  2  0
  9 10  1  0
  9 31  1  0
 10 11  1  0
 10 32  1  0
 10 33  1  0
 11 12  1  0
 11 34  1  0
 11 47  1  0
 12 13  1  0
 12 35  1  6
 13 14  1  0
 13 36  1  0
 13 37  1  0
 14 16  1  0
 14 15  1  0
 14 38  1  6
 15 16  1  0
 15 39  1  0
 15 40  1  0
 16 17  1  0
 17 22  1  0
 17 18  1  0
 17 41  1  1
 18 19  1  0
 18 42  1  6
 19 20  1  0
 19 21  1  0
 19 43  1  6
 20 44  1  6
 21 22  1  0
 21 45  1  1
 22 46  1  1
M  CHG  1  11   1
M  END
>  <i_m_ct_stereo_status>  (370) 
1

>  <s_m_source_file>  (370) 
/var/tmp/pbs.5076255.sched01/tmpg_ssl3dq/162k0u29fl7.sdf

>  <i_m_source_file_index>  (370) 
17

>  <i_lp_mmshare_version>  (370) 
48012

>  <i_f3d_flags>  (370) 
2

>  <s_epik_input>  (370) 
W09IXVtDQF0xMltDQEBIXTNbQ0BASF00W0NASF01W0NAQEhdNltDQEhdKFtDQEhdKFtDQEBIXShbQ0gyXTEpW0NIMl01KVtDQEhdMltDQEBIXTM2KU43W0NASF0oW0NIMl03KVtDSDJdW0NAQEhdOEM0PVtDSF1bQ0gyXVtOSF04

>  <s_epik_cmdline>  (370) 
J2VwaWtfcHl0aG9uJywgJy1waHQnLCAnMi4wJywgJy1waCcsICc3LjAnLCAnLXRuJywgJzgnLCAnLW1hJywgJzIwMCcsICctaW1hZScsICc8aW5maWxlLm1hZT4nLCAnLW9tYWUnLCAnPG91dGZpbGUubWFlPic=

>  <r_epik_Ionization_Penalty>  (370) 
1.63832

>  <r_epik_Ionization_Penalty_Charging>  (370) 
0.00304578

>  <r_epik_Ionization_Penalty_Neutral>  (370) 
1.63527

>  <r_epik_State_Penalty>  (370) 
1.75454

>  <r_epik_Charging_Adjusted_Penalty>  (370) 
1.75758

>  <i_epik_Tot_Q>  (370) 
1

>  <i_epik_Tot_abs_Q>  (370) 
1

>  <s_lp_Force_Field>  (370) 
OPLS3e

>  <r_lp_Energy>  (370) 
159.568

>  <b_lp_Chiralities_Consistent>  (370) 
0

>  <s_lp_Variant>  (370) 
98:0-2

>  <s_i_glide_gridfile>  (370) 
pfpi4k_grid

>  <i_i_glide_lignum>  (370) 
17

>  <i_i_glide_rotatable_bonds>  (370) 
1

>  <r_i_docking_score>  (370) 
-3.7989

>  <r_i_glide_ligand_efficiency>  (370) 
-0.172677

>  <r_i_glide_ligand_efficiency_sa>  (370) 
-0.483848

>  <r_i_glide_ligand_efficiency_ln>  (370) 
-0.928589

>  <r_i_glide_gscore>  (370) 
-3.7989

>  <r_i_glide_lipo>  (370) 
-0.0381866

>  <r_i_glide_hbond>  (370) 
-0.249569

>  <r_i_glide_metal>  (370) 
-0

>  <r_i_glide_rewards>  (370) 
-1.38126

>  <r_i_glide_evdw>  (370) 
-18.7717

>  <r_i_glide_ecoul>  (370) 
-7.94195

>  <r_i_glide_erotb>  (370) 
0

>  <r_i_glide_esite>  (370) 
0

>  <r_i_glide_emodel>  (370) 
-33.9613

>  <r_i_glide_energy>  (370) 
-26.7137

>  <r_i_glide_einternal>  (370) 
0.186166

>  <r_i_glide_intrahb_reward>  (370) 
-0

>  <i_i_glide_confnum>  (370) 
1

>  <i_i_glide_posenum>  (370) 
34

>  <r_i_glide_eff_state_penalty>  (370) 
0

>  <ligand_id>  (370) 
98

>  <original_smiles>  (370) 
OC12CC3CC4C5C6=CCNC6CC6CN6C6C4C(C51)C2C36

>  <smiles>  (370) 
[H]OC12C([H])([H])C3([H])C([H])([H])C4([H])C5([H])C6=C([H])C([H])([H])[N+]([H])([H])C6([H])C([H])([H])C6([H])N(C6([H])[H])C6([H])C4([H])C([H])(C51[H])C2([H])C63[H]

$$$$
98:2:0
     RDKit          3D

 47 54  0  0  1  0  0  0  0  0999 V2000
   -3.4562    2.9426    3.5320 O   0  0  0  0  0  0  0  0  0  0  0  0
   -2.2816    2.8191    4.2940 C   0  0  1  0  0  0  0  0  0  0  0  0
   -2.5802    3.0654    5.7530 C   0  0  0  0  0  0  0  0  0  0  0  0
   -1.2570    3.5953    6.3463 C   0  0  1  0  0  0  0  0  0  0  0  0
   -0.5057    2.3198    6.8104 C   0  0  0  0  0  0  0  0  0  0  0  0
    0.2445    1.5828    5.6791 C   0  0  1  0  0  0  0  0  0  0  0  0
   -0.4538    0.7171    4.5847 C   0  0  2  0  0  0  0  0  0  0  0  0
    0.6593    0.1134    3.6281 C   0  0  0  0  0  0  0  0  0  0  0  0
    1.1191   -1.1254    3.7164 C   0  0  0  0  0  0  0  0  0  0  0  0
    2.1418   -1.4051    2.6582 C   0  0  0  0  0  0  0  0  0  0  0  0
    2.0210   -0.3000    1.7078 N   0  0  0  0  0  0  0  0  0  0  0  0
    1.3755    0.8210    2.4039 C   0  0  2  0  0  0  0  0  0  0  0  0
    2.5575    1.9116    2.6033 C   0  0  0  0  0  0  0  0  0  0  0  0
    2.3450    3.5111    2.6674 C   0  0  2  0  0  0  0  0  0  0  0  0
    3.2011    4.2641    3.6649 C   0  0  0  0  0  0  0  0  0  0  0  0
    1.7631    4.4395    3.7537 N   0  0  2  0  0  0  0  0  0  0  0  0
    1.0313    3.9936    5.0189 C   0  0  2  0  0  0  0  0  0  0  0  0
    0.7597    2.6012    4.7139 C   0  0  2  0  0  0  0  0  0  0  0  0
   -0.3184    2.7406    3.5900 C   0  0  1  0  0  0  0  0  0  0  0  0
   -1.3285    1.6848    3.7774 C   0  0  2  0  0  0  0  0  0  0  0  0
   -1.2073    3.8463    3.9829 C   0  0  2  0  0  0  0  0  0  0  0  0
   -0.4995    4.4055    5.2003 C   0  0  1  0  0  0  0  0  0  0  0  0
   -3.6823    2.0619    3.2545 H   0  0  0  0  0  0  0  0  0  0  0  0
   -3.3422    3.8345    5.8540 H   0  0  0  0  0  0  0  0  0  0  0  0
   -2.9676    2.1860    6.2643 H   0  0  0  0  0  0  0  0  0  0  0  0
   -1.4617    4.2249    7.2149 H   0  0  0  0  0  0  0  0  0  0  0  0
    0.2338    2.6417    7.5461 H   0  0  0  0  0  0  0  0  0  0  0  0
   -1.1615    1.6351    7.3503 H   0  0  0  0  0  0  0  0  0  0  0  0
    1.0472    1.0060    6.1464 H   0  0  0  0  0  0  0  0  0  0  0  0
   -1.0382   -0.0848    5.0417 H   0  0  0  0  0  0  0  0  0  0  0  0
    0.8387   -1.8574    4.4618 H   0  0  0  0  0  0  0  0  0  0  0  0
    3.1424   -1.3956    3.1002 H   0  0  0  0  0  0  0  0  0  0  0  0
    1.9881   -2.3683    2.1744 H   0  0  0  0  0  0  0  0  0  0  0  0
    1.4011   -0.5983    0.9565 H   0  0  0  0  0  0  0  0  0  0  0  0
    0.6358    1.1853    1.6981 H   0  0  0  0  0  0  0  0  0  0  0  0
    3.2470    1.5934    3.3895 H   0  0  0  0  0  0  0  0  0  0  0  0
    3.1868    1.7699    1.7213 H   0  0  0  0  0  0  0  0  0  0  0  0
    2.2119    3.9919    1.7031 H   0  0  0  0  0  0  0  0  0  0  0  0
    3.6173    3.7279    4.5211 H   0  0  0  0  0  0  0  0  0  0  0  0
    3.7006    5.1680    3.3223 H   0  0  0  0  0  0  0  0  0  0  0  0
    1.6190    4.1443    5.9237 H   0  0  0  0  0  0  0  0  0  0  0  0
    1.7236    2.1527    4.6379 H   0  0  0  0  0  0  0  0  0  0  0  0
   -0.0515    2.9179    2.5505 H   0  0  0  0  0  0  0  0  0  0  0  0
   -1.6731    1.2924    2.8196 H   0  0  0  0  0  0  0  0  0  0  0  0
   -1.4389    4.5266    3.1639 H   0  0  0  0  0  0  0  0  0  0  0  0
   -0.6414    5.4837    5.3065 H   0  0  0  0  0  0  0  0  0  0  0  0
    1.5026    5.3511    3.3957 H   0  0  0  0  0  0  0  0  0  0  0  0
  2  1  1  6
  1 23  1  0
  2 20  1  0
  2 21  1  0
  2  3  1  0
  3  4  1  0
  3 24  1  0
  3 25  1  0
  4 22  1  0
  4  5  1  0
  4 26  1  1
  5  6  1  0
  5 27  1  0
  5 28  1  0
  6 18  1  0
  6  7  1  0
  6 29  1  1
  7 20  1  0
  7  8  1  0
  7 30  1  1
  8 12  1  0
  8  9  2  0
  9 10  1  0
  9 31  1  0
 10 11  1  0
 10 32  1  0
 10 33  1  0
 11 12  1  0
 11 34  1  0
 12 13  1  0
 12 35  1  6
 13 14  1  0
 13 36  1  0
 13 37  1  0
 14 16  1  0
 14 15  1  0
 14 38  1  6
 15 16  1  0
 15 39  1  0
 15 40  1  0
 16 17  1  0
 16 47  1  6
 17 22  1  0
 17 18  1  0
 17 41  1  1
 18 19  1  0
 18 42  1  6
 19 20  1  0
 19 21  1  0
 19 43  1  6
 20 44  1  6
 21 22  1  0
 21 45  1  6
 22 46  1  1
M  CHG  1  16   1
M  END
>  <i_m_ct_stereo_status>  (371) 
1

>  <s_m_source_file>  (371) 
/var/tmp/pbs.5076255.sched01/tmpg_ssl3dq/162k0u29fl7.sdf

>  <i_m_source_file_index>  (371) 
18

>  <i_lp_mmshare_version>  (371) 
48012

>  <i_f3d_flags>  (371) 
2

>  <s_epik_input>  (371) 
W09IXVtDQF0xMltDQEBIXTNbQ0BASF00W0NASF01W0NAQEhdNltDQEhdKFtDQEhdKFtDQEBIXShbQ0gyXTEpW0NIMl01KVtDQEhdMltDQEBIXTM2KU43W0NASF0oW0NIMl03KVtDSDJdW0NAQEhdOEM0PVtDSF1bQ0gyXVtOSF04

>  <s_epik_cmdline>  (371) 
J2VwaWtfcHl0aG9uJywgJy1waHQnLCAnMi4wJywgJy1waCcsICc3LjAnLCAnLXRuJywgJzgnLCAnLW1hJywgJzIwMCcsICctaW1hZScsICc8aW5maWxlLm1hZT4nLCAnLW9tYWUnLCAnPG91dGZpbGUubWFlPic=

>  <r_epik_Ionization_Penalty>  (371) 
1.91446

>  <r_epik_Ionization_Penalty_Charging>  (371) 
0.0019595

>  <r_epik_Ionization_Penalty_Neutral>  (371) 
1.9125

>  <r_epik_State_Penalty>  (371) 
2.06613

>  <r_epik_Charging_Adjusted_Penalty>  (371) 
2.06809

>  <i_epik_Tot_Q>  (371) 
1

>  <i_epik_Tot_abs_Q>  (371) 
1

>  <s_lp_Force_Field>  (371) 
OPLS3e

>  <r_lp_Energy>  (371) 
158.433

>  <b_lp_Chiralities_Consistent>  (371) 
0

>  <s_lp_Variant>  (371) 
98:0-3

>  <s_i_glide_gridfile>  (371) 
pfpi4k_grid

>  <i_i_glide_lignum>  (371) 
18

>  <i_i_glide_rotatable_bonds>  (371) 
1

>  <r_i_docking_score>  (371) 
-4.09978

>  <r_i_glide_ligand_efficiency>  (371) 
-0.186354

>  <r_i_glide_ligand_efficiency_sa>  (371) 
-0.52217

>  <r_i_glide_ligand_efficiency_ln>  (371) 
-1.00214

>  <r_i_glide_gscore>  (371) 
-4.09978

>  <r_i_glide_lipo>  (371) 
-0.0814642

>  <r_i_glide_hbond>  (371) 
-0.456

>  <r_i_glide_metal>  (371) 
-0

>  <r_i_glide_rewards>  (371) 
-1.38126

>  <r_i_glide_evdw>  (371) 
-21.1076

>  <r_i_glide_ecoul>  (371) 
-7.1762

>  <r_i_glide_erotb>  (371) 
0

>  <r_i_glide_esite>  (371) 
-0.0492422

>  <r_i_glide_emodel>  (371) 
-35.5589

>  <r_i_glide_energy>  (371) 
-28.2838

>  <r_i_glide_einternal>  (371) 
1.47972

>  <r_i_glide_intrahb_reward>  (371) 
-0

>  <i_i_glide_confnum>  (371) 
1

>  <i_i_glide_posenum>  (371) 
15

>  <r_i_glide_eff_state_penalty>  (371) 
0

>  <ligand_id>  (371) 
98

>  <original_smiles>  (371) 
OC12CC3CC4C5C6=CCNC6CC6CN6C6C4C(C51)C2C36

>  <smiles>  (371) 
[H]OC12C([H])([H])C3([H])C([H])([H])C4([H])C5([H])C6=C([H])C([H])([H])N([H])C6([H])C([H])([H])C6([H])C([H])([H])[N+]6([H])C6([H])C4([H])C([H])(C51[H])C2([H])C36[H]

$$$$
98:2:1
     RDKit          3D

 47 54  0  0  1  0  0  0  0  0999 V2000
    2.7421   -3.4528   -3.0260 O   0  0  0  0  0  0  0  0  0  0  0  0
    3.4568   -3.0697   -1.8709 C   0  0  1  0  0  0  0  0  0  0  0  0
    3.9081   -1.6460   -2.0567 C   0  0  0  0  0  0  0  0  0  0  0  0
    5.1875   -1.5245   -1.1956 C   0  0  1  0  0  0  0  0  0  0  0  0
    4.6884   -1.0838    0.2041 C   0  0  0  0  0  0  0  0  0  0  0  0
    4.1761   -2.2463    1.0836 C   0  0  1  0  0  0  0  0  0  0  0  0
    2.8051   -2.9547    0.8677 C   0  0  2  0  0  0  0  0  0  0  0  0
    2.6352   -4.0693    1.9922 C   0  0  0  0  0  0  0  0  0  0  0  0
    1.9028   -3.9097    3.0889 C   0  0  0  0  0  0  0  0  0  0  0  0
    1.9049   -5.1477    3.9325 C   0  0  0  0  0  0  0  0  0  0  0  0
    2.4521   -6.1897    3.0640 N   0  0  0  0  0  0  0  0  0  0  0  0
    3.2277   -5.5377    1.9991 C   0  0  2  0  0  0  0  0  0  0  0  0
    4.7767   -5.8587    2.3559 C   0  0  0  0  0  0  0  0  0  0  0  0
    5.9575   -5.9916    1.2743 C   0  0  2  0  0  0  0  0  0  0  0  0
    7.2984   -5.4177    1.6889 C   0  0  0  0  0  0  0  0  0  0  0  0
    6.7190   -4.9410    0.4459 N   0  0  2  0  0  0  0  0  0  0  0  0
    6.3341   -3.4670    0.2622 C   0  0  2  0  0  0  0  0  0  0  0  0
    4.9863   -3.4671    0.7899 C   0  0  2  0  0  0  0  0  0  0  0  0
    4.2158   -4.2586   -0.3195 C   0  0  1  0  0  0  0  0  0  0  0  0
    2.8896   -3.6340   -0.5093 C   0  0  2  0  0  0  0  0  0  0  0  0
    4.7578   -3.8174   -1.6185 C   0  0  2  0  0  0  0  0  0  0  0  0
    5.9185   -2.9467   -1.1958 C   0  0  1  0  0  0  0  0  0  0  0  0
    2.6282   -4.4041   -2.9740 H   0  0  0  0  0  0  0  0  0  0  0  0
    4.1733   -1.4722   -3.1022 H   0  0  0  0  0  0  0  0  0  0  0  0
    3.1223   -0.9274   -1.8197 H   0  0  0  0  0  0  0  0  0  0  0  0
    5.8193   -0.7403   -1.6085 H   0  0  0  0  0  0  0  0  0  0  0  0
    5.5402   -0.6345    0.7155 H   0  0  0  0  0  0  0  0  0  0  0  0
    3.9437   -0.2888    0.1412 H   0  0  0  0  0  0  0  0  0  0  0  0
    4.2598   -1.9257    2.1267 H   0  0  0  0  0  0  0  0  0  0  0  0
    1.9871   -2.2331    0.9205 H   0  0  0  0  0  0  0  0  0  0  0  0
    1.3746   -3.0126    3.3772 H   0  0  0  0  0  0  0  0  0  0  0  0
    2.5627   -5.0095    4.7943 H   0  0  0  0  0  0  0  0  0  0  0  0
    0.9111   -5.4115    4.2922 H   0  0  0  0  0  0  0  0  0  0  0  0
    1.6630   -6.6341    2.6160 H   0  0  0  0  0  0  0  0  0  0  0  0
    2.9266   -6.0603    1.0973 H   0  0  0  0  0  0  0  0  0  0  0  0
    5.1025   -5.2482    3.2018 H   0  0  0  0  0  0  0  0  0  0  0  0
    4.7642   -6.8540    2.8108 H   0  0  0  0  0  0  0  0  0  0  0  0
    5.9808   -6.9378    0.7400 H   0  0  0  0  0  0  0  0  0  0  0  0
    7.3242   -4.6590    2.4593 H   0  0  0  0  0  0  0  0  0  0  0  0
    8.1926   -6.0198    1.5233 H   0  0  0  0  0  0  0  0  0  0  0  0
    7.0188   -2.7866    0.7699 H   0  0  0  0  0  0  0  0  0  0  0  0
    5.1007   -3.7370    1.8137 H   0  0  0  0  0  0  0  0  0  0  0  0
    4.1999   -5.3444   -0.3441 H   0  0  0  0  0  0  0  0  0  0  0  0
    2.1160   -4.3808   -0.6916 H   0  0  0  0  0  0  0  0  0  0  0  0
    4.9594   -4.6309   -2.3166 H   0  0  0  0  0  0  0  0  0  0  0  0
    6.7306   -2.9769   -1.9258 H   0  0  0  0  0  0  0  0  0  0  0  0
    7.2285   -5.3421   -0.3271 H   0  0  0  0  0  0  0  0  0  0  0  0
  2  1  1  6
  1 23  1  0
  2 20  1  0
  2 21  1  0
  2  3  1  0
  3  4  1  0
  3 24  1  0
  3 25  1  0
  4 22  1  0
  4  5  1  0
  4 26  1  6
  5  6  1  0
  5 27  1  0
  5 28  1  0
  6 18  1  0
  6  7  1  0
  6 29  1  1
  7 20  1  0
  7  8  1  0
  7 30  1  6
  8 12  1  0
  8  9  2  0
  9 10  1  0
  9 31  1  0
 10 11  1  0
 10 32  1  0
 10 33  1  0
 11 12  1  0
 11 34  1  0
 12 13  1  0
 12 35  1  6
 13 14  1  0
 13 36  1  0
 13 37  1  0
 14 16  1  0
 14 15  1  0
 14 38  1  6
 15 16  1  0
 15 39  1  0
 15 40  1  0
 16 17  1  0
 16 47  1  6
 17 22  1  0
 17 18  1  0
 17 41  1  1
 18 19  1  0
 18 42  1  1
 19 20  1  0
 19 21  1  0
 19 43  1  1
 20 44  1  6
 21 22  1  0
 21 45  1  6
 22 46  1  6
M  CHG  1  16   1
M  END
>  <i_m_ct_stereo_status>  (372) 
1

>  <s_m_source_file>  (372) 
/var/tmp/pbs.5076255.sched01/tmpg_ssl3dq/162k0u29fl7.sdf

>  <i_m_source_file_index>  (372) 
18

>  <i_lp_mmshare_version>  (372) 
48012

>  <i_f3d_flags>  (372) 
2

>  <s_epik_input>  (372) 
W09IXVtDQF0xMltDQEBIXTNbQ0BASF00W0NASF01W0NAQEhdNltDQEhdKFtDQEhdKFtDQEBIXShbQ0gyXTEpW0NIMl01KVtDQEhdMltDQEBIXTM2KU43W0NASF0oW0NIMl03KVtDSDJdW0NAQEhdOEM0PVtDSF1bQ0gyXVtOSF04

>  <s_epik_cmdline>  (372) 
J2VwaWtfcHl0aG9uJywgJy1waHQnLCAnMi4wJywgJy1waCcsICc3LjAnLCAnLXRuJywgJzgnLCAnLW1hJywgJzIwMCcsICctaW1hZScsICc8aW5maWxlLm1hZT4nLCAnLW9tYWUnLCAnPG91dGZpbGUubWFlPic=

>  <r_epik_Ionization_Penalty>  (372) 
1.91446

>  <r_epik_Ionization_Penalty_Charging>  (372) 
0.0019595

>  <r_epik_Ionization_Penalty_Neutral>  (372) 
1.9125

>  <r_epik_State_Penalty>  (372) 
2.06613

>  <r_epik_Charging_Adjusted_Penalty>  (372) 
2.06809

>  <i_epik_Tot_Q>  (372) 
1

>  <i_epik_Tot_abs_Q>  (372) 
1

>  <s_lp_Force_Field>  (372) 
OPLS3e

>  <r_lp_Energy>  (372) 
158.433

>  <b_lp_Chiralities_Consistent>  (372) 
0

>  <s_lp_Variant>  (372) 
98:0-3

>  <s_i_glide_gridfile>  (372) 
pfpi4k_grid

>  <i_i_glide_lignum>  (372) 
18

>  <i_i_glide_rotatable_bonds>  (372) 
1

>  <r_i_docking_score>  (372) 
-3.86289

>  <r_i_glide_ligand_efficiency>  (372) 
-0.175586

>  <r_i_glide_ligand_efficiency_sa>  (372) 
-0.491998

>  <r_i_glide_ligand_efficiency_ln>  (372) 
-0.94423

>  <r_i_glide_gscore>  (372) 
-3.86289

>  <r_i_glide_lipo>  (372) 
-0.3433

>  <r_i_glide_hbond>  (372) 
-0.32

>  <r_i_glide_metal>  (372) 
-0

>  <r_i_glide_rewards>  (372) 
-1.38126

>  <r_i_glide_evdw>  (372) 
-23.6486

>  <r_i_glide_ecoul>  (372) 
-4.23927

>  <r_i_glide_erotb>  (372) 
0

>  <r_i_glide_esite>  (372) 
0

>  <r_i_glide_emodel>  (372) 
-35.4064

>  <r_i_glide_energy>  (372) 
-27.8879

>  <r_i_glide_einternal>  (372) 
0.0229618

>  <r_i_glide_intrahb_reward>  (372) 
-0

>  <i_i_glide_confnum>  (372) 
2

>  <i_i_glide_posenum>  (372) 
28

>  <r_i_glide_eff_state_penalty>  (372) 
0

>  <ligand_id>  (372) 
98

>  <original_smiles>  (372) 
OC12CC3CC4C5C6=CCNC6CC6CN6C6C4C(C51)C2C36

>  <smiles>  (372) 
[H]OC12C([H])([H])C3([H])C([H])([H])C4([H])C5([H])C6=C([H])C([H])([H])N([H])C6([H])C([H])([H])C6([H])C([H])([H])[N+]6([H])C6([H])C4([H])C([H])(C51[H])C2([H])C36[H]

$$$$
98:2:2
     RDKit          3D

 47 54  0  0  1  0  0  0  0  0999 V2000
   -1.5204    4.4455    2.9010 O   0  0  0  0  0  0  0  0  0  0  0  0
   -1.0525    3.4775    3.8224 C   0  0  1  0  0  0  0  0  0  0  0  0
   -2.1364    3.2182    4.8402 C   0  0  0  0  0  0  0  0  0  0  0  0
   -1.3961    2.7435    6.1136 C   0  0  1  0  0  0  0  0  0  0  0  0
   -1.2856    1.2028    5.9702 C   0  0  0  0  0  0  0  0  0  0  0  0
   -0.1136    0.7368    5.0797 C   0  0  1  0  0  0  0  0  0  0  0  0
   -0.1170    0.8370    3.5257 C   0  0  2  0  0  0  0  0  0  0  0  0
    1.2538    0.2291    2.9816 C   0  0  0  0  0  0  0  0  0  0  0  0
    1.3793   -0.9912    2.4873 C   0  0  0  0  0  0  0  0  0  0  0  0
    2.7765   -1.2647    2.0264 C   0  0  0  0  0  0  0  0  0  0  0  0
    3.4185    0.0480    1.9976 N   0  0  0  0  0  0  0  0  0  0  0  0
    2.6621    0.9440    2.8866 C   0  0  2  0  0  0  0  0  0  0  0  0
    3.6232    1.1600    4.1756 C   0  0  0  0  0  0  0  0  0  0  0  0
    3.6473    2.4817    5.0958 C   0  0  2  0  0  0  0  0  0  0  0  0
    3.8233    2.2419    6.5814 C   0  0  0  0  0  0  0  0  0  0  0  0
    2.6698    3.0221    6.1574 N   0  0  2  0  0  0  0  0  0  0  0  0
    1.2521    2.5121    6.4268 C   0  0  2  0  0  0  0  0  0  0  0  0
    1.0271    1.6841    5.2584 C   0  0  2  0  0  0  0  0  0  0  0  0
    0.8955    2.7662    4.1302 C   0  0  1  0  0  0  0  0  0  0  0  0
   -0.1641    2.3324    3.1938 C   0  0  2  0  0  0  0  0  0  0  0  0
    0.1263    3.8904    4.6955 C   0  0  2  0  0  0  0  0  0  0  0  0
    0.0142    3.4867    6.1541 C   0  0  1  0  0  0  0  0  0  0  0  0
   -0.8704    4.4951    2.1926 H   0  0  0  0  0  0  0  0  0  0  0  0
   -2.6504    4.1471    5.0809 H   0  0  0  0  0  0  0  0  0  0  0  0
   -2.8947    2.5278    4.4682 H   0  0  0  0  0  0  0  0  0  0  0  0
   -1.9973    2.9744    6.9954 H   0  0  0  0  0  0  0  0  0  0  0  0
   -1.1137    0.8063    6.9722 H   0  0  0  0  0  0  0  0  0  0  0  0
   -2.2202    0.7515    5.6363 H   0  0  0  0  0  0  0  0  0  0  0  0
    0.1352   -0.2860    5.3768 H   0  0  0  0  0  0  0  0  0  0  0  0
   -0.9650    0.2977    3.1001 H   0  0  0  0  0  0  0  0  0  0  0  0
    0.6054   -1.7391    2.4219 H   0  0  0  0  0  0  0  0  0  0  0  0
    3.2865   -1.9126    2.7432 H   0  0  0  0  0  0  0  0  0  0  0  0
    2.8016   -1.7365    1.0456 H   0  0  0  0  0  0  0  0  0  0  0  0
    3.2558    0.3928    1.0613 H   0  0  0  0  0  0  0  0  0  0  0  0
    2.5725    1.8608    2.3149 H   0  0  0  0  0  0  0  0  0  0  0  0
    3.6267    0.2619    4.7980 H   0  0  0  0  0  0  0  0  0  0  0  0
    4.6409    1.1351    3.7764 H   0  0  0  0  0  0  0  0  0  0  0  0
    4.1800    3.3259    4.6656 H   0  0  0  0  0  0  0  0  0  0  0  0
    3.5370    1.2798    7.0110 H   0  0  0  0  0  0  0  0  0  0  0  0
    4.5607    2.8455    7.1101 H   0  0  0  0  0  0  0  0  0  0  0  0
    1.1734    1.9812    7.3768 H   0  0  0  0  0  0  0  0  0  0  0  0
    1.7571    0.9105    5.3337 H   0  0  0  0  0  0  0  0  0  0  0  0
    1.7686    3.1950    3.6464 H   0  0  0  0  0  0  0  0  0  0  0  0
    0.0932    2.5410    2.1575 H   0  0  0  0  0  0  0  0  0  0  0  0
    0.5475    4.8719    4.4743 H   0  0  0  0  0  0  0  0  0  0  0  0
   -0.0114    4.3520    6.8187 H   0  0  0  0  0  0  0  0  0  0  0  0
    2.8205    4.0002    6.3757 H   0  0  0  0  0  0  0  0  0  0  0  0
  2  1  1  6
  1 23  1  0
  2 20  1  0
  2 21  1  0
  2  3  1  0
  3  4  1  0
  3 24  1  0
  3 25  1  0
  4 22  1  0
  4  5  1  0
  4 26  1  1
  5  6  1  0
  5 27  1  0
  5 28  1  0
  6 18  1  0
  6  7  1  0
  6 29  1  6
  7 20  1  0
  7  8  1  0
  7 30  1  6
  8 12  1  0
  8  9  2  0
  9 10  1  0
  9 31  1  0
 10 11  1  0
 10 32  1  0
 10 33  1  0
 11 12  1  0
 11 34  1  0
 12 13  1  0
 12 35  1  6
 13 14  1  0
 13 36  1  0
 13 37  1  0
 14 16  1  0
 14 15  1  0
 14 38  1  6
 15 16  1  0
 15 39  1  0
 15 40  1  0
 16 17  1  0
 16 47  1  1
 17 22  1  0
 17 18  1  0
 17 41  1  1
 18 19  1  0
 18 42  1  6
 19 20  1  0
 19 21  1  0
 19 43  1  6
 20 44  1  6
 21 22  1  0
 21 45  1  1
 22 46  1  1
M  CHG  1  16   1
M  END
>  <i_m_ct_stereo_status>  (373) 
1

>  <s_m_source_file>  (373) 
/var/tmp/pbs.5076255.sched01/tmpg_ssl3dq/162k0u29fl7.sdf

>  <i_m_source_file_index>  (373) 
18

>  <i_lp_mmshare_version>  (373) 
48012

>  <i_f3d_flags>  (373) 
2

>  <s_epik_input>  (373) 
W09IXVtDQF0xMltDQEBIXTNbQ0BASF00W0NASF01W0NAQEhdNltDQEhdKFtDQEhdKFtDQEBIXShbQ0gyXTEpW0NIMl01KVtDQEhdMltDQEBIXTM2KU43W0NASF0oW0NIMl03KVtDSDJdW0NAQEhdOEM0PVtDSF1bQ0gyXVtOSF04

>  <s_epik_cmdline>  (373) 
J2VwaWtfcHl0aG9uJywgJy1waHQnLCAnMi4wJywgJy1waCcsICc3LjAnLCAnLXRuJywgJzgnLCAnLW1hJywgJzIwMCcsICctaW1hZScsICc8aW5maWxlLm1hZT4nLCAnLW9tYWUnLCAnPG91dGZpbGUubWFlPic=

>  <r_epik_Ionization_Penalty>  (373) 
1.91446

>  <r_epik_Ionization_Penalty_Charging>  (373) 
0.0019595

>  <r_epik_Ionization_Penalty_Neutral>  (373) 
1.9125

>  <r_epik_State_Penalty>  (373) 
2.06613

>  <r_epik_Charging_Adjusted_Penalty>  (373) 
2.06809

>  <i_epik_Tot_Q>  (373) 
1

>  <i_epik_Tot_abs_Q>  (373) 
1

>  <s_lp_Force_Field>  (373) 
OPLS3e

>  <r_lp_Energy>  (373) 
158.433

>  <b_lp_Chiralities_Consistent>  (373) 
0

>  <s_lp_Variant>  (373) 
98:0-3

>  <s_i_glide_gridfile>  (373) 
pfpi4k_grid

>  <i_i_glide_lignum>  (373) 
18

>  <i_i_glide_rotatable_bonds>  (373) 
1

>  <r_i_docking_score>  (373) 
-3.60625

>  <r_i_glide_ligand_efficiency>  (373) 
-0.163921

>  <r_i_glide_ligand_efficiency_sa>  (373) 
-0.459312

>  <r_i_glide_ligand_efficiency_ln>  (373) 
-0.8815

>  <r_i_glide_gscore>  (373) 
-3.60625

>  <r_i_glide_lipo>  (373) 
-0.030576

>  <r_i_glide_hbond>  (373) 
-0.206248

>  <r_i_glide_metal>  (373) 
-0

>  <r_i_glide_rewards>  (373) 
-1.38126

>  <r_i_glide_evdw>  (373) 
-18.9368

>  <r_i_glide_ecoul>  (373) 
-6.94217

>  <r_i_glide_erotb>  (373) 
0

>  <r_i_glide_esite>  (373) 
0

>  <r_i_glide_emodel>  (373) 
-32.7218

>  <r_i_glide_energy>  (373) 
-25.879

>  <r_i_glide_einternal>  (373) 
0.215336

>  <r_i_glide_intrahb_reward>  (373) 
-0

>  <i_i_glide_confnum>  (373) 
2

>  <i_i_glide_posenum>  (373) 
9

>  <r_i_glide_eff_state_penalty>  (373) 
0

>  <ligand_id>  (373) 
98

>  <original_smiles>  (373) 
OC12CC3CC4C5C6=CCNC6CC6CN6C6C4C(C51)C2C36

>  <smiles>  (373) 
[H]OC12C([H])([H])C3([H])C([H])([H])C4([H])C5([H])C6=C([H])C([H])([H])N([H])C6([H])C([H])([H])C6([H])C([H])([H])[N+]6([H])C6([H])C4([H])C([H])(C51[H])C2([H])C36[H]

$$$$
99:0:0
     RDKit          3D

 65 68  0  0  1  0  0  0  0  0999 V2000
    4.1966   -1.2302    2.4277 C   0  0  0  0  0  0  0  0  0  0  0  0
    4.5237   -2.6907    2.0619 C   0  0  2  0  0  0  0  0  0  0  0  0
    4.3332   -3.5833    3.2971 C   0  0  0  0  0  0  0  0  0  0  0  0
    4.4457   -5.0780    2.9742 C   0  0  1  0  0  0  0  0  0  0  0  0
    3.0912   -5.7588    2.6164 C   0  0  1  0  0  0  0  0  0  0  0  0
    2.1767   -5.1199    1.5914 C   0  0  0  0  0  0  0  0  0  0  0  0
    1.1998   -6.2573    1.3220 C   0  0  0  0  0  0  0  0  0  0  0  0
    1.9884   -7.4359    1.3790 O   0  0  0  0  0  0  0  0  0  0  0  0
    3.1834   -7.2134    2.1273 C   0  0  2  0  0  0  0  0  0  0  0  0
    3.1937   -8.2331    3.2812 C   0  0  0  0  0  0  0  0  0  0  0  0
    4.3481   -7.4021    1.1392 C   0  0  0  0  0  0  0  0  0  0  0  0
    5.6918   -6.9253    1.7155 C   0  0  0  0  0  0  0  0  0  0  0  0
    5.7102   -5.4297    2.1351 C   0  0  1  0  0  0  0  0  0  0  0  0
    6.2221   -4.3863    1.0588 C   0  0  1  0  0  0  0  0  0  0  0  0
    7.7616   -4.5975    0.9324 C   0  0  0  0  0  0  0  0  0  0  0  0
    5.5778   -4.6021   -0.3394 C   0  0  0  0  0  0  0  0  0  0  0  0
    5.9688   -3.5578   -1.4075 C   0  0  0  0  0  0  0  0  0  0  0  0
    5.6918   -2.1436   -0.9165 C   0  0  0  0  0  0  0  0  0  0  0  0
    4.9961   -1.2581   -1.5067 N   0  0  0  0  0  0  0  0  0  0  0  0
    4.4392   -1.7106   -2.7096 O   0  0  0  0  0  0  0  0  0  0  0  0
    3.4158   -0.8049   -3.0958 C   0  0  0  0  0  0  0  0  0  0  0  0
    2.6939   -1.4008   -4.3077 C   0  0  0  0  0  0  0  0  0  0  0  0
    1.9219   -2.6860   -3.9402 C   0  0  0  0  0  0  0  0  0  0  0  0
    2.8264   -3.8344   -3.9082 N   0  0  0  0  0  0  0  0  0  0  0  0
    6.3607   -1.8715    0.4176 C   0  0  0  0  0  0  0  0  0  0  0  0
    5.9615   -2.9019    1.5133 C   0  0  1  0  0  0  0  0  0  0  0  0
    4.9450   -0.8053    3.0984 H   0  0  0  0  0  0  0  0  0  0  0  0
    3.2255   -1.1598    2.9208 H   0  0  0  0  0  0  0  0  0  0  0  0
    4.1314   -0.6005    1.5397 H   0  0  0  0  0  0  0  0  0  0  0  0
    3.8033   -2.9804    1.3008 H   0  0  0  0  0  0  0  0  0  0  0  0
    5.0966   -3.3287    4.0347 H   0  0  0  0  0  0  0  0  0  0  0  0
    3.3772   -3.3789    3.7806 H   0  0  0  0  0  0  0  0  0  0  0  0
    4.6593   -5.5379    3.9403 H   0  0  0  0  0  0  0  0  0  0  0  0
    2.5088   -5.7666    3.5402 H   0  0  0  0  0  0  0  0  0  0  0  0
    1.7018   -4.2166    1.9737 H   0  0  0  0  0  0  0  0  0  0  0  0
    2.6929   -4.8796    0.6700 H   0  0  0  0  0  0  0  0  0  0  0  0
    0.4360   -6.3041    2.0997 H   0  0  0  0  0  0  0  0  0  0  0  0
    0.7065   -6.1722    0.3534 H   0  0  0  0  0  0  0  0  0  0  0  0
    4.0509   -8.0952    3.9389 H   0  0  0  0  0  0  0  0  0  0  0  0
    3.2178   -9.2569    2.9063 H   0  0  0  0  0  0  0  0  0  0  0  0
    2.2953   -8.1374    3.8916 H   0  0  0  0  0  0  0  0  0  0  0  0
    4.4210   -8.4523    0.8546 H   0  0  0  0  0  0  0  0  0  0  0  0
    4.1296   -6.8703    0.2144 H   0  0  0  0  0  0  0  0  0  0  0  0
    5.9265   -7.5378    2.5877 H   0  0  0  0  0  0  0  0  0  0  0  0
    6.4824   -7.1453    1.0034 H   0  0  0  0  0  0  0  0  0  0  0  0
    6.5043   -5.3902    2.8835 H   0  0  0  0  0  0  0  0  0  0  0  0
    8.2315   -3.9333    0.2101 H   0  0  0  0  0  0  0  0  0  0  0  0
    8.0163   -5.6109    0.6222 H   0  0  0  0  0  0  0  0  0  0  0  0
    8.2697   -4.4206    1.8810 H   0  0  0  0  0  0  0  0  0  0  0  0
    5.8099   -5.5976   -0.7106 H   0  0  0  0  0  0  0  0  0  0  0  0
    4.4991   -4.5755   -0.2562 H   0  0  0  0  0  0  0  0  0  0  0  0
    7.0289   -3.6187   -1.6520 H   0  0  0  0  0  0  0  0  0  0  0  0
    5.4412   -3.7789   -2.3332 H   0  0  0  0  0  0  0  0  0  0  0  0
    2.6973   -0.6584   -2.2851 H   0  0  0  0  0  0  0  0  0  0  0  0
    3.8427    0.1706   -3.3422 H   0  0  0  0  0  0  0  0  0  0  0  0
    1.9920   -0.6708   -4.7133 H   0  0  0  0  0  0  0  0  0  0  0  0
    3.4165   -1.5672   -5.1107 H   0  0  0  0  0  0  0  0  0  0  0  0
    1.4200   -2.6066   -2.9723 H   0  0  0  0  0  0  0  0  0  0  0  0
    1.1447   -2.8935   -4.6771 H   0  0  0  0  0  0  0  0  0  0  0  0
    2.3334   -4.6816   -3.6429 H   0  0  0  0  0  0  0  0  0  0  0  0
    3.5289   -3.6599   -3.2045 H   0  0  0  0  0  0  0  0  0  0  0  0
    7.4381   -1.8980    0.2633 H   0  0  0  0  0  0  0  0  0  0  0  0
    6.1685   -0.8456    0.7304 H   0  0  0  0  0  0  0  0  0  0  0  0
    6.6146   -2.6932    2.3553 H   0  0  0  0  0  0  0  0  0  0  0  0
    3.2716   -3.9606   -4.8068 H   0  0  0  0  0  0  0  0  0  0  0  0
  1  2  1  0
  1 27  1  0
  1 28  1  0
  1 29  1  0
  2 26  1  0
  2  3  1  0
  2 30  1  6
  3  4  1  0
  3 31  1  0
  3 32  1  0
  4 13  1  0
  4  5  1  0
  4 33  1  1
  5  9  1  0
  5  6  1  0
  5 34  1  1
  6  7  1  0
  6 35  1  0
  6 36  1  0
  7  8  1  0
  7 37  1  0
  7 38  1  0
  8  9  1  0
  9 10  1  1
  9 11  1  0
 10 39  1  0
 10 40  1  0
 10 41  1  0
 11 12  1  0
 11 42  1  0
 11 43  1  0
 12 13  1  0
 12 44  1  0
 12 45  1  0
 13 14  1  0
 13 46  1  1
 14 26  1  0
 14 15  1  6
 14 16  1  0
 15 47  1  0
 15 48  1  0
 15 49  1  0
 16 17  1  0
 16 50  1  0
 16 51  1  0
 17 18  1  0
 17 52  1  0
 17 53  1  0
 18 19  2  3
 18 25  1  0
 19 20  1  0
 20 21  1  0
 21 22  1  0
 21 54  1  0
 21 55  1  0
 22 23  1  0
 22 56  1  0
 22 57  1  0
 23 24  1  0
 23 58  1  0
 23 59  1  0
 24 60  1  0
 24 61  1  0
 24 65  1  0
 25 26  1  0
 25 62  1  0
 25 63  1  0
 26 64  1  1
M  CHG  1  24   1
M  END
>  <i_m_ct_stereo_status>  (374) 
1

>  <s_m_source_file>  (374) 
/var/tmp/pbs.5076255.sched01/tmpg_ssl3dq/162k0u29fl7.sdf

>  <i_m_source_file_index>  (374) 
19

>  <i_lp_mmshare_version>  (374) 
48012

>  <i_f3d_flags>  (374) 
0

>  <s_epik_input>  (374) 
TzFbQ0gyXVtDSDJdW0NAQEhdKFtDQEBdMTJbQ0gzXSlbQ0BIXTNbQ0BASF0oW0NIMl1bQ0gyXTIpW0NAXTQoW0NIM10pW0NASF0oW0NASF0oW0NIM10pW0NIMl0zKVtDSDJdQyhcW0NIMl1bQ0gyXTQpPU5cT1tDSDJdW0NIMl1bQ0gyXVtOSDJd

>  <s_epik_cmdline>  (374) 
J2VwaWtfcHl0aG9uJywgJy1waHQnLCAnMi4wJywgJy1waCcsICc3LjAnLCAnLXRuJywgJzgnLCAnLW1hJywgJzIwMCcsICctaW1hZScsICc8aW5maWxlLm1hZT4nLCAnLW9tYWUnLCAnPG91dGZpbGUubWFlPic=

>  <r_epik_Ionization_Penalty>  (374) 
0.00093905

>  <r_epik_Ionization_Penalty_Charging>  (374) 
0.00093898

>  <r_epik_Ionization_Penalty_Neutral>  (374) 
6.95624e-08

>  <r_epik_State_Penalty>  (374) 
0.0006095

>  <r_epik_Charging_Adjusted_Penalty>  (374) 
0.00154848

>  <i_epik_Tot_Q>  (374) 
1

>  <i_epik_Tot_abs_Q>  (374) 
1

>  <s_epik_Chemistry_Notes>  (374) 
This compound has an imine and may undergo hydrolysis.

>  <s_lp_Force_Field>  (374) 
OPLS3e

>  <r_lp_Energy>  (374) 
54.6942

>  <b_lp_Chiralities_Consistent>  (374) 
1

>  <s_lp_Variant>  (374) 
99:0-1

>  <s_i_glide_gridfile>  (374) 
pfpi4k_grid

>  <i_i_glide_lignum>  (374) 
19

>  <i_i_glide_rotatable_bonds>  (374) 
4

>  <r_i_docking_score>  (374) 
-3.91926

>  <r_i_glide_ligand_efficiency>  (374) 
-0.150741

>  <r_i_glide_ligand_efficiency_sa>  (374) 
-0.446569

>  <r_i_glide_ligand_efficiency_ln>  (374) 
-0.920425

>  <r_i_glide_gscore>  (374) 
-3.91926

>  <r_i_glide_lipo>  (374) 
-0.998023

>  <r_i_glide_hbond>  (374) 
0

>  <r_i_glide_metal>  (374) 
-0

>  <r_i_glide_rewards>  (374) 
-1.43029

>  <r_i_glide_evdw>  (374) 
-24.0871

>  <r_i_glide_ecoul>  (374) 
-4.23814

>  <r_i_glide_erotb>  (374) 
0.436125

>  <r_i_glide_esite>  (374) 
-0.086993

>  <r_i_glide_emodel>  (374) 
-40.9941

>  <r_i_glide_energy>  (374) 
-28.3252

>  <r_i_glide_einternal>  (374) 
3.27732

>  <r_i_glide_intrahb_reward>  (374) 
-0.5

>  <i_i_glide_confnum>  (374) 
4

>  <i_i_glide_posenum>  (374) 
5

>  <r_i_glide_eff_state_penalty>  (374) 
0

>  <ligand_id>  (374) 
99

>  <original_smiles>  (374) 
CC1CC2C3CCOC3(C)CCC2C2(C)CCC(=NOCCCN)CC12

>  <smiles>  (374) 
[H]C([H])([H])C1([H])C([H])([H])C2([H])C3([H])C([H])([H])C([H])([H])OC3(C([H])([H])[H])C([H])([H])C([H])([H])C2([H])C2(C([H])([H])[H])C([H])([H])C([H])([H])C(=NOC([H])([H])C([H])([H])C([H])([H])[N+]([H])([H])[H])C([H])([H])C12[H]

$$$$
99:0:1
     RDKit          3D

 65 68  0  0  1  0  0  0  0  0999 V2000
    6.1804   -6.2282    5.1735 C   0  0  0  0  0  0  0  0  0  0  0  0
    5.0292   -6.7766    4.3130 C   0  0  2  0  0  0  0  0  0  0  0  0
    4.1530   -7.7092    5.1577 C   0  0  0  0  0  0  0  0  0  0  0  0
    2.8675   -8.1332    4.4361 C   0  0  1  0  0  0  0  0  0  0  0  0
    1.6452   -7.2033    4.6992 C   0  0  1  0  0  0  0  0  0  0  0  0
    1.7938   -5.7049    4.5550 C   0  0  0  0  0  0  0  0  0  0  0  0
    0.3395   -5.2635    4.5579 C   0  0  0  0  0  0  0  0  0  0  0  0
   -0.3558   -6.2826    3.8468 O   0  0  0  0  0  0  0  0  0  0  0  0
    0.3871   -7.5059    3.8627 C   0  0  2  0  0  0  0  0  0  0  0  0
   -0.5115   -8.5837    4.5013 C   0  0  0  0  0  0  0  0  0  0  0  0
    0.7446   -7.8010    2.3985 C   0  0  0  0  0  0  0  0  0  0  0  0
    1.7758   -8.9322    2.2581 C   0  0  0  0  0  0  0  0  0  0  0  0
    3.1195   -8.6520    2.9824 C   0  0  1  0  0  0  0  0  0  0  0  0
    4.2774   -7.9891    2.1310 C   0  0  1  0  0  0  0  0  0  0  0  0
    4.7866   -9.0756    1.1438 C   0  0  0  0  0  0  0  0  0  0  0  0
    3.7908   -6.7676    1.3029 C   0  0  0  0  0  0  0  0  0  0  0  0
    4.9033   -6.0433    0.5230 C   0  0  0  0  0  0  0  0  0  0  0  0
    6.0321   -5.6225    1.4514 C   0  0  0  0  0  0  0  0  0  0  0  0
    6.4771   -4.4293    1.6093 N   0  0  0  0  0  0  0  0  0  0  0  0
    5.8025   -3.4906    0.8124 O   0  0  0  0  0  0  0  0  0  0  0  0
    4.7560   -2.8699    1.5661 C   0  0  0  0  0  0  0  0  0  0  0  0
    3.6099   -2.5436    0.6053 C   0  0  0  0  0  0  0  0  0  0  0  0
    3.9803   -1.5633   -0.5034 C   0  0  0  0  0  0  0  0  0  0  0  0
    3.0149   -1.6328   -1.6203 N   0  0  0  0  0  0  0  0  0  0  0  0
    6.5939   -6.7956    2.2270 C   0  0  0  0  0  0  0  0  0  0  0  0
    5.4903   -7.5457    3.0399 C   0  0  1  0  0  0  0  0  0  0  0  0
    6.9008   -7.0080    5.4162 H   0  0  0  0  0  0  0  0  0  0  0  0
    5.8066   -5.8144    6.1102 H   0  0  0  0  0  0  0  0  0  0  0  0
    6.7079   -5.4176    4.6713 H   0  0  0  0  0  0  0  0  0  0  0  0
    4.4414   -5.9151    4.0155 H   0  0  0  0  0  0  0  0  0  0  0  0
    4.7306   -8.6062    5.3928 H   0  0  0  0  0  0  0  0  0  0  0  0
    3.9018   -7.2495    6.1169 H   0  0  0  0  0  0  0  0  0  0  0  0
    2.5612   -9.0368    4.9606 H   0  0  0  0  0  0  0  0  0  0  0  0
    1.3797   -7.3582    5.7445 H   0  0  0  0  0  0  0  0  0  0  0  0
    2.3760   -5.2500    5.3579 H   0  0  0  0  0  0  0  0  0  0  0  0
    2.2344   -5.4279    3.6073 H   0  0  0  0  0  0  0  0  0  0  0  0
   -0.0446   -5.2106    5.5756 H   0  0  0  0  0  0  0  0  0  0  0  0
    0.2082   -4.2890    4.0907 H   0  0  0  0  0  0  0  0  0  0  0  0
    0.0009   -9.5392    4.6004 H   0  0  0  0  0  0  0  0  0  0  0  0
   -1.4184   -8.7539    3.9203 H   0  0  0  0  0  0  0  0  0  0  0  0
   -0.8234   -8.2904    5.5025 H   0  0  0  0  0  0  0  0  0  0  0  0
   -0.1522   -8.0629    1.8484 H   0  0  0  0  0  0  0  0  0  0  0  0
    1.1108   -6.8915    1.9235 H   0  0  0  0  0  0  0  0  0  0  0  0
    1.3363   -9.8567    2.6610 H   0  0  0  0  0  0  0  0  0  0  0  0
    1.9360   -9.1350    1.2039 H   0  0  0  0  0  0  0  0  0  0  0  0
    3.5191   -9.6504    3.1533 H   0  0  0  0  0  0  0  0  0  0  0  0
    5.5859   -8.7320    0.4955 H   0  0  0  0  0  0  0  0  0  0  0  0
    4.0014   -9.4410    0.4864 H   0  0  0  0  0  0  0  0  0  0  0  0
    5.1815   -9.9401    1.6745 H   0  0  0  0  0  0  0  0  0  0  0  0
    3.0184   -7.0609    0.5911 H   0  0  0  0  0  0  0  0  0  0  0  0
    3.3295   -6.0379    1.9566 H   0  0  0  0  0  0  0  0  0  0  0  0
    5.3045   -6.6665   -0.2674 H   0  0  0  0  0  0  0  0  0  0  0  0
    4.4876   -5.2010   -0.0078 H   0  0  0  0  0  0  0  0  0  0  0  0
    4.3487   -3.5347    2.3279 H   0  0  0  0  0  0  0  0  0  0  0  0
    5.1274   -1.9898    2.1039 H   0  0  0  0  0  0  0  0  0  0  0  0
    3.2421   -3.4685    0.1533 H   0  0  0  0  0  0  0  0  0  0  0  0
    2.7595   -2.1515    1.1643 H   0  0  0  0  0  0  0  0  0  0  0  0
    4.0279   -0.5481   -0.1138 H   0  0  0  0  0  0  0  0  0  0  0  0
    4.9711   -1.7786   -0.9161 H   0  0  0  0  0  0  0  0  0  0  0  0
    3.2420   -0.9423   -2.3228 H   0  0  0  0  0  0  0  0  0  0  0  0
    2.0516   -1.4524   -1.2616 H   0  0  0  0  0  0  0  0  0  0  0  0
    7.0595   -7.4736    1.5132 H   0  0  0  0  0  0  0  0  0  0  0  0
    7.4159   -6.4670    2.8581 H   0  0  0  0  0  0  0  0  0  0  0  0
    5.9759   -8.4565    3.4043 H   0  0  0  0  0  0  0  0  0  0  0  0
    3.0166   -2.5575   -2.0285 H   0  0  0  0  0  0  0  0  0  0  0  0
  1  2  1  0
  1 27  1  0
  1 28  1  0
  1 29  1  0
  2 26  1  0
  2  3  1  0
  2 30  1  6
  3  4  1  0
  3 31  1  0
  3 32  1  0
  4 13  1  0
  4  5  1  0
  4 33  1  1
  5  9  1  0
  5  6  1  0
  5 34  1  1
  6  7  1  0
  6 35  1  0
  6 36  1  0
  7  8  1  0
  7 37  1  0
  7 38  1  0
  8  9  1  0
  9 10  1  1
  9 11  1  0
 10 39  1  0
 10 40  1  0
 10 41  1  0
 11 12  1  0
 11 42  1  0
 11 43  1  0
 12 13  1  0
 12 44  1  0
 12 45  1  0
 13 14  1  0
 13 46  1  1
 14 26  1  0
 14 15  1  6
 14 16  1  0
 15 47  1  0
 15 48  1  0
 15 49  1  0
 16 17  1  0
 16 50  1  0
 16 51  1  0
 17 18  1  0
 17 52  1  0
 17 53  1  0
 18 19  2  3
 18 25  1  0
 19 20  1  0
 20 21  1  0
 21 22  1  0
 21 54  1  0
 21 55  1  0
 22 23  1  0
 22 56  1  0
 22 57  1  0
 23 24  1  0
 23 58  1  0
 23 59  1  0
 24 60  1  0
 24 61  1  0
 24 65  1  0
 25 26  1  0
 25 62  1  0
 25 63  1  0
 26 64  1  1
M  CHG  1  24   1
M  END
>  <i_m_ct_stereo_status>  (375) 
1

>  <s_m_source_file>  (375) 
/var/tmp/pbs.5076255.sched01/tmpg_ssl3dq/162k0u29fl7.sdf

>  <i_m_source_file_index>  (375) 
19

>  <i_lp_mmshare_version>  (375) 
48012

>  <i_f3d_flags>  (375) 
0

>  <s_epik_input>  (375) 
TzFbQ0gyXVtDSDJdW0NAQEhdKFtDQEBdMTJbQ0gzXSlbQ0BIXTNbQ0BASF0oW0NIMl1bQ0gyXTIpW0NAXTQoW0NIM10pW0NASF0oW0NASF0oW0NIM10pW0NIMl0zKVtDSDJdQyhcW0NIMl1bQ0gyXTQpPU5cT1tDSDJdW0NIMl1bQ0gyXVtOSDJd

>  <s_epik_cmdline>  (375) 
J2VwaWtfcHl0aG9uJywgJy1waHQnLCAnMi4wJywgJy1waCcsICc3LjAnLCAnLXRuJywgJzgnLCAnLW1hJywgJzIwMCcsICctaW1hZScsICc8aW5maWxlLm1hZT4nLCAnLW9tYWUnLCAnPG91dGZpbGUubWFlPic=

>  <r_epik_Ionization_Penalty>  (375) 
0.00093905

>  <r_epik_Ionization_Penalty_Charging>  (375) 
0.00093898

>  <r_epik_Ionization_Penalty_Neutral>  (375) 
6.95624e-08

>  <r_epik_State_Penalty>  (375) 
0.0006095

>  <r_epik_Charging_Adjusted_Penalty>  (375) 
0.00154848

>  <i_epik_Tot_Q>  (375) 
1

>  <i_epik_Tot_abs_Q>  (375) 
1

>  <s_epik_Chemistry_Notes>  (375) 
This compound has an imine and may undergo hydrolysis.

>  <s_lp_Force_Field>  (375) 
OPLS3e

>  <r_lp_Energy>  (375) 
54.6942

>  <b_lp_Chiralities_Consistent>  (375) 
1

>  <s_lp_Variant>  (375) 
99:0-1

>  <s_i_glide_gridfile>  (375) 
pfpi4k_grid

>  <i_i_glide_lignum>  (375) 
19

>  <i_i_glide_rotatable_bonds>  (375) 
4

>  <r_i_docking_score>  (375) 
-3.79117

>  <r_i_glide_ligand_efficiency>  (375) 
-0.145814

>  <r_i_glide_ligand_efficiency_sa>  (375) 
-0.431975

>  <r_i_glide_ligand_efficiency_ln>  (375) 
-0.890345

>  <r_i_glide_gscore>  (375) 
-3.79117

>  <r_i_glide_lipo>  (375) 
-0.28289

>  <r_i_glide_hbond>  (375) 
-0.239549

>  <r_i_glide_metal>  (375) 
-0

>  <r_i_glide_rewards>  (375) 
-1.03741

>  <r_i_glide_evdw>  (375) 
-16.0789

>  <r_i_glide_ecoul>  (375) 
-11.7567

>  <r_i_glide_erotb>  (375) 
0.436125

>  <r_i_glide_esite>  (375) 
-0.1

>  <r_i_glide_emodel>  (375) 
-32.6981

>  <r_i_glide_energy>  (375) 
-27.8356

>  <r_i_glide_einternal>  (375) 
7.56365

>  <r_i_glide_intrahb_reward>  (375) 
-0

>  <i_i_glide_confnum>  (375) 
1

>  <i_i_glide_posenum>  (375) 
28

>  <r_i_glide_eff_state_penalty>  (375) 
0

>  <ligand_id>  (375) 
99

>  <original_smiles>  (375) 
CC1CC2C3CCOC3(C)CCC2C2(C)CCC(=NOCCCN)CC12

>  <smiles>  (375) 
[H]C([H])([H])C1([H])C([H])([H])C2([H])C3([H])C([H])([H])C([H])([H])OC3(C([H])([H])[H])C([H])([H])C([H])([H])C2([H])C2(C([H])([H])[H])C([H])([H])C([H])([H])C(=NOC([H])([H])C([H])([H])C([H])([H])[N+]([H])([H])[H])C([H])([H])C12[H]

$$$$
99:0:2
     RDKit          3D

 65 68  0  0  1  0  0  0  0  0999 V2000
    6.1377   -5.8994    4.6347 C   0  0  0  0  0  0  0  0  0  0  0  0
    4.9065   -6.5298    3.9568 C   0  0  2  0  0  0  0  0  0  0  0  0
    4.2322   -7.5057    4.9293 C   0  0  0  0  0  0  0  0  0  0  0  0
    2.8856   -8.0241    4.4139 C   0  0  1  0  0  0  0  0  0  0  0  0
    1.6577   -7.1773    4.8652 C   0  0  1  0  0  0  0  0  0  0  0  0
    1.6810   -5.6693    4.6978 C   0  0  0  0  0  0  0  0  0  0  0  0
    0.2160   -5.3268    4.9289 C   0  0  0  0  0  0  0  0  0  0  0  0
   -0.5072   -6.3954    4.3285 O   0  0  0  0  0  0  0  0  0  0  0  0
    0.3094   -7.5651    4.2340 C   0  0  2  0  0  0  0  0  0  0  0  0
   -0.3998   -8.6945    5.0020 C   0  0  0  0  0  0  0  0  0  0  0  0
    0.4547   -7.8599    2.7309 C   0  0  0  0  0  0  0  0  0  0  0  0
    1.5339   -8.9116    2.4319 C   0  0  0  0  0  0  0  0  0  0  0  0
    2.9498   -8.5353    2.9449 C   0  0  1  0  0  0  0  0  0  0  0  0
    3.9113   -7.8014    1.9209 C   0  0  1  0  0  0  0  0  0  0  0  0
    4.3347   -8.8707    0.8707 C   0  0  0  0  0  0  0  0  0  0  0  0
    3.2153   -6.6219    1.1826 C   0  0  0  0  0  0  0  0  0  0  0  0
    4.1306   -5.8060    0.2472 C   0  0  0  0  0  0  0  0  0  0  0  0
    5.3756   -5.3119    0.9720 C   0  0  0  0  0  0  0  0  0  0  0  0
    5.7833   -4.1100    1.0490 N   0  0  0  0  0  0  0  0  0  0  0  0
    4.8976   -3.1896    0.4652 O   0  0  0  0  0  0  0  0  0  0  0  0
    5.3904   -1.8743    0.6837 C   0  0  0  0  0  0  0  0  0  0  0  0
    4.2459   -0.8768    0.4495 C   0  0  0  0  0  0  0  0  0  0  0  0
    3.1773   -0.9343    1.5498 C   0  0  0  0  0  0  0  0  0  0  0  0
    2.0720   -0.0146    1.2783 N   0  0  0  0  0  0  0  0  0  0  0  0
    6.1148   -6.4465    1.6558 C   0  0  0  0  0  0  0  0  0  0  0  0
    5.2145   -7.2709    2.6250 C   0  0  1  0  0  0  0  0  0  0  0  0
    6.9385   -6.6282    4.7677 H   0  0  0  0  0  0  0  0  0  0  0  0
    5.8834   -5.5004    5.6176 H   0  0  0  0  0  0  0  0  0  0  0  0
    6.5230   -5.0592    4.0585 H   0  0  0  0  0  0  0  0  0  0  0  0
    4.2219   -5.7079    3.7551 H   0  0  0  0  0  0  0  0  0  0  0  0
    4.8934   -8.3594    5.0838 H   0  0  0  0  0  0  0  0  0  0  0  0
    4.1023   -7.0529    5.9124 H   0  0  0  0  0  0  0  0  0  0  0  0
    2.7222   -8.9425    4.9830 H   0  0  0  0  0  0  0  0  0  0  0  0
    1.5680   -7.3357    5.9436 H   0  0  0  0  0  0  0  0  0  0  0  0
    2.3472   -5.1704    5.4026 H   0  0  0  0  0  0  0  0  0  0  0  0
    1.9546   -5.3717    3.6931 H   0  0  0  0  0  0  0  0  0  0  0  0
   -0.0105   -5.2996    5.9973 H   0  0  0  0  0  0  0  0  0  0  0  0
   -0.0633   -4.3684    4.4899 H   0  0  0  0  0  0  0  0  0  0  0  0
    0.1852   -9.6158    5.0074 H   0  0  0  0  0  0  0  0  0  0  0  0
   -1.3707   -8.9233    4.5620 H   0  0  0  0  0  0  0  0  0  0  0  0
   -0.5769   -8.4178    6.0407 H   0  0  0  0  0  0  0  0  0  0  0  0
   -0.5027   -8.1940    2.3262 H   0  0  0  0  0  0  0  0  0  0  0  0
    0.6863   -6.9343    2.2044 H   0  0  0  0  0  0  0  0  0  0  0  0
    1.2317   -9.8512    2.8905 H   0  0  0  0  0  0  0  0  0  0  0  0
    1.5424   -9.1151    1.3638 H   0  0  0  0  0  0  0  0  0  0  0  0
    3.4381   -9.5081    3.0588 H   0  0  0  0  0  0  0  0  0  0  0  0
    4.9908   -8.4755    0.0995 H   0  0  0  0  0  0  0  0  0  0  0  0
    3.4818   -9.3074    0.3537 H   0  0  0  0  0  0  0  0  0  0  0  0
    4.8715   -9.6992    1.3352 H   0  0  0  0  0  0  0  0  0  0  0  0
    2.3634   -6.9797    0.6080 H   0  0  0  0  0  0  0  0  0  0  0  0
    2.8068   -5.9288    1.9046 H   0  0  0  0  0  0  0  0  0  0  0  0
    4.4556   -6.4105   -0.5996 H   0  0  0  0  0  0  0  0  0  0  0  0
    3.5587   -4.9865   -0.1869 H   0  0  0  0  0  0  0  0  0  0  0  0
    5.7903   -1.7519    1.6954 H   0  0  0  0  0  0  0  0  0  0  0  0
    6.2121   -1.6793   -0.0108 H   0  0  0  0  0  0  0  0  0  0  0  0
    4.6563    0.1335    0.4042 H   0  0  0  0  0  0  0  0  0  0  0  0
    3.7909   -1.0727   -0.5237 H   0  0  0  0  0  0  0  0  0  0  0  0
    2.7790   -1.9481    1.6433 H   0  0  0  0  0  0  0  0  0  0  0  0
    3.6227   -0.6759    2.5155 H   0  0  0  0  0  0  0  0  0  0  0  0
    1.3826   -0.0625    2.0072 H   0  0  0  0  0  0  0  0  0  0  0  0
    1.6045   -0.2793    0.3919 H   0  0  0  0  0  0  0  0  0  0  0  0
    6.5133   -7.0979    0.8815 H   0  0  0  0  0  0  0  0  0  0  0  0
    7.0018   -6.0616    2.1595 H   0  0  0  0  0  0  0  0  0  0  0  0
    5.8081   -8.1408    2.9091 H   0  0  0  0  0  0  0  0  0  0  0  0
    2.3991    0.9368    1.2003 H   0  0  0  0  0  0  0  0  0  0  0  0
  1  2  1  0
  1 27  1  0
  1 28  1  0
  1 29  1  0
  2 26  1  0
  2  3  1  0
  2 30  1  6
  3  4  1  0
  3 31  1  0
  3 32  1  0
  4 13  1  0
  4  5  1  0
  4 33  1  1
  5  9  1  0
  5  6  1  0
  5 34  1  1
  6  7  1  0
  6 35  1  0
  6 36  1  0
  7  8  1  0
  7 37  1  0
  7 38  1  0
  8  9  1  0
  9 10  1  1
  9 11  1  0
 10 39  1  0
 10 40  1  0
 10 41  1  0
 11 12  1  0
 11 42  1  0
 11 43  1  0
 12 13  1  0
 12 44  1  0
 12 45  1  0
 13 14  1  0
 13 46  1  1
 14 26  1  0
 14 15  1  6
 14 16  1  0
 15 47  1  0
 15 48  1  0
 15 49  1  0
 16 17  1  0
 16 50  1  0
 16 51  1  0
 17 18  1  0
 17 52  1  0
 17 53  1  0
 18 19  2  3
 18 25  1  0
 19 20  1  0
 20 21  1  0
 21 22  1  0
 21 54  1  0
 21 55  1  0
 22 23  1  0
 22 56  1  0
 22 57  1  0
 23 24  1  0
 23 58  1  0
 23 59  1  0
 24 60  1  0
 24 61  1  0
 24 65  1  0
 25 26  1  0
 25 62  1  0
 25 63  1  0
 26 64  1  1
M  CHG  1  24   1
M  END
>  <i_m_ct_stereo_status>  (376) 
1

>  <s_m_source_file>  (376) 
/var/tmp/pbs.5076255.sched01/tmpg_ssl3dq/162k0u29fl7.sdf

>  <i_m_source_file_index>  (376) 
19

>  <i_lp_mmshare_version>  (376) 
48012

>  <i_f3d_flags>  (376) 
0

>  <s_epik_input>  (376) 
TzFbQ0gyXVtDSDJdW0NAQEhdKFtDQEBdMTJbQ0gzXSlbQ0BIXTNbQ0BASF0oW0NIMl1bQ0gyXTIpW0NAXTQoW0NIM10pW0NASF0oW0NASF0oW0NIM10pW0NIMl0zKVtDSDJdQyhcW0NIMl1bQ0gyXTQpPU5cT1tDSDJdW0NIMl1bQ0gyXVtOSDJd

>  <s_epik_cmdline>  (376) 
J2VwaWtfcHl0aG9uJywgJy1waHQnLCAnMi4wJywgJy1waCcsICc3LjAnLCAnLXRuJywgJzgnLCAnLW1hJywgJzIwMCcsICctaW1hZScsICc8aW5maWxlLm1hZT4nLCAnLW9tYWUnLCAnPG91dGZpbGUubWFlPic=

>  <r_epik_Ionization_Penalty>  (376) 
0.00093905

>  <r_epik_Ionization_Penalty_Charging>  (376) 
0.00093898

>  <r_epik_Ionization_Penalty_Neutral>  (376) 
6.95624e-08

>  <r_epik_State_Penalty>  (376) 
0.0006095

>  <r_epik_Charging_Adjusted_Penalty>  (376) 
0.00154848

>  <i_epik_Tot_Q>  (376) 
1

>  <i_epik_Tot_abs_Q>  (376) 
1

>  <s_epik_Chemistry_Notes>  (376) 
This compound has an imine and may undergo hydrolysis.

>  <s_lp_Force_Field>  (376) 
OPLS3e

>  <r_lp_Energy>  (376) 
54.6942

>  <b_lp_Chiralities_Consistent>  (376) 
1

>  <s_lp_Variant>  (376) 
99:0-1

>  <s_i_glide_gridfile>  (376) 
pfpi4k_grid

>  <i_i_glide_lignum>  (376) 
19

>  <i_i_glide_rotatable_bonds>  (376) 
4

>  <r_i_docking_score>  (376) 
-3.22172

>  <r_i_glide_ligand_efficiency>  (376) 
-0.123912

>  <r_i_glide_ligand_efficiency_sa>  (376) 
-0.36709

>  <r_i_glide_ligand_efficiency_ln>  (376) 
-0.756611

>  <r_i_glide_gscore>  (376) 
-3.22172

>  <r_i_glide_lipo>  (376) 
-0.300652

>  <r_i_glide_hbond>  (376) 
-0.2

>  <r_i_glide_metal>  (376) 
-0

>  <r_i_glide_rewards>  (376) 
-1.03473

>  <r_i_glide_evdw>  (376) 
-19.1583

>  <r_i_glide_ecoul>  (376) 
-7.21833

>  <r_i_glide_erotb>  (376) 
0.436125

>  <r_i_glide_esite>  (376) 
-0.0817997

>  <r_i_glide_emodel>  (376) 
-33.06

>  <r_i_glide_energy>  (376) 
-26.3767

>  <r_i_glide_einternal>  (376) 
1.88885

>  <r_i_glide_intrahb_reward>  (376) 
-0

>  <i_i_glide_confnum>  (376) 
6

>  <i_i_glide_posenum>  (376) 
10

>  <r_i_glide_eff_state_penalty>  (376) 
0

>  <ligand_id>  (376) 
99

>  <original_smiles>  (376) 
CC1CC2C3CCOC3(C)CCC2C2(C)CCC(=NOCCCN)CC12

>  <smiles>  (376) 
[H]C([H])([H])C1([H])C([H])([H])C2([H])C3([H])C([H])([H])C([H])([H])OC3(C([H])([H])[H])C([H])([H])C([H])([H])C2([H])C2(C([H])([H])[H])C([H])([H])C([H])([H])C(=NOC([H])([H])C([H])([H])C([H])([H])[N+]([H])([H])[H])C([H])([H])C12[H]

$$$$
99:1:0
     RDKit          3D

 65 68  0  0  1  0  0  0  0  0999 V2000
    2.4128    0.8574    1.6911 C   0  0  0  0  0  0  0  0  0  0  0  0
    2.0513    1.0023    3.1725 C   0  0  2  0  0  0  0  0  0  0  0  0
    1.0290    2.1381    3.3138 C   0  0  0  0  0  0  0  0  0  0  0  0
    0.4589    2.2294    4.7315 C   0  0  1  0  0  0  0  0  0  0  0  0
   -0.8364    1.3949    4.9520 C   0  0  1  0  0  0  0  0  0  0  0  0
   -0.8654   -0.0644    4.5273 C   0  0  0  0  0  0  0  0  0  0  0  0
   -2.1209   -0.5457    5.2370 C   0  0  0  0  0  0  0  0  0  0  0  0
   -2.1569    0.1664    6.4740 O   0  0  0  0  0  0  0  0  0  0  0  0
   -1.3558    1.3404    6.3967 C   0  0  2  0  0  0  0  0  0  0  0  0
   -2.2707    2.5234    6.7559 C   0  0  0  0  0  0  0  0  0  0  0  0
   -0.2028    1.1412    7.3968 C   0  0  0  0  0  0  0  0  0  0  0  0
    0.9044    2.1970    7.2443 C   0  0  0  0  0  0  0  0  0  0  0  0
    1.5515    2.2254    5.8314 C   0  0  1  0  0  0  0  0  0  0  0  0
    2.8544    1.3471    5.6162 C   0  0  1  0  0  0  0  0  0  0  0  0
    4.0026    2.0631    6.3866 C   0  0  0  0  0  0  0  0  0  0  0  0
    2.7127   -0.0895    6.1957 C   0  0  0  0  0  0  0  0  0  0  0  0
    3.8981   -1.0325    5.9014 C   0  0  0  0  0  0  0  0  0  0  0  0
    4.2051   -1.0899    4.4263 C   0  0  0  0  0  0  0  0  0  0  0  0
    4.1959   -2.1876    3.7744 N   0  0  0  0  0  0  0  0  0  0  0  0
    4.3965   -2.0077    2.3983 O   0  0  0  0  0  0  0  0  0  0  0  0
    3.8511   -3.1213    1.6994 C   0  0  0  0  0  0  0  0  0  0  0  0
    3.5663   -2.6598    0.2611 C   0  0  0  0  0  0  0  0  0  0  0  0
    2.9020   -3.7091   -0.6471 C   0  0  0  0  0  0  0  0  0  0  0  0
    2.3798   -3.1062   -1.8449 N   0  0  0  0  0  0  0  0  0  0  0  0
    4.4484    0.2962    3.8547 C   0  0  0  0  0  0  0  0  0  0  0  0
    3.2655    1.2790    4.1001 C   0  0  1  0  0  0  0  0  0  0  0  0
    2.9952    1.7079    1.3600 H   0  0  0  0  0  0  0  0  0  0  0  0
    1.5261    0.7758    1.0590 H   0  0  0  0  0  0  0  0  0  0  0  0
    3.0016   -0.0348    1.5228 H   0  0  0  0  0  0  0  0  0  0  0  0
    1.5864    0.0609    3.4611 H   0  0  0  0  0  0  0  0  0  0  0  0
    1.5241    3.0815    3.0787 H   0  0  0  0  0  0  0  0  0  0  0  0
    0.2258    2.0345    2.5870 H   0  0  0  0  0  0  0  0  0  0  0  0
    0.0567    3.2451    4.7800 H   0  0  0  0  0  0  0  0  0  0  0  0
   -1.6129    1.8720    4.3459 H   0  0  0  0  0  0  0  0  0  0  0  0
   -0.9247   -0.1885    3.4478 H   0  0  0  0  0  0  0  0  0  0  0  0
   -0.0136   -0.6270    4.8953 H   0  0  0  0  0  0  0  0  0  0  0  0
   -2.9840   -0.2753    4.6508 H   0  0  0  0  0  0  0  0  0  0  0  0
   -2.1312   -1.6270    5.3933 H   0  0  0  0  0  0  0  0  0  0  0  0
   -1.7515    3.4787    6.6791 H   0  0  0  0  0  0  0  0  0  0  0  0
   -2.6601    2.4303    7.7704 H   0  0  0  0  0  0  0  0  0  0  0  0
   -3.1281    2.5631    6.0843 H   0  0  0  0  0  0  0  0  0  0  0  0
   -0.5951    1.1720    8.4178 H   0  0  0  0  0  0  0  0  0  0  0  0
    0.2078    0.1400    7.2821 H   0  0  0  0  0  0  0  0  0  0  0  0
    0.4811    3.1722    7.4588 H   0  0  0  0  0  0  0  0  0  0  0  0
    1.6514    2.0333    8.0186 H   0  0  0  0  0  0  0  0  0  0  0  0
    1.9530    3.2417    5.7661 H   0  0  0  0  0  0  0  0  0  0  0  0
    4.9557    1.5431    6.3138 H   0  0  0  0  0  0  0  0  0  0  0  0
    3.7893    2.1594    7.4505 H   0  0  0  0  0  0  0  0  0  0  0  0
    4.1756    3.0688    5.9986 H   0  0  0  0  0  0  0  0  0  0  0  0
    2.5481   -0.0557    7.2704 H   0  0  0  0  0  0  0  0  0  0  0  0
    1.8347   -0.5601    5.7737 H   0  0  0  0  0  0  0  0  0  0  0  0
    4.7914   -0.7004    6.4354 H   0  0  0  0  0  0  0  0  0  0  0  0
    3.6783   -2.0328    6.2779 H   0  0  0  0  0  0  0  0  0  0  0  0
    4.5455   -3.9652    1.7331 H   0  0  0  0  0  0  0  0  0  0  0  0
    2.9136   -3.4533    2.1560 H   0  0  0  0  0  0  0  0  0  0  0  0
    2.8884   -1.8094    0.3095 H   0  0  0  0  0  0  0  0  0  0  0  0
    4.4859   -2.2981   -0.2014 H   0  0  0  0  0  0  0  0  0  0  0  0
    3.6295   -4.4977   -0.8815 H   0  0  0  0  0  0  0  0  0  0  0  0
    2.0865   -4.1977   -0.1006 H   0  0  0  0  0  0  0  0  0  0  0  0
    1.9364   -3.8123   -2.4294 H   0  0  0  0  0  0  0  0  0  0  0  0
    3.1171   -2.6748   -2.3820 H   0  0  0  0  0  0  0  0  0  0  0  0
    5.3472    0.6877    4.3335 H   0  0  0  0  0  0  0  0  0  0  0  0
    4.7306    0.2634    2.8046 H   0  0  0  0  0  0  0  0  0  0  0  0
    3.6351    2.2611    3.8118 H   0  0  0  0  0  0  0  0  0  0  0  0
    1.6894   -2.3817   -1.6153 H   0  0  0  0  0  0  0  0  0  0  0  0
  1  2  1  0
  1 27  1  0
  1 28  1  0
  1 29  1  0
  2 26  1  0
  2  3  1  0
  2 30  1  1
  3  4  1  0
  3 31  1  0
  3 32  1  0
  4 13  1  0
  4  5  1  0
  4 33  1  6
  5  9  1  0
  5  6  1  0
  5 34  1  6
  6  7  1  0
  6 35  1  0
  6 36  1  0
  7  8  1  0
  7 37  1  0
  7 38  1  0
  8  9  1  0
  9 10  1  1
  9 11  1  0
 10 39  1  0
 10 40  1  0
 10 41  1  0
 11 12  1  0
 11 42  1  0
 11 43  1  0
 12 13  1  0
 12 44  1  0
 12 45  1  0
 13 14  1  0
 13 46  1  1
 14 26  1  0
 14 15  1  1
 14 16  1  0
 15 47  1  0
 15 48  1  0
 15 49  1  0
 16 17  1  0
 16 50  1  0
 16 51  1  0
 17 18  1  0
 17 52  1  0
 17 53  1  0
 18 19  2  3
 18 25  1  0
 19 20  1  0
 20 21  1  0
 21 22  1  0
 21 54  1  0
 21 55  1  0
 22 23  1  0
 22 56  1  0
 22 57  1  0
 23 24  1  0
 23 58  1  0
 23 59  1  0
 24 60  1  0
 24 61  1  0
 24 65  1  0
 25 26  1  0
 25 62  1  0
 25 63  1  0
 26 64  1  6
M  CHG  1  24   1
M  END
>  <i_m_ct_stereo_status>  (377) 
1

>  <s_m_source_file>  (377) 
/var/tmp/pbs.5076255.sched01/tmpg_ssl3dq/162k0u29fl7.sdf

>  <i_m_source_file_index>  (377) 
20

>  <i_lp_mmshare_version>  (377) 
48012

>  <i_f3d_flags>  (377) 
0

>  <s_epik_input>  (377) 
TzFbQ0gyXVtDSDJdW0NAQEhdKFtDQEBdMTJbQ0gzXSlbQ0BIXTNbQ0BASF0oW0NIMl1bQ0gyXTIpW0NAXTQoW0NIM10pW0NASF0oW0NASF0oW0NIM10pW0NIMl0zKVtDSDJdQyhcW0NIMl1bQ0gyXTQpPU5cT1tDSDJdW0NIMl1bQ0gyXVtOSDJd

>  <s_epik_cmdline>  (377) 
J2VwaWtfcHl0aG9uJywgJy1waHQnLCAnMi4wJywgJy1waCcsICc3LjAnLCAnLXRuJywgJzgnLCAnLW1hJywgJzIwMCcsICctaW1hZScsICc8aW5maWxlLm1hZT4nLCAnLW9tYWUnLCAnPG91dGZpbGUubWFlPic=

>  <r_epik_Ionization_Penalty>  (377) 
0.00093905

>  <r_epik_Ionization_Penalty_Charging>  (377) 
0.00093898

>  <r_epik_Ionization_Penalty_Neutral>  (377) 
6.95624e-08

>  <r_epik_State_Penalty>  (377) 
0.0006095

>  <r_epik_Charging_Adjusted_Penalty>  (377) 
0.00154848

>  <i_epik_Tot_Q>  (377) 
1

>  <i_epik_Tot_abs_Q>  (377) 
1

>  <s_epik_Chemistry_Notes>  (377) 
This compound has an imine and may undergo hydrolysis.

>  <s_lp_Force_Field>  (377) 
OPLS3e

>  <r_lp_Energy>  (377) 
54.6111

>  <b_lp_Chiralities_Consistent>  (377) 
1

>  <s_lp_Variant>  (377) 
99:0-2

>  <s_i_glide_gridfile>  (377) 
pfpi4k_grid

>  <i_i_glide_lignum>  (377) 
20

>  <i_i_glide_rotatable_bonds>  (377) 
4

>  <r_i_docking_score>  (377) 
-3.33643

>  <r_i_glide_ligand_efficiency>  (377) 
-0.128324

>  <r_i_glide_ligand_efficiency_sa>  (377) 
-0.38016

>  <r_i_glide_ligand_efficiency_ln>  (377) 
-0.783549

>  <r_i_glide_gscore>  (377) 
-3.33643

>  <r_i_glide_lipo>  (377) 
-0.114627

>  <r_i_glide_hbond>  (377) 
-0.36

>  <r_i_glide_metal>  (377) 
-0

>  <r_i_glide_rewards>  (377) 
-0.937846

>  <r_i_glide_evdw>  (377) 
-15.4871

>  <r_i_glide_ecoul>  (377) 
-10.5715

>  <r_i_glide_erotb>  (377) 
0.436125

>  <r_i_glide_esite>  (377) 
0

>  <r_i_glide_emodel>  (377) 
-32.4744

>  <r_i_glide_energy>  (377) 
-26.0586

>  <r_i_glide_einternal>  (377) 
2.30293

>  <r_i_glide_intrahb_reward>  (377) 
-0

>  <i_i_glide_confnum>  (377) 
1

>  <i_i_glide_posenum>  (377) 
18

>  <r_i_glide_eff_state_penalty>  (377) 
0

>  <ligand_id>  (377) 
99

>  <original_smiles>  (377) 
CC1CC2C3CCOC3(C)CCC2C2(C)CCC(=NOCCCN)CC12

>  <smiles>  (377) 
[H]C([H])([H])C1([H])C([H])([H])C2([H])C3([H])C([H])([H])C([H])([H])OC3(C([H])([H])[H])C([H])([H])C([H])([H])C2([H])C2(C([H])([H])[H])C([H])([H])C([H])([H])C(=NOC([H])([H])C([H])([H])C([H])([H])[N+]([H])([H])[H])C([H])([H])C12[H]

$$$$
99:1:1
     RDKit          3D

 65 68  0  0  1  0  0  0  0  0999 V2000
    4.7899   -6.6792    3.1283 C   0  0  0  0  0  0  0  0  0  0  0  0
    3.6283   -7.3038    3.9238 C   0  0  2  0  0  0  0  0  0  0  0  0
    4.1668   -7.8565    5.2482 C   0  0  0  0  0  0  0  0  0  0  0  0
    3.0543   -8.3151    6.1959 C   0  0  1  0  0  0  0  0  0  0  0  0
    2.5470   -7.2137    7.1740 C   0  0  1  0  0  0  0  0  0  0  0  0
    2.1684   -5.8480    6.6382 C   0  0  0  0  0  0  0  0  0  0  0  0
    1.4266   -5.2599    7.8313 C   0  0  0  0  0  0  0  0  0  0  0  0
    0.7147   -6.3532    8.3997 O   0  0  0  0  0  0  0  0  0  0  0  0
    1.3220   -7.5937    8.0263 C   0  0  2  0  0  0  0  0  0  0  0  0
    1.7053   -8.3226    9.3272 C   0  0  0  0  0  0  0  0  0  0  0  0
    0.2658   -8.3446    7.1966 C   0  0  0  0  0  0  0  0  0  0  0  0
    0.8502   -9.5672    6.4753 C   0  0  0  0  0  0  0  0  0  0  0  0
    2.0151   -9.2484    5.5055 C   0  0  1  0  0  0  0  0  0  0  0  0
    1.6412   -8.9919    3.9918 C   0  0  1  0  0  0  0  0  0  0  0  0
    1.2519  -10.3705    3.3841 C   0  0  0  0  0  0  0  0  0  0  0  0
    0.4226   -8.0356    3.8354 C   0  0  0  0  0  0  0  0  0  0  0  0
    0.0864   -7.6513    2.3828 C   0  0  0  0  0  0  0  0  0  0  0  0
    1.3009   -7.0866    1.6805 C   0  0  0  0  0  0  0  0  0  0  0  0
    1.2806   -5.9334    1.1517 N   0  0  0  0  0  0  0  0  0  0  0  0
    2.5165   -5.5416    0.6214 O   0  0  0  0  0  0  0  0  0  0  0  0
    2.3346   -4.3114   -0.0600 C   0  0  0  0  0  0  0  0  0  0  0  0
    3.6682   -3.8711   -0.6881 C   0  0  0  0  0  0  0  0  0  0  0  0
    3.5240   -2.7124   -1.6806 C   0  0  0  0  0  0  0  0  0  0  0  0
    2.5710   -3.0409   -2.7567 N   0  0  0  0  0  0  0  0  0  0  0  0
    2.4812   -8.0424    1.7228 C   0  0  0  0  0  0  0  0  0  0  0  0
    2.8696   -8.4345    3.1745 C   0  0  1  0  0  0  0  0  0  0  0  0
    5.4741   -7.4405    2.7515 H   0  0  0  0  0  0  0  0  0  0  0  0
    5.3646   -5.9895    3.7481 H   0  0  0  0  0  0  0  0  0  0  0  0
    4.4300   -6.0940    2.2829 H   0  0  0  0  0  0  0  0  0  0  0  0
    2.9354   -6.4927    4.1345 H   0  0  0  0  0  0  0  0  0  0  0  0
    4.8085   -8.7120    5.0328 H   0  0  0  0  0  0  0  0  0  0  0  0
    4.8021   -7.1242    5.7495 H   0  0  0  0  0  0  0  0  0  0  0  0
    3.5609   -8.9883    6.8865 H   0  0  0  0  0  0  0  0  0  0  0  0
    3.3730   -7.0241    7.8619 H   0  0  0  0  0  0  0  0  0  0  0  0
    3.0316   -5.2493    6.3429 H   0  0  0  0  0  0  0  0  0  0  0  0
    1.4864   -5.9080    5.7993 H   0  0  0  0  0  0  0  0  0  0  0  0
    2.1308   -4.8744    8.5708 H   0  0  0  0  0  0  0  0  0  0  0  0
    0.7470   -4.4561    7.5463 H   0  0  0  0  0  0  0  0  0  0  0  0
    2.2189   -9.2643    9.1307 H   0  0  0  0  0  0  0  0  0  0  0  0
    0.8268   -8.5413    9.9340 H   0  0  0  0  0  0  0  0  0  0  0  0
    2.3703   -7.7082    9.9332 H   0  0  0  0  0  0  0  0  0  0  0  0
   -0.5454   -8.6702    7.8492 H   0  0  0  0  0  0  0  0  0  0  0  0
   -0.1817   -7.6627    6.4800 H   0  0  0  0  0  0  0  0  0  0  0  0
    1.2201  -10.2457    7.2377 H   0  0  0  0  0  0  0  0  0  0  0  0
    0.0509  -10.1074    5.9760 H   0  0  0  0  0  0  0  0  0  0  0  0
    2.5549  -10.1973    5.4478 H   0  0  0  0  0  0  0  0  0  0  0  0
    0.9645  -10.3131    2.3371 H   0  0  0  0  0  0  0  0  0  0  0  0
    0.4117  -10.8266    3.9059 H   0  0  0  0  0  0  0  0  0  0  0  0
    2.0829  -11.0756    3.4326 H   0  0  0  0  0  0  0  0  0  0  0  0
   -0.4647   -8.4751    4.2932 H   0  0  0  0  0  0  0  0  0  0  0  0
    0.6126   -7.1171    4.3724 H   0  0  0  0  0  0  0  0  0  0  0  0
   -0.2706   -8.5139    1.8239 H   0  0  0  0  0  0  0  0  0  0  0  0
   -0.7256   -6.9249    2.3713 H   0  0  0  0  0  0  0  0  0  0  0  0
    1.5655   -4.4675   -0.8215 H   0  0  0  0  0  0  0  0  0  0  0  0
    1.9793   -3.5346    0.6239 H   0  0  0  0  0  0  0  0  0  0  0  0
    4.3447   -3.5689    0.1076 H   0  0  0  0  0  0  0  0  0  0  0  0
    4.1447   -4.7220   -1.1716 H   0  0  0  0  0  0  0  0  0  0  0  0
    3.1966   -1.8060   -1.1725 H   0  0  0  0  0  0  0  0  0  0  0  0
    4.4951   -2.4995   -2.1238 H   0  0  0  0  0  0  0  0  0  0  0  0
    2.5022   -2.2743   -3.4156 H   0  0  0  0  0  0  0  0  0  0  0  0
    1.6567   -3.1861   -2.3483 H   0  0  0  0  0  0  0  0  0  0  0  0
    2.1896   -8.9293    1.1679 H   0  0  0  0  0  0  0  0  0  0  0  0
    3.3337   -7.6608    1.1700 H   0  0  0  0  0  0  0  0  0  0  0  0
    3.5881   -9.2506    3.0670 H   0  0  0  0  0  0  0  0  0  0  0  0
    2.8501   -3.8918   -3.2291 H   0  0  0  0  0  0  0  0  0  0  0  0
  1  2  1  0
  1 27  1  0
  1 28  1  0
  1 29  1  0
  2 26  1  0
  2  3  1  0
  2 30  1  1
  3  4  1  0
  3 31  1  0
  3 32  1  0
  4 13  1  0
  4  5  1  0
  4 33  1  1
  5  9  1  0
  5  6  1  0
  5 34  1  1
  6  7  1  0
  6 35  1  0
  6 36  1  0
  7  8  1  0
  7 37  1  0
  7 38  1  0
  8  9  1  0
  9 10  1  1
  9 11  1  0
 10 39  1  0
 10 40  1  0
 10 41  1  0
 11 12  1  0
 11 42  1  0
 11 43  1  0
 12 13  1  0
 12 44  1  0
 12 45  1  0
 13 14  1  0
 13 46  1  6
 14 26  1  0
 14 15  1  6
 14 16  1  0
 15 47  1  0
 15 48  1  0
 15 49  1  0
 16 17  1  0
 16 50  1  0
 16 51  1  0
 17 18  1  0
 17 52  1  0
 17 53  1  0
 18 19  2  3
 18 25  1  0
 19 20  1  0
 20 21  1  0
 21 22  1  0
 21 54  1  0
 21 55  1  0
 22 23  1  0
 22 56  1  0
 22 57  1  0
 23 24  1  0
 23 58  1  0
 23 59  1  0
 24 60  1  0
 24 61  1  0
 24 65  1  0
 25 26  1  0
 25 62  1  0
 25 63  1  0
 26 64  1  6
M  CHG  1  24   1
M  END
>  <i_m_ct_stereo_status>  (378) 
1

>  <s_m_source_file>  (378) 
/var/tmp/pbs.5076255.sched01/tmpg_ssl3dq/162k0u29fl7.sdf

>  <i_m_source_file_index>  (378) 
20

>  <i_lp_mmshare_version>  (378) 
48012

>  <i_f3d_flags>  (378) 
0

>  <s_epik_input>  (378) 
TzFbQ0gyXVtDSDJdW0NAQEhdKFtDQEBdMTJbQ0gzXSlbQ0BIXTNbQ0BASF0oW0NIMl1bQ0gyXTIpW0NAXTQoW0NIM10pW0NASF0oW0NASF0oW0NIM10pW0NIMl0zKVtDSDJdQyhcW0NIMl1bQ0gyXTQpPU5cT1tDSDJdW0NIMl1bQ0gyXVtOSDJd

>  <s_epik_cmdline>  (378) 
J2VwaWtfcHl0aG9uJywgJy1waHQnLCAnMi4wJywgJy1waCcsICc3LjAnLCAnLXRuJywgJzgnLCAnLW1hJywgJzIwMCcsICctaW1hZScsICc8aW5maWxlLm1hZT4nLCAnLW9tYWUnLCAnPG91dGZpbGUubWFlPic=

>  <r_epik_Ionization_Penalty>  (378) 
0.00093905

>  <r_epik_Ionization_Penalty_Charging>  (378) 
0.00093898

>  <r_epik_Ionization_Penalty_Neutral>  (378) 
6.95624e-08

>  <r_epik_State_Penalty>  (378) 
0.0006095

>  <r_epik_Charging_Adjusted_Penalty>  (378) 
0.00154848

>  <i_epik_Tot_Q>  (378) 
1

>  <i_epik_Tot_abs_Q>  (378) 
1

>  <s_epik_Chemistry_Notes>  (378) 
This compound has an imine and may undergo hydrolysis.

>  <s_lp_Force_Field>  (378) 
OPLS3e

>  <r_lp_Energy>  (378) 
54.6111

>  <b_lp_Chiralities_Consistent>  (378) 
1

>  <s_lp_Variant>  (378) 
99:0-2

>  <s_i_glide_gridfile>  (378) 
pfpi4k_grid

>  <i_i_glide_lignum>  (378) 
20

>  <i_i_glide_rotatable_bonds>  (378) 
4

>  <r_i_docking_score>  (378) 
-2.84977

>  <r_i_glide_ligand_efficiency>  (378) 
-0.109607

>  <r_i_glide_ligand_efficiency_sa>  (378) 
-0.324709

>  <r_i_glide_ligand_efficiency_ln>  (378) 
-0.669259

>  <r_i_glide_gscore>  (378) 
-2.84977

>  <r_i_glide_lipo>  (378) 
-0.128455

>  <r_i_glide_hbond>  (378) 
0

>  <r_i_glide_metal>  (378) 
-0

>  <r_i_glide_rewards>  (378) 
-0.930291

>  <r_i_glide_evdw>  (378) 
-17.4987

>  <r_i_glide_ecoul>  (378) 
-7.76784

>  <r_i_glide_erotb>  (378) 
0.436125

>  <r_i_glide_esite>  (378) 
-0.187039

>  <r_i_glide_emodel>  (378) 
-30.2029

>  <r_i_glide_energy>  (378) 
-25.2665

>  <r_i_glide_einternal>  (378) 
3.00631

>  <r_i_glide_intrahb_reward>  (378) 
-0

>  <i_i_glide_confnum>  (378) 
3

>  <i_i_glide_posenum>  (378) 
9

>  <r_i_glide_eff_state_penalty>  (378) 
0

>  <ligand_id>  (378) 
99

>  <original_smiles>  (378) 
CC1CC2C3CCOC3(C)CCC2C2(C)CCC(=NOCCCN)CC12

>  <smiles>  (378) 
[H]C([H])([H])C1([H])C([H])([H])C2([H])C3([H])C([H])([H])C([H])([H])OC3(C([H])([H])[H])C([H])([H])C([H])([H])C2([H])C2(C([H])([H])[H])C([H])([H])C([H])([H])C(=NOC([H])([H])C([H])([H])C([H])([H])[N+]([H])([H])[H])C([H])([H])C12[H]

$$$$
99:1:2
     RDKit          3D

 65 68  0  0  1  0  0  0  0  0999 V2000
    2.4886   -3.9211    5.1656 C   0  0  0  0  0  0  0  0  0  0  0  0
    2.6454   -5.1881    4.3023 C   0  0  2  0  0  0  0  0  0  0  0  0
    2.5284   -6.4264    5.2051 C   0  0  0  0  0  0  0  0  0  0  0  0
    2.4726   -7.7310    4.4037 C   0  0  1  0  0  0  0  0  0  0  0  0
    1.0301   -8.1987    4.0422 C   0  0  1  0  0  0  0  0  0  0  0  0
    0.0554   -7.2164    3.4084 C   0  0  0  0  0  0  0  0  0  0  0  0
   -1.0357   -8.1632    2.9234 C   0  0  0  0  0  0  0  0  0  0  0  0
   -0.3448   -9.3248    2.4903 O   0  0  0  0  0  0  0  0  0  0  0  0
    0.9378   -9.4167    3.1097 C   0  0  2  0  0  0  0  0  0  0  0  0
    0.9923  -10.7573    3.8668 C   0  0  0  0  0  0  0  0  0  0  0  0
    1.9758   -9.3254    1.9727 C   0  0  0  0  0  0  0  0  0  0  0  0
    3.4104   -9.1270    2.4856 C   0  0  0  0  0  0  0  0  0  0  0  0
    3.5947   -7.8433    3.3405 C   0  0  1  0  0  0  0  0  0  0  0  0
    4.0590   -6.5335    2.5805 C   0  0  1  0  0  0  0  0  0  0  0  0
    5.5552   -6.7471    2.2010 C   0  0  0  0  0  0  0  0  0  0  0  0
    3.2641   -6.2905    1.2656 C   0  0  0  0  0  0  0  0  0  0  0  0
    3.5801   -4.9652    0.5499 C   0  0  0  0  0  0  0  0  0  0  0  0
    3.4346   -3.7880    1.4806 C   0  0  0  0  0  0  0  0  0  0  0  0
    2.6682   -2.8132    1.2100 N   0  0  0  0  0  0  0  0  0  0  0  0
    2.6110   -1.8538    2.2275 O   0  0  0  0  0  0  0  0  0  0  0  0
    2.0084   -0.6890    1.6963 C   0  0  0  0  0  0  0  0  0  0  0  0
    1.8853    0.3674    2.8069 C   0  0  0  0  0  0  0  0  0  0  0  0
    1.4726    1.7475    2.2636 C   0  0  0  0  0  0  0  0  0  0  0  0
    0.1654    1.7276    1.6718 N   0  0  0  0  0  0  0  0  0  0  0  0
    4.2824   -3.9507    2.7321 C   0  0  0  0  0  0  0  0  0  0  0  0
    3.9773   -5.2626    3.5061 C   0  0  1  0  0  0  0  0  0  0  0  0
    3.3546   -3.7667    5.8127 H   0  0  0  0  0  0  0  0  0  0  0  0
    1.6033   -3.9828    5.7999 H   0  0  0  0  0  0  0  0  0  0  0  0
    2.3582   -3.0293    4.5516 H   0  0  0  0  0  0  0  0  0  0  0  0
    1.8121   -5.1810    3.6036 H   0  0  0  0  0  0  0  0  0  0  0  0
    3.4036   -6.4605    5.8572 H   0  0  0  0  0  0  0  0  0  0  0  0
    1.6650   -6.3521    5.8610 H   0  0  0  0  0  0  0  0  0  0  0  0
    2.7505   -8.4942    5.1363 H   0  0  0  0  0  0  0  0  0  0  0  0
    0.5554   -8.4821    4.9855 H   0  0  0  0  0  0  0  0  0  0  0  0
   -0.3103   -6.4667    4.1062 H   0  0  0  0  0  0  0  0  0  0  0  0
    0.4892   -6.7158    2.5499 H   0  0  0  0  0  0  0  0  0  0  0  0
   -1.7079   -8.4324    3.7418 H   0  0  0  0  0  0  0  0  0  0  0  0
   -1.6291   -7.7377    2.1131 H   0  0  0  0  0  0  0  0  0  0  0  0
    1.9267  -10.8869    4.4107 H   0  0  0  0  0  0  0  0  0  0  0  0
    0.8750  -11.6039    3.1902 H   0  0  0  0  0  0  0  0  0  0  0  0
    0.1882  -10.8192    4.5997 H   0  0  0  0  0  0  0  0  0  0  0  0
    1.9403  -10.2403    1.3768 H   0  0  0  0  0  0  0  0  0  0  0  0
    1.6949   -8.5316    1.2871 H   0  0  0  0  0  0  0  0  0  0  0  0
    3.6850   -9.9934    3.0785 H   0  0  0  0  0  0  0  0  0  0  0  0
    4.0896   -9.1449    1.6349 H   0  0  0  0  0  0  0  0  0  0  0  0
    4.4752   -8.0788    3.9466 H   0  0  0  0  0  0  0  0  0  0  0  0
    5.9872   -5.9037    1.6637 H   0  0  0  0  0  0  0  0  0  0  0  0
    5.6993   -7.6191    1.5640 H   0  0  0  0  0  0  0  0  0  0  0  0
    6.1750   -6.8903    3.0893 H   0  0  0  0  0  0  0  0  0  0  0  0
    3.4244   -7.1049    0.5674 H   0  0  0  0  0  0  0  0  0  0  0  0
    2.2029   -6.2795    1.4847 H   0  0  0  0  0  0  0  0  0  0  0  0
    4.5985   -4.9740    0.1545 H   0  0  0  0  0  0  0  0  0  0  0  0
    2.9251   -4.8412   -0.3159 H   0  0  0  0  0  0  0  0  0  0  0  0
    2.6119   -0.3083    0.8670 H   0  0  0  0  0  0  0  0  0  0  0  0
    1.0156   -0.9240    1.3055 H   0  0  0  0  0  0  0  0  0  0  0  0
    1.1751    0.0245    3.5644 H   0  0  0  0  0  0  0  0  0  0  0  0
    2.8489    0.4668    3.3072 H   0  0  0  0  0  0  0  0  0  0  0  0
    1.4927    2.4706    3.0857 H   0  0  0  0  0  0  0  0  0  0  0  0
    2.2188    2.0962    1.5432 H   0  0  0  0  0  0  0  0  0  0  0  0
   -0.0397    2.6861    1.3200 H   0  0  0  0  0  0  0  0  0  0  0  0
   -0.5460    1.4763    2.3401 H   0  0  0  0  0  0  0  0  0  0  0  0
    5.3239   -3.9540    2.4091 H   0  0  0  0  0  0  0  0  0  0  0  0
    4.2290   -3.0777    3.3815 H   0  0  0  0  0  0  0  0  0  0  0  0
    4.7615   -5.3490    4.2559 H   0  0  0  0  0  0  0  0  0  0  0  0
    0.1057    1.1060    0.8728 H   0  0  0  0  0  0  0  0  0  0  0  0
  1  2  1  0
  1 27  1  0
  1 28  1  0
  1 29  1  0
  2 26  1  0
  2  3  1  0
  2 30  1  6
  3  4  1  0
  3 31  1  0
  3 32  1  0
  4 13  1  0
  4  5  1  0
  4 33  1  1
  5  9  1  0
  5  6  1  0
  5 34  1  1
  6  7  1  0
  6 35  1  0
  6 36  1  0
  7  8  1  0
  7 37  1  0
  7 38  1  0
  8  9  1  0
  9 10  1  1
  9 11  1  0
 10 39  1  0
 10 40  1  0
 10 41  1  0
 11 12  1  0
 11 42  1  0
 11 43  1  0
 12 13  1  0
 12 44  1  0
 12 45  1  0
 13 14  1  0
 13 46  1  1
 14 26  1  0
 14 15  1  6
 14 16  1  0
 15 47  1  0
 15 48  1  0
 15 49  1  0
 16 17  1  0
 16 50  1  0
 16 51  1  0
 17 18  1  0
 17 52  1  0
 17 53  1  0
 18 19  2  3
 18 25  1  0
 19 20  1  0
 20 21  1  0
 21 22  1  0
 21 54  1  0
 21 55  1  0
 22 23  1  0
 22 56  1  0
 22 57  1  0
 23 24  1  0
 23 58  1  0
 23 59  1  0
 24 60  1  0
 24 61  1  0
 24 65  1  0
 25 26  1  0
 25 62  1  0
 25 63  1  0
 26 64  1  1
M  CHG  1  24   1
M  END
>  <i_m_ct_stereo_status>  (379) 
1

>  <s_m_source_file>  (379) 
/var/tmp/pbs.5076255.sched01/tmpg_ssl3dq/162k0u29fl7.sdf

>  <i_m_source_file_index>  (379) 
20

>  <i_lp_mmshare_version>  (379) 
48012

>  <i_f3d_flags>  (379) 
0

>  <s_epik_input>  (379) 
TzFbQ0gyXVtDSDJdW0NAQEhdKFtDQEBdMTJbQ0gzXSlbQ0BIXTNbQ0BASF0oW0NIMl1bQ0gyXTIpW0NAXTQoW0NIM10pW0NASF0oW0NASF0oW0NIM10pW0NIMl0zKVtDSDJdQyhcW0NIMl1bQ0gyXTQpPU5cT1tDSDJdW0NIMl1bQ0gyXVtOSDJd

>  <s_epik_cmdline>  (379) 
J2VwaWtfcHl0aG9uJywgJy1waHQnLCAnMi4wJywgJy1waCcsICc3LjAnLCAnLXRuJywgJzgnLCAnLW1hJywgJzIwMCcsICctaW1hZScsICc8aW5maWxlLm1hZT4nLCAnLW9tYWUnLCAnPG91dGZpbGUubWFlPic=

>  <r_epik_Ionization_Penalty>  (379) 
0.00093905

>  <r_epik_Ionization_Penalty_Charging>  (379) 
0.00093898

>  <r_epik_Ionization_Penalty_Neutral>  (379) 
6.95624e-08

>  <r_epik_State_Penalty>  (379) 
0.0006095

>  <r_epik_Charging_Adjusted_Penalty>  (379) 
0.00154848

>  <i_epik_Tot_Q>  (379) 
1

>  <i_epik_Tot_abs_Q>  (379) 
1

>  <s_epik_Chemistry_Notes>  (379) 
This compound has an imine and may undergo hydrolysis.

>  <s_lp_Force_Field>  (379) 
OPLS3e

>  <r_lp_Energy>  (379) 
54.6111

>  <b_lp_Chiralities_Consistent>  (379) 
1

>  <s_lp_Variant>  (379) 
99:0-2

>  <s_i_glide_gridfile>  (379) 
pfpi4k_grid

>  <i_i_glide_lignum>  (379) 
20

>  <i_i_glide_rotatable_bonds>  (379) 
4

>  <r_i_docking_score>  (379) 
-2.83538

>  <r_i_glide_ligand_efficiency>  (379) 
-0.109053

>  <r_i_glide_ligand_efficiency_sa>  (379) 
-0.32307

>  <r_i_glide_ligand_efficiency_ln>  (379) 
-0.665881

>  <r_i_glide_gscore>  (379) 
-2.83538

>  <r_i_glide_lipo>  (379) 
-0.224831

>  <r_i_glide_hbond>  (379) 
-0.31251

>  <r_i_glide_metal>  (379) 
-0

>  <r_i_glide_rewards>  (379) 
-0.936077

>  <r_i_glide_evdw>  (379) 
-19.2688

>  <r_i_glide_ecoul>  (379) 
-4.74151

>  <r_i_glide_erotb>  (379) 
0.436125

>  <r_i_glide_esite>  (379) 
-0.123425

>  <r_i_glide_emodel>  (379) 
-29.2373

>  <r_i_glide_energy>  (379) 
-24.0103

>  <r_i_glide_einternal>  (379) 
2.74896

>  <r_i_glide_intrahb_reward>  (379) 
-0

>  <i_i_glide_confnum>  (379) 
3

>  <i_i_glide_posenum>  (379) 
10

>  <r_i_glide_eff_state_penalty>  (379) 
0

>  <ligand_id>  (379) 
99

>  <original_smiles>  (379) 
CC1CC2C3CCOC3(C)CCC2C2(C)CCC(=NOCCCN)CC12

>  <smiles>  (379) 
[H]C([H])([H])C1([H])C([H])([H])C2([H])C3([H])C([H])([H])C([H])([H])OC3(C([H])([H])[H])C([H])([H])C([H])([H])C2([H])C2(C([H])([H])[H])C([H])([H])C([H])([H])C(=NOC([H])([H])C([H])([H])C([H])([H])[N+]([H])([H])[H])C([H])([H])C12[H]

$$$$
101:0:0
     RDKit          3D

 38 41  0  0  1  0  0  0  0  0999 V2000
   -9.8339   -9.5068   -8.5718 C   0  0  0  0  0  0  0  0  0  0  0  0
   -8.4213   -9.3074   -8.2871 N   0  0  0  0  0  0  0  0  0  0  0  0
   -7.6000  -10.3331   -8.6045 N   0  0  0  0  0  0  0  0  0  0  0  0
   -6.5109  -10.2382   -7.9319 C   0  0  0  0  0  0  0  0  0  0  0  0
   -5.4572  -11.2533   -7.8791 C   0  0  0  0  0  0  0  0  0  0  0  0
   -5.3689  -12.2694   -8.8563 C   0  0  0  0  0  0  0  0  0  0  0  0
   -4.3568  -13.2434   -8.7751 C   0  0  0  0  0  0  0  0  0  0  0  0
   -3.4399  -13.2178   -7.7069 C   0  0  0  0  0  0  0  0  0  0  0  0
   -3.5380  -12.2210   -6.7184 C   0  0  0  0  0  0  0  0  0  0  0  0
   -4.5335  -11.2278   -6.8007 C   0  0  0  0  0  0  0  0  0  0  0  0
   -4.5946  -10.1453   -5.7216 C   0  0  0  0  0  0  0  0  0  0  0  0
   -5.9487   -9.4126   -5.6716 C   0  0  0  0  0  0  0  0  0  0  0  0
   -6.4333   -9.0285   -7.0711 C   0  0  2  0  0  0  0  0  0  0  0  0
   -7.8649   -8.5589   -7.1612 C   0  0  1  0  0  0  0  0  0  0  0  0
   -7.9647   -7.0424   -7.2608 C   0  0  0  0  0  0  0  0  0  0  0  0
   -8.2537   -6.4259   -8.4839 C   0  0  0  0  0  0  0  0  0  0  0  0
   -8.3806   -5.0397   -8.5535 C   0  0  0  0  0  0  0  0  0  0  0  0
   -8.2096   -4.2414   -7.4034 C   0  0  0  0  0  0  0  0  0  0  0  0
   -7.9043   -4.8437   -6.1709 C   0  0  0  0  0  0  0  0  0  0  0  0
   -7.7811   -6.2505   -6.1020 C   0  0  0  0  0  0  0  0  0  0  0  0
  -10.3363   -8.5425   -8.5409 H   0  0  0  0  0  0  0  0  0  0  0  0
  -10.2859  -10.1416   -7.8107 H   0  0  0  0  0  0  0  0  0  0  0  0
   -9.9818   -9.9438   -9.5605 H   0  0  0  0  0  0  0  0  0  0  0  0
   -6.0719  -12.2987   -9.6773 H   0  0  0  0  0  0  0  0  0  0  0  0
   -4.2896  -14.0138   -9.5277 H   0  0  0  0  0  0  0  0  0  0  0  0
   -2.6600  -13.9606   -7.6338 H   0  0  0  0  0  0  0  0  0  0  0  0
   -2.8297  -12.2010   -5.9061 H   0  0  0  0  0  0  0  0  0  0  0  0
   -4.3608  -10.5775   -4.7476 H   0  0  0  0  0  0  0  0  0  0  0  0
   -3.8084   -9.4168   -5.9188 H   0  0  0  0  0  0  0  0  0  0  0  0
   -6.7180  -10.0443   -5.2341 H   0  0  0  0  0  0  0  0  0  0  0  0
   -5.8643   -8.5314   -5.0405 H   0  0  0  0  0  0  0  0  0  0  0  0
   -5.7352   -8.3176   -7.5104 H   0  0  0  0  0  0  0  0  0  0  0  0
   -8.4258   -8.8963   -6.3045 H   0  0  0  0  0  0  0  0  0  0  0  0
   -8.3992   -6.9766   -9.4007 H   0  0  0  0  0  0  0  0  0  0  0  0
   -8.5828   -4.6510   -9.5361 H   0  0  0  0  0  0  0  0  0  0  0  0
   -8.2933   -3.1607   -7.4606 H   0  0  0  0  0  0  0  0  0  0  0  0
   -7.7732   -4.2426   -5.2800 H   0  0  0  0  0  0  0  0  0  0  0  0
   -7.5640   -6.7190   -5.1565 H   0  0  0  0  0  0  0  0  0  0  0  0
  1  2  1  0
  1 21  1  0
  1 22  1  0
  1 23  1  0
  2 14  1  0
  2  3  1  0
  3  4  2  0
  4 13  1  0
  4  5  1  0
  5 10  2  0
  5  6  1  0
  6  7  2  0
  6 24  1  0
  7  8  1  0
  7 25  1  0
  8  9  2  0
  8 26  1  0
  9 10  1  0
  9 27  1  0
 10 11  1  0
 11 12  1  0
 11 28  1  0
 11 29  1  0
 12 13  1  0
 12 30  1  0
 12 31  1  0
 13 14  1  0
 13 32  1  6
 14 15  1  0
 14 33  1  1
 15 20  1  0
 15 16  2  0
 16 17  1  0
 16 34  1  0
 17 18  2  0
 17 35  1  0
 18 19  1  0
 18 36  1  0
 19 20  2  0
 19 37  1  0
 20 38  1  0
M  END
>  <i_m_ct_stereo_status>  (380) 
1

>  <s_m_source_file>  (380) 
/var/tmp/pbs.5076255.sched01/tmpg_ssl3dq/162k0u29fl7.sdf

>  <i_m_source_file_index>  (380) 
22

>  <i_lp_mmshare_version>  (380) 
48012

>  <i_f3d_flags>  (380) 
0

>  <s_epik_input>  (380) 
W2NIXTFbY0hdW2NIXVtjSF1bY0hdYzFbQ0BASF0oTihOPTIpW0NIM10pW0NASF0zW0NIMl1bQ0gyXWMoYzRDMjMpW2NIXVtjSF1bY0hdW2NIXTQ=

>  <s_epik_cmdline>  (380) 
J2VwaWtfcHl0aG9uJywgJy1waHQnLCAnMi4wJywgJy1waCcsICc3LjAnLCAnLXRuJywgJzgnLCAnLW1hJywgJzIwMCcsICctaW1hZScsICc8aW5maWxlLm1hZT4nLCAnLW9tYWUnLCAnPG91dGZpbGUubWFlPic=

>  <r_epik_Ionization_Penalty>  (380) 
0.000496159

>  <r_epik_Ionization_Penalty_Charging>  (380) 
0

>  <r_epik_Ionization_Penalty_Neutral>  (380) 
0.000496159

>  <r_epik_State_Penalty>  (380) 
0.000307203

>  <r_epik_Charging_Adjusted_Penalty>  (380) 
0.000307203

>  <i_epik_Tot_Q>  (380) 
0

>  <i_epik_Tot_abs_Q>  (380) 
0

>  <s_epik_Chemistry_Notes>  (380) 
This compound has an imine and may undergo hydrolysis.

>  <s_lp_Force_Field>  (380) 
OPLS3e

>  <r_lp_Energy>  (380) 
28.4856

>  <b_lp_Chiralities_Consistent>  (380) 
1

>  <s_lp_Variant>  (380) 
101:0-1

>  <s_i_glide_gridfile>  (380) 
pfpi4k_grid

>  <i_i_glide_lignum>  (380) 
22

>  <i_i_glide_rotatable_bonds>  (380) 
1

>  <r_i_docking_score>  (380) 
-5.16939

>  <r_i_glide_ligand_efficiency>  (380) 
-0.258469

>  <r_i_glide_ligand_efficiency_sa>  (380) 
-0.701594

>  <r_i_glide_ligand_efficiency_ln>  (380) 
-1.29373

>  <r_i_glide_gscore>  (380) 
-5.16939

>  <r_i_glide_lipo>  (380) 
-1.88422

>  <r_i_glide_hbond>  (380) 
0

>  <r_i_glide_metal>  (380) 
-0

>  <r_i_glide_rewards>  (380) 
-2.34816

>  <r_i_glide_evdw>  (380) 
-21.2467

>  <r_i_glide_ecoul>  (380) 
-0.882642

>  <r_i_glide_erotb>  (380) 
0.257727

>  <r_i_glide_esite>  (380) 
0

>  <r_i_glide_emodel>  (380) 
-27.6293

>  <r_i_glide_energy>  (380) 
-22.1293

>  <r_i_glide_einternal>  (380) 
0.97982

>  <r_i_glide_intrahb_reward>  (380) 
-0

>  <i_i_glide_confnum>  (380) 
1

>  <i_i_glide_posenum>  (380) 
9

>  <r_i_glide_eff_state_penalty>  (380) 
0

>  <ligand_id>  (380) 
101

>  <original_smiles>  (380) 
CN1N=C2c3ccccc3CCC2C1c1ccccc1

>  <smiles>  (380) 
[H]c1c([H])c([H])c(C2([H])N(C([H])([H])[H])N=C3c4c([H])c([H])c([H])c([H])c4C([H])([H])C([H])([H])C32[H])c([H])c1[H]

$$$$
101:0:1
     RDKit          3D

 38 41  0  0  1  0  0  0  0  0999 V2000
    0.7599    4.8993    5.1074 C   0  0  0  0  0  0  0  0  0  0  0  0
   -0.0975    4.4021    4.0474 N   0  0  0  0  0  0  0  0  0  0  0  0
   -0.8320    5.3462    3.4060 N   0  0  0  0  0  0  0  0  0  0  0  0
   -1.8612    4.8256    2.8540 C   0  0  0  0  0  0  0  0  0  0  0  0
   -2.9254    5.5422    2.0929 C   0  0  0  0  0  0  0  0  0  0  0  0
   -2.7408    6.8579    1.6187 C   0  0  0  0  0  0  0  0  0  0  0  0
   -3.8030    7.5535    1.0065 C   0  0  0  0  0  0  0  0  0  0  0  0
   -5.0477    6.9195    0.8314 C   0  0  0  0  0  0  0  0  0  0  0  0
   -5.2368    5.5981    1.2846 C   0  0  0  0  0  0  0  0  0  0  0  0
   -4.1834    4.9059    1.9269 C   0  0  0  0  0  0  0  0  0  0  0  0
   -4.3720    3.4588    2.3741 C   0  0  0  0  0  0  0  0  0  0  0  0
   -3.3596    2.9807    3.4690 C   0  0  0  0  0  0  0  0  0  0  0  0
   -1.9466    3.3679    3.0608 C   0  0  2  0  0  0  0  0  0  0  0  0
   -0.8747    3.1757    4.1210 C   0  0  1  0  0  0  0  0  0  0  0  0
   -0.0498    1.9170    3.9146 C   0  0  0  0  0  0  0  0  0  0  0  0
    0.7072    1.7261    2.7356 C   0  0  0  0  0  0  0  0  0  0  0  0
    1.4643    0.5521    2.5616 C   0  0  0  0  0  0  0  0  0  0  0  0
    1.4791   -0.4285    3.5764 C   0  0  0  0  0  0  0  0  0  0  0  0
    0.7345   -0.2381    4.7627 C   0  0  0  0  0  0  0  0  0  0  0  0
   -0.0317    0.9341    4.9264 C   0  0  0  0  0  0  0  0  0  0  0  0
    1.4534    4.1114    5.4005 H   0  0  0  0  0  0  0  0  0  0  0  0
    0.1449    5.1538    5.9684 H   0  0  0  0  0  0  0  0  0  0  0  0
    1.3276    5.7718    4.7782 H   0  0  0  0  0  0  0  0  0  0  0  0
   -1.7888    7.3404    1.7602 H   0  0  0  0  0  0  0  0  0  0  0  0
   -3.6479    8.5760    0.6875 H   0  0  0  0  0  0  0  0  0  0  0  0
   -5.8552    7.4433    0.3321 H   0  0  0  0  0  0  0  0  0  0  0  0
   -6.1877    5.1097    1.1242 H   0  0  0  0  0  0  0  0  0  0  0  0
   -5.3987    3.3870    2.6977 H   0  0  0  0  0  0  0  0  0  0  0  0
   -4.3026    2.8223    1.4891 H   0  0  0  0  0  0  0  0  0  0  0  0
   -3.5920    3.3362    4.4692 H   0  0  0  0  0  0  0  0  0  0  0  0
   -3.3630    1.9197    3.6747 H   0  0  0  0  0  0  0  0  0  0  0  0
   -1.7000    2.8726    2.1168 H   0  0  0  0  0  0  0  0  0  0  0  0
   -1.3394    3.1565    5.1084 H   0  0  0  0  0  0  0  0  0  0  0  0
    0.7047    2.4877    1.9704 H   0  0  0  0  0  0  0  0  0  0  0  0
    2.0287    0.4118    1.6498 H   0  0  0  0  0  0  0  0  0  0  0  0
    2.0620   -1.3289    3.4478 H   0  0  0  0  0  0  0  0  0  0  0  0
    0.7506   -0.9764    5.5466 H   0  0  0  0  0  0  0  0  0  0  0  0
   -0.5901    1.0980    5.8341 H   0  0  0  0  0  0  0  0  0  0  0  0
  1  2  1  0
  1 21  1  0
  1 22  1  0
  1 23  1  0
  2 14  1  0
  2  3  1  0
  3  4  2  0
  4 13  1  0
  4  5  1  0
  5 10  2  0
  5  6  1  0
  6  7  2  0
  6 24  1  0
  7  8  1  0
  7 25  1  0
  8  9  2  0
  8 26  1  0
  9 10  1  0
  9 27  1  0
 10 11  1  0
 11 12  1  0
 11 28  1  0
 11 29  1  0
 12 13  1  0
 12 30  1  0
 12 31  1  0
 13 14  1  0
 13 32  1  6
 14 15  1  0
 14 33  1  1
 15 20  1  0
 15 16  2  0
 16 17  1  0
 16 34  1  0
 17 18  2  0
 17 35  1  0
 18 19  1  0
 18 36  1  0
 19 20  2  0
 19 37  1  0
 20 38  1  0
M  END
>  <i_m_ct_stereo_status>  (381) 
1

>  <s_m_source_file>  (381) 
/var/tmp/pbs.5076255.sched01/tmpg_ssl3dq/162k0u29fl7.sdf

>  <i_m_source_file_index>  (381) 
22

>  <i_lp_mmshare_version>  (381) 
48012

>  <i_f3d_flags>  (381) 
0

>  <s_epik_input>  (381) 
W2NIXTFbY0hdW2NIXVtjSF1bY0hdYzFbQ0BASF0oTihOPTIpW0NIM10pW0NASF0zW0NIMl1bQ0gyXWMoYzRDMjMpW2NIXVtjSF1bY0hdW2NIXTQ=

>  <s_epik_cmdline>  (381) 
J2VwaWtfcHl0aG9uJywgJy1waHQnLCAnMi4wJywgJy1waCcsICc3LjAnLCAnLXRuJywgJzgnLCAnLW1hJywgJzIwMCcsICctaW1hZScsICc8aW5maWxlLm1hZT4nLCAnLW9tYWUnLCAnPG91dGZpbGUubWFlPic=

>  <r_epik_Ionization_Penalty>  (381) 
0.000496159

>  <r_epik_Ionization_Penalty_Charging>  (381) 
0

>  <r_epik_Ionization_Penalty_Neutral>  (381) 
0.000496159

>  <r_epik_State_Penalty>  (381) 
0.000307203

>  <r_epik_Charging_Adjusted_Penalty>  (381) 
0.000307203

>  <i_epik_Tot_Q>  (381) 
0

>  <i_epik_Tot_abs_Q>  (381) 
0

>  <s_epik_Chemistry_Notes>  (381) 
This compound has an imine and may undergo hydrolysis.

>  <s_lp_Force_Field>  (381) 
OPLS3e

>  <r_lp_Energy>  (381) 
28.4856

>  <b_lp_Chiralities_Consistent>  (381) 
1

>  <s_lp_Variant>  (381) 
101:0-1

>  <s_i_glide_gridfile>  (381) 
pfpi4k_grid

>  <i_i_glide_lignum>  (381) 
22

>  <i_i_glide_rotatable_bonds>  (381) 
1

>  <r_i_docking_score>  (381) 
-2.94505

>  <r_i_glide_ligand_efficiency>  (381) 
-0.147253

>  <r_i_glide_ligand_efficiency_sa>  (381) 
-0.399705

>  <r_i_glide_ligand_efficiency_ln>  (381) 
-0.73705

>  <r_i_glide_gscore>  (381) 
-2.94505

>  <r_i_glide_lipo>  (381) 
-0.750927

>  <r_i_glide_hbond>  (381) 
-0.134576

>  <r_i_glide_metal>  (381) 
-0

>  <r_i_glide_rewards>  (381) 
-1.62035

>  <r_i_glide_evdw>  (381) 
-3.35876

>  <r_i_glide_ecoul>  (381) 
-2.31266

>  <r_i_glide_erotb>  (381) 
0.257727

>  <r_i_glide_esite>  (381) 
-0.182092

>  <r_i_glide_emodel>  (381) 
-9.01337

>  <r_i_glide_energy>  (381) 
-5.67142

>  <r_i_glide_einternal>  (381) 
0.160767

>  <r_i_glide_intrahb_reward>  (381) 
-0

>  <i_i_glide_confnum>  (381) 
2

>  <i_i_glide_posenum>  (381) 
38

>  <r_i_glide_eff_state_penalty>  (381) 
0

>  <ligand_id>  (381) 
101

>  <original_smiles>  (381) 
CN1N=C2c3ccccc3CCC2C1c1ccccc1

>  <smiles>  (381) 
[H]c1c([H])c([H])c(C2([H])N(C([H])([H])[H])N=C3c4c([H])c([H])c([H])c([H])c4C([H])([H])C([H])([H])C32[H])c([H])c1[H]

$$$$
101:0:2
     RDKit          3D

 38 41  0  0  1  0  0  0  0  0999 V2000
    0.2401   -0.7847    8.8185 C   0  0  0  0  0  0  0  0  0  0  0  0
   -0.0091   -0.0178    7.6021 N   0  0  0  0  0  0  0  0  0  0  0  0
    0.3776   -0.6217    6.4456 N   0  0  0  0  0  0  0  0  0  0  0  0
    0.6419    0.2671    5.5520 C   0  0  0  0  0  0  0  0  0  0  0  0
    1.2350    0.0225    4.2298 C   0  0  0  0  0  0  0  0  0  0  0  0
    1.2974   -1.2769    3.6795 C   0  0  0  0  0  0  0  0  0  0  0  0
    1.8907   -1.4802    2.4199 C   0  0  0  0  0  0  0  0  0  0  0  0
    2.4232   -0.3921    1.7030 C   0  0  0  0  0  0  0  0  0  0  0  0
    2.3648    0.9042    2.2448 C   0  0  0  0  0  0  0  0  0  0  0  0
    1.7787    1.1210    3.5075 C   0  0  0  0  0  0  0  0  0  0  0  0
    1.7412    2.5440    4.0641 C   0  0  0  0  0  0  0  0  0  0  0  0
    1.5353    2.5886    5.5900 C   0  0  0  0  0  0  0  0  0  0  0  0
    0.3899    1.6567    6.0036 C   0  0  2  0  0  0  0  0  0  0  0  0
    0.2077    1.4210    7.4947 C   0  0  1  0  0  0  0  0  0  0  0  0
   -0.9286    2.2198    8.1026 C   0  0  0  0  0  0  0  0  0  0  0  0
   -2.2193    2.1914    7.5337 C   0  0  0  0  0  0  0  0  0  0  0  0
   -3.2566    2.9477    8.1005 C   0  0  0  0  0  0  0  0  0  0  0  0
   -3.0103    3.7158    9.2560 C   0  0  0  0  0  0  0  0  0  0  0  0
   -1.7362    3.7204    9.8509 C   0  0  0  0  0  0  0  0  0  0  0  0
   -0.6949    2.9705    9.2714 C   0  0  0  0  0  0  0  0  0  0  0  0
   -0.3271   -0.3495    9.6426 H   0  0  0  0  0  0  0  0  0  0  0  0
    1.2969   -0.7320    9.0792 H   0  0  0  0  0  0  0  0  0  0  0  0
   -0.0462   -1.8277    8.6986 H   0  0  0  0  0  0  0  0  0  0  0  0
    0.8917   -2.1236    4.2155 H   0  0  0  0  0  0  0  0  0  0  0  0
    1.9337   -2.4694    1.9926 H   0  0  0  0  0  0  0  0  0  0  0  0
    2.8597   -0.5486    0.7277 H   0  0  0  0  0  0  0  0  0  0  0  0
    2.7691    1.7360    1.6897 H   0  0  0  0  0  0  0  0  0  0  0  0
    2.6602    3.0681    3.7990 H   0  0  0  0  0  0  0  0  0  0  0  0
    0.9281    3.0732    3.5641 H   0  0  0  0  0  0  0  0  0  0  0  0
    2.4567    2.2864    6.0900 H   0  0  0  0  0  0  0  0  0  0  0  0
    1.3261    3.6091    5.9123 H   0  0  0  0  0  0  0  0  0  0  0  0
   -0.5120    1.9997    5.4966 H   0  0  0  0  0  0  0  0  0  0  0  0
    1.1405    1.6496    8.0164 H   0  0  0  0  0  0  0  0  0  0  0  0
   -2.4219    1.6027    6.6542 H   0  0  0  0  0  0  0  0  0  0  0  0
   -4.2382    2.9426    7.6520 H   0  0  0  0  0  0  0  0  0  0  0  0
   -3.8000    4.3109    9.6839 H   0  0  0  0  0  0  0  0  0  0  0  0
   -1.5557    4.2901   10.7517 H   0  0  0  0  0  0  0  0  0  0  0  0
    0.2797    2.9704    9.7310 H   0  0  0  0  0  0  0  0  0  0  0  0
  1  2  1  0
  1 21  1  0
  1 22  1  0
  1 23  1  0
  2 14  1  0
  2  3  1  0
  3  4  2  0
  4 13  1  0
  4  5  1  0
  5 10  2  0
  5  6  1  0
  6  7  2  0
  6 24  1  0
  7  8  1  0
  7 25  1  0
  8  9  2  0
  8 26  1  0
  9 10  1  0
  9 27  1  0
 10 11  1  0
 11 12  1  0
 11 28  1  0
 11 29  1  0
 12 13  1  0
 12 30  1  0
 12 31  1  0
 13 14  1  0
 13 32  1  6
 14 15  1  0
 14 33  1  1
 15 20  1  0
 15 16  2  0
 16 17  1  0
 16 34  1  0
 17 18  2  0
 17 35  1  0
 18 19  1  0
 18 36  1  0
 19 20  2  0
 19 37  1  0
 20 38  1  0
M  END
>  <i_m_ct_stereo_status>  (382) 
1

>  <s_m_source_file>  (382) 
/var/tmp/pbs.5076255.sched01/tmpg_ssl3dq/162k0u29fl7.sdf

>  <i_m_source_file_index>  (382) 
22

>  <i_lp_mmshare_version>  (382) 
48012

>  <i_f3d_flags>  (382) 
0

>  <s_epik_input>  (382) 
W2NIXTFbY0hdW2NIXVtjSF1bY0hdYzFbQ0BASF0oTihOPTIpW0NIM10pW0NASF0zW0NIMl1bQ0gyXWMoYzRDMjMpW2NIXVtjSF1bY0hdW2NIXTQ=

>  <s_epik_cmdline>  (382) 
J2VwaWtfcHl0aG9uJywgJy1waHQnLCAnMi4wJywgJy1waCcsICc3LjAnLCAnLXRuJywgJzgnLCAnLW1hJywgJzIwMCcsICctaW1hZScsICc8aW5maWxlLm1hZT4nLCAnLW9tYWUnLCAnPG91dGZpbGUubWFlPic=

>  <r_epik_Ionization_Penalty>  (382) 
0.000496159

>  <r_epik_Ionization_Penalty_Charging>  (382) 
0

>  <r_epik_Ionization_Penalty_Neutral>  (382) 
0.000496159

>  <r_epik_State_Penalty>  (382) 
0.000307203

>  <r_epik_Charging_Adjusted_Penalty>  (382) 
0.000307203

>  <i_epik_Tot_Q>  (382) 
0

>  <i_epik_Tot_abs_Q>  (382) 
0

>  <s_epik_Chemistry_Notes>  (382) 
This compound has an imine and may undergo hydrolysis.

>  <s_lp_Force_Field>  (382) 
OPLS3e

>  <r_lp_Energy>  (382) 
28.4856

>  <b_lp_Chiralities_Consistent>  (382) 
1

>  <s_lp_Variant>  (382) 
101:0-1

>  <s_i_glide_gridfile>  (382) 
pfpi4k_grid

>  <i_i_glide_lignum>  (382) 
22

>  <i_i_glide_rotatable_bonds>  (382) 
1

>  <r_i_docking_score>  (382) 
-2.49906

>  <r_i_glide_ligand_efficiency>  (382) 
-0.124953

>  <r_i_glide_ligand_efficiency_sa>  (382) 
-0.339175

>  <r_i_glide_ligand_efficiency_ln>  (382) 
-0.625432

>  <r_i_glide_gscore>  (382) 
-2.49906

>  <r_i_glide_lipo>  (382) 
-0.0734482

>  <r_i_glide_hbond>  (382) 
0

>  <r_i_glide_metal>  (382) 
-0

>  <r_i_glide_rewards>  (382) 
-1.62035

>  <r_i_glide_evdw>  (382) 
-16.9589

>  <r_i_glide_ecoul>  (382) 
-1.11016

>  <r_i_glide_erotb>  (382) 
0.257727

>  <r_i_glide_esite>  (382) 
-0.0485225

>  <r_i_glide_emodel>  (382) 
-20.693

>  <r_i_glide_energy>  (382) 
-18.069

>  <r_i_glide_einternal>  (382) 
0.661241

>  <r_i_glide_intrahb_reward>  (382) 
-0

>  <i_i_glide_confnum>  (382) 
2

>  <i_i_glide_posenum>  (382) 
34

>  <r_i_glide_eff_state_penalty>  (382) 
0

>  <ligand_id>  (382) 
101

>  <original_smiles>  (382) 
CN1N=C2c3ccccc3CCC2C1c1ccccc1

>  <smiles>  (382) 
[H]c1c([H])c([H])c(C2([H])N(C([H])([H])[H])N=C3c4c([H])c([H])c([H])c([H])c4C([H])([H])C([H])([H])C32[H])c([H])c1[H]

$$$$
102:0:0
     RDKit          3D

 25 27  0  0  1  0  0  0  0  0999 V2000
    3.0313   -0.8492   -4.7118 F   0  0  0  0  0  0  0  0  0  0  0  0
    3.7595   -1.4401   -3.7428 C   0  0  0  0  0  0  0  0  0  0  0  0
    4.2395   -0.6679   -2.6787 C   0  0  0  0  0  0  0  0  0  0  0  0
    5.0309   -1.2532   -1.6655 C   0  0  0  0  0  0  0  0  0  0  0  0
    5.3594   -2.6287   -1.7284 C   0  0  0  0  0  0  0  0  0  0  0  0
    6.1387   -3.1995   -0.7453 O   0  0  0  0  0  0  0  0  0  0  0  0
    5.6430   -4.2860   -0.0942 C   0  0  0  0  0  0  0  0  0  0  0  0
    4.2872   -4.7101   -0.0070 C   0  0  0  0  0  0  0  0  0  0  0  0
    4.1018   -5.8239    0.6594 N   0  0  0  0  0  0  0  0  0  0  0  0
    5.3583   -6.1675    1.0534 N   0  0  0  0  0  0  0  0  0  0  0  0
    5.6779   -7.2685    1.7850 C   0  0  0  0  0  0  0  0  0  0  0  0
    7.0008   -7.4557    2.0955 C   0  0  0  0  0  0  0  0  0  0  0  0
    7.9475   -6.5074    1.6368 C   0  0  0  0  0  0  0  0  0  0  0  0
    7.6401   -5.4309    0.9147 N   0  0  0  0  0  0  0  0  0  0  0  0
    6.3383   -5.2400    0.6186 C   0  0  0  0  0  0  0  0  0  0  0  0
    4.8796   -3.3986   -2.8138 C   0  0  0  0  0  0  0  0  0  0  0  0
    4.0672   -2.8116   -3.8044 C   0  0  0  0  0  0  0  0  0  0  0  0
    4.0046    0.3847   -2.6785 H   0  0  0  0  0  0  0  0  0  0  0  0
    5.3798   -0.6325   -0.8518 H   0  0  0  0  0  0  0  0  0  0  0  0
    3.4339   -4.2295   -0.4565 H   0  0  0  0  0  0  0  0  0  0  0  0
    4.8717   -7.9320    2.0862 H   0  0  0  0  0  0  0  0  0  0  0  0
    7.3068   -8.3154    2.6830 H   0  0  0  0  0  0  0  0  0  0  0  0
    8.9975   -6.6453    1.8781 H   0  0  0  0  0  0  0  0  0  0  0  0
    5.1027   -4.4549   -2.8646 H   0  0  0  0  0  0  0  0  0  0  0  0
    3.6914   -3.4173   -4.6104 H   0  0  0  0  0  0  0  0  0  0  0  0
  1  2  1  0
  2 17  2  0
  2  3  1  0
  3  4  2  0
  3 18  1  0
  4  5  1  0
  4 19  1  0
  5  6  1  0
  5 16  2  0
  6  7  1  0
  7 15  2  0
  7  8  1  0
  8  9  2  0
  8 20  1  0
  9 10  1  0
 10 15  1  0
 10 11  1  0
 11 12  2  0
 11 21  1  0
 12 13  1  0
 12 22  1  0
 13 14  2  0
 13 23  1  0
 14 15  1  0
 16 17  1  0
 16 24  1  0
 17 25  1  0
M  END
>  <i_m_ct_stereo_status>  (383) 
1

>  <s_m_source_file>  (383) 
/var/tmp/pbs.5076255.sched01/tmpg_ssl3dq/162k0u29fl7.sdf

>  <i_m_source_file_index>  (383) 
23

>  <i_lp_mmshare_version>  (383) 
48012

>  <i_f3d_flags>  (383) 
0

>  <s_epik_input>  (383) 
RmMxW2NIXVtjSF1jKFtjSF1bY0hdMSlPYyhbY0hdbjIpYyhuMjMpbltjSF1bY0hdW2NIXTM=

>  <s_epik_cmdline>  (383) 
J2VwaWtfcHl0aG9uJywgJy1waHQnLCAnMi4wJywgJy1waCcsICc3LjAnLCAnLXRuJywgJzgnLCAnLW1hJywgJzIwMCcsICctaW1hZScsICc8aW5maWxlLm1hZT4nLCAnLW9tYWUnLCAnPG91dGZpbGUubWFlPic=

>  <r_lp_tautomer_probability>  (383) 
1

>  <r_epik_Ionization_Penalty>  (383) 
3.15824e-10

>  <r_epik_Ionization_Penalty_Charging>  (383) 
0

>  <r_epik_Ionization_Penalty_Neutral>  (383) 
3.15824e-10

>  <r_epik_State_Penalty>  (383) 
-0

>  <r_epik_Charging_Adjusted_Penalty>  (383) 
0

>  <i_epik_Tot_Q>  (383) 
0

>  <i_epik_Tot_abs_Q>  (383) 
0

>  <s_lp_Force_Field>  (383) 
OPLS3e

>  <r_lp_Energy>  (383) 
28.629

>  <b_lp_Chiralities_Consistent>  (383) 
1

>  <s_lp_Variant>  (383) 
102:0-1

>  <s_i_glide_gridfile>  (383) 
pfpi4k_grid

>  <i_i_glide_lignum>  (383) 
23

>  <i_i_glide_rotatable_bonds>  (383) 
2

>  <r_i_docking_score>  (383) 
-3.75653

>  <r_i_glide_ligand_efficiency>  (383) 
-0.220973

>  <r_i_glide_ligand_efficiency_sa>  (383) 
-0.568183

>  <r_i_glide_ligand_efficiency_ln>  (383) 
-0.979996

>  <r_i_glide_gscore>  (383) 
-3.75653

>  <r_i_glide_lipo>  (383) 
-0.698655

>  <r_i_glide_hbond>  (383) 
0

>  <r_i_glide_metal>  (383) 
-0

>  <r_i_glide_rewards>  (383) 
-2.23943

>  <r_i_glide_evdw>  (383) 
-24.7064

>  <r_i_glide_ecoul>  (383) 
-1.55001

>  <r_i_glide_erotb>  (383) 
0.649367

>  <r_i_glide_esite>  (383) 
0

>  <r_i_glide_emodel>  (383) 
-32.5695

>  <r_i_glide_energy>  (383) 
-26.2564

>  <r_i_glide_einternal>  (383) 
0.826335

>  <r_i_glide_intrahb_reward>  (383) 
-0

>  <i_i_glide_confnum>  (383) 
3

>  <i_i_glide_posenum>  (383) 
3

>  <r_i_glide_eff_state_penalty>  (383) 
0

>  <ligand_id>  (383) 
102

>  <original_smiles>  (383) 
Fc1ccc(Oc2cnn3cccnc23)cc1

>  <smiles>  (383) 
[H]c1nc2c(Oc3c([H])c([H])c(F)c([H])c3[H])c([H])nn2c([H])c1[H]

$$$$
102:0:1
     RDKit          3D

 25 27  0  0  1  0  0  0  0  0999 V2000
    6.6190   -9.4402    1.6386 F   0  0  0  0  0  0  0  0  0  0  0  0
    6.3663   -8.1135    1.5838 C   0  0  0  0  0  0  0  0  0  0  0  0
    7.4005   -7.1831    1.8081 C   0  0  0  0  0  0  0  0  0  0  0  0
    7.1356   -5.7979    1.7324 C   0  0  0  0  0  0  0  0  0  0  0  0
    5.8325   -5.3444    1.4151 C   0  0  0  0  0  0  0  0  0  0  0  0
    5.5280   -4.0096    1.3646 O   0  0  0  0  0  0  0  0  0  0  0  0
    5.6045   -3.4062    0.1596 C   0  0  0  0  0  0  0  0  0  0  0  0
    6.7553   -2.8229   -0.4320 C   0  0  0  0  0  0  0  0  0  0  0  0
    6.5405   -2.2614   -1.5971 N   0  0  0  0  0  0  0  0  0  0  0  0
    5.2052   -2.4738   -1.8165 N   0  0  0  0  0  0  0  0  0  0  0  0
    4.4977   -2.0777   -2.9101 C   0  0  0  0  0  0  0  0  0  0  0  0
    3.1632   -2.3855   -2.9473 C   0  0  0  0  0  0  0  0  0  0  0  0
    2.6000   -3.0741   -1.8470 C   0  0  0  0  0  0  0  0  0  0  0  0
    3.2790   -3.4561   -0.7697 N   0  0  0  0  0  0  0  0  0  0  0  0
    4.5935   -3.1681   -0.7442 C   0  0  0  0  0  0  0  0  0  0  0  0
    4.8063   -6.2814    1.1955 C   0  0  0  0  0  0  0  0  0  0  0  0
    5.0707   -7.6603    1.2768 C   0  0  0  0  0  0  0  0  0  0  0  0
    8.3944   -7.5379    2.0411 H   0  0  0  0  0  0  0  0  0  0  0  0
    7.9347   -5.0948    1.9279 H   0  0  0  0  0  0  0  0  0  0  0  0
    7.7488   -2.7845   -0.0106 H   0  0  0  0  0  0  0  0  0  0  0  0
    5.0161   -1.5331   -3.6873 H   0  0  0  0  0  0  0  0  0  0  0  0
    2.5429   -2.0959   -3.7899 H   0  0  0  0  0  0  0  0  0  0  0  0
    1.5437   -3.3225   -1.8655 H   0  0  0  0  0  0  0  0  0  0  0  0
    3.8132   -5.9246    0.9704 H   0  0  0  0  0  0  0  0  0  0  0  0
    4.2767   -8.3681    1.1031 H   0  0  0  0  0  0  0  0  0  0  0  0
  1  2  1  0
  2 17  2  0
  2  3  1  0
  3  4  2  0
  3 18  1  0
  4  5  1  0
  4 19  1  0
  5  6  1  0
  5 16  2  0
  6  7  1  0
  7 15  2  0
  7  8  1  0
  8  9  2  0
  8 20  1  0
  9 10  1  0
 10 15  1  0
 10 11  1  0
 11 12  2  0
 11 21  1  0
 12 13  1  0
 12 22  1  0
 13 14  2  0
 13 23  1  0
 14 15  1  0
 16 17  1  0
 16 24  1  0
 17 25  1  0
M  END
>  <i_m_ct_stereo_status>  (384) 
1

>  <s_m_source_file>  (384) 
/var/tmp/pbs.5076255.sched01/tmpg_ssl3dq/162k0u29fl7.sdf

>  <i_m_source_file_index>  (384) 
23

>  <i_lp_mmshare_version>  (384) 
48012

>  <i_f3d_flags>  (384) 
0

>  <s_epik_input>  (384) 
RmMxW2NIXVtjSF1jKFtjSF1bY0hdMSlPYyhbY0hdbjIpYyhuMjMpbltjSF1bY0hdW2NIXTM=

>  <s_epik_cmdline>  (384) 
J2VwaWtfcHl0aG9uJywgJy1waHQnLCAnMi4wJywgJy1waCcsICc3LjAnLCAnLXRuJywgJzgnLCAnLW1hJywgJzIwMCcsICctaW1hZScsICc8aW5maWxlLm1hZT4nLCAnLW9tYWUnLCAnPG91dGZpbGUubWFlPic=

>  <r_lp_tautomer_probability>  (384) 
1

>  <r_epik_Ionization_Penalty>  (384) 
3.15824e-10

>  <r_epik_Ionization_Penalty_Charging>  (384) 
0

>  <r_epik_Ionization_Penalty_Neutral>  (384) 
3.15824e-10

>  <r_epik_State_Penalty>  (384) 
-0

>  <r_epik_Charging_Adjusted_Penalty>  (384) 
0

>  <i_epik_Tot_Q>  (384) 
0

>  <i_epik_Tot_abs_Q>  (384) 
0

>  <s_lp_Force_Field>  (384) 
OPLS3e

>  <r_lp_Energy>  (384) 
28.629

>  <b_lp_Chiralities_Consistent>  (384) 
1

>  <s_lp_Variant>  (384) 
102:0-1

>  <s_i_glide_gridfile>  (384) 
pfpi4k_grid

>  <i_i_glide_lignum>  (384) 
23

>  <i_i_glide_rotatable_bonds>  (384) 
2

>  <r_i_docking_score>  (384) 
-3.4473

>  <r_i_glide_ligand_efficiency>  (384) 
-0.202782

>  <r_i_glide_ligand_efficiency_sa>  (384) 
-0.52141

>  <r_i_glide_ligand_efficiency_ln>  (384) 
-0.899323

>  <r_i_glide_gscore>  (384) 
-3.4473

>  <r_i_glide_lipo>  (384) 
-0.595984

>  <r_i_glide_hbond>  (384) 
-0.153037

>  <r_i_glide_metal>  (384) 
-0

>  <r_i_glide_rewards>  (384) 
-1.92914

>  <r_i_glide_evdw>  (384) 
-22.6056

>  <r_i_glide_ecoul>  (384) 
-1.89061

>  <r_i_glide_erotb>  (384) 
0.649367

>  <r_i_glide_esite>  (384) 
-0.00462761

>  <r_i_glide_emodel>  (384) 
-30.2751

>  <r_i_glide_energy>  (384) 
-24.4962

>  <r_i_glide_einternal>  (384) 
0.983207

>  <r_i_glide_intrahb_reward>  (384) 
-0

>  <i_i_glide_confnum>  (384) 
5

>  <i_i_glide_posenum>  (384) 
4

>  <r_i_glide_eff_state_penalty>  (384) 
0

>  <ligand_id>  (384) 
102

>  <original_smiles>  (384) 
Fc1ccc(Oc2cnn3cccnc23)cc1

>  <smiles>  (384) 
[H]c1nc2c(Oc3c([H])c([H])c(F)c([H])c3[H])c([H])nn2c([H])c1[H]

$$$$
102:0:2
     RDKit          3D

 25 27  0  0  1  0  0  0  0  0999 V2000
    6.6308   -2.2367   -1.5477 F   0  0  0  0  0  0  0  0  0  0  0  0
    5.5494   -2.8033   -0.9711 C   0  0  0  0  0  0  0  0  0  0  0  0
    4.3136   -2.8347   -1.6455 C   0  0  0  0  0  0  0  0  0  0  0  0
    3.1887   -3.4497   -1.0486 C   0  0  0  0  0  0  0  0  0  0  0  0
    3.2977   -4.0469    0.2328 C   0  0  0  0  0  0  0  0  0  0  0  0
    2.2219   -4.7023    0.7866 O   0  0  0  0  0  0  0  0  0  0  0  0
    2.3209   -5.9943    1.2002 C   0  0  0  0  0  0  0  0  0  0  0  0
    3.4735   -6.8444    1.2067 C   0  0  0  0  0  0  0  0  0  0  0  0
    3.2822   -8.0413    1.6936 N   0  0  0  0  0  0  0  0  0  0  0  0
    1.9614   -8.0380    2.0101 N   0  0  0  0  0  0  0  0  0  0  0  0
    1.3083   -9.0939    2.5446 C   0  0  0  0  0  0  0  0  0  0  0  0
   -0.0214   -8.9339    2.8049 C   0  0  0  0  0  0  0  0  0  0  0  0
   -0.6333   -7.6930    2.4792 C   0  0  0  0  0  0  0  0  0  0  0  0
    0.0020   -6.6553    1.9512 N   0  0  0  0  0  0  0  0  0  0  0  0
    1.3279   -6.8013    1.7083 C   0  0  0  0  0  0  0  0  0  0  0  0
    4.5284   -3.9461    0.9237 C   0  0  0  0  0  0  0  0  0  0  0  0
    5.6553   -3.3673    0.3110 C   0  0  0  0  0  0  0  0  0  0  0  0
    4.2278   -2.3972   -2.6224 H   0  0  0  0  0  0  0  0  0  0  0  0
    2.2534   -3.4870   -1.5876 H   0  0  0  0  0  0  0  0  0  0  0  0
    4.4664   -6.6212    0.8555 H   0  0  0  0  0  0  0  0  0  0  0  0
    1.8856   -9.9987    2.7193 H   0  0  0  0  0  0  0  0  0  0  0  0
   -0.5840   -9.7599    3.2282 H   0  0  0  0  0  0  0  0  0  0  0  0
   -1.6997   -7.5773    2.6753 H   0  0  0  0  0  0  0  0  0  0  0  0
    4.6239   -4.3568    1.9140 H   0  0  0  0  0  0  0  0  0  0  0  0
    6.5938   -3.3772    0.8242 H   0  0  0  0  0  0  0  0  0  0  0  0
  1  2  1  0
  2 17  2  0
  2  3  1  0
  3  4  2  0
  3 18  1  0
  4  5  1  0
  4 19  1  0
  5  6  1  0
  5 16  2  0
  6  7  1  0
  7 15  2  0
  7  8  1  0
  8  9  2  0
  8 20  1  0
  9 10  1  0
 10 15  1  0
 10 11  1  0
 11 12  2  0
 11 21  1  0
 12 13  1  0
 12 22  1  0
 13 14  2  0
 13 23  1  0
 14 15  1  0
 16 17  1  0
 16 24  1  0
 17 25  1  0
M  END
>  <i_m_ct_stereo_status>  (385) 
1

>  <s_m_source_file>  (385) 
/var/tmp/pbs.5076255.sched01/tmpg_ssl3dq/162k0u29fl7.sdf

>  <i_m_source_file_index>  (385) 
23

>  <i_lp_mmshare_version>  (385) 
48012

>  <i_f3d_flags>  (385) 
0

>  <s_epik_input>  (385) 
RmMxW2NIXVtjSF1jKFtjSF1bY0hdMSlPYyhbY0hdbjIpYyhuMjMpbltjSF1bY0hdW2NIXTM=

>  <s_epik_cmdline>  (385) 
J2VwaWtfcHl0aG9uJywgJy1waHQnLCAnMi4wJywgJy1waCcsICc3LjAnLCAnLXRuJywgJzgnLCAnLW1hJywgJzIwMCcsICctaW1hZScsICc8aW5maWxlLm1hZT4nLCAnLW9tYWUnLCAnPG91dGZpbGUubWFlPic=

>  <r_lp_tautomer_probability>  (385) 
1

>  <r_epik_Ionization_Penalty>  (385) 
3.15824e-10

>  <r_epik_Ionization_Penalty_Charging>  (385) 
0

>  <r_epik_Ionization_Penalty_Neutral>  (385) 
3.15824e-10

>  <r_epik_State_Penalty>  (385) 
-0

>  <r_epik_Charging_Adjusted_Penalty>  (385) 
0

>  <i_epik_Tot_Q>  (385) 
0

>  <i_epik_Tot_abs_Q>  (385) 
0

>  <s_lp_Force_Field>  (385) 
OPLS3e

>  <r_lp_Energy>  (385) 
28.629

>  <b_lp_Chiralities_Consistent>  (385) 
1

>  <s_lp_Variant>  (385) 
102:0-1

>  <s_i_glide_gridfile>  (385) 
pfpi4k_grid

>  <i_i_glide_lignum>  (385) 
23

>  <i_i_glide_rotatable_bonds>  (385) 
2

>  <r_i_docking_score>  (385) 
-3.35151

>  <r_i_glide_ligand_efficiency>  (385) 
-0.197148

>  <r_i_glide_ligand_efficiency_sa>  (385) 
-0.506922

>  <r_i_glide_ligand_efficiency_ln>  (385) 
-0.874335

>  <r_i_glide_gscore>  (385) 
-3.35151

>  <r_i_glide_lipo>  (385) 
-0.249742

>  <r_i_glide_hbond>  (385) 
-0.172568

>  <r_i_glide_metal>  (385) 
-0

>  <r_i_glide_rewards>  (385) 
-1.8463

>  <r_i_glide_evdw>  (385) 
-21.4047

>  <r_i_glide_ecoul>  (385) 
-3.49112

>  <r_i_glide_erotb>  (385) 
0.649367

>  <r_i_glide_esite>  (385) 
-0.138366

>  <r_i_glide_emodel>  (385) 
-30.1971

>  <r_i_glide_energy>  (385) 
-24.8959

>  <r_i_glide_einternal>  (385) 
0.884543

>  <r_i_glide_intrahb_reward>  (385) 
-0

>  <i_i_glide_confnum>  (385) 
3

>  <i_i_glide_posenum>  (385) 
21

>  <r_i_glide_eff_state_penalty>  (385) 
0

>  <ligand_id>  (385) 
102

>  <original_smiles>  (385) 
Fc1ccc(Oc2cnn3cccnc23)cc1

>  <smiles>  (385) 
[H]c1nc2c(Oc3c([H])c([H])c(F)c([H])c3[H])c([H])nn2c([H])c1[H]

$$$$
103:0:0
     RDKit          3D

 34 36  0  0  1  0  0  0  0  0999 V2000
    5.2567   -5.6192    1.6482 C   0  0  0  0  0  0  0  0  0  0  0  0
    4.1543   -5.0853    0.7112 C   0  0  2  0  0  0  0  0  0  0  0  0
    4.2055   -3.5337    0.5093 C   0  0  2  0  0  0  0  0  0  0  0  0
    3.0046   -2.9459   -0.3014 C   0  0  0  0  0  0  0  0  0  0  0  0
    3.2074   -3.0734   -1.7477 N   0  0  0  0  0  0  0  0  0  0  0  0
    2.2504   -2.9298   -2.6694 C   0  0  0  0  0  0  0  0  0  0  0  0
    2.8466   -3.0529   -3.8593 N   0  0  0  0  0  0  0  0  0  0  0  0
    4.1841   -3.3101   -3.6871 C   0  0  0  0  0  0  0  0  0  0  0  0
    4.4136   -3.3141   -2.3350 C   0  0  0  0  0  0  0  0  0  0  0  0
    5.6178   -3.5665   -1.4849 C   0  0  0  0  0  0  0  0  0  0  0  0
    5.4793   -3.0981   -0.0999 N   0  0  0  0  0  0  0  0  0  0  0  0
    5.6639   -1.6476   -0.0155 C   0  0  0  0  0  0  0  0  0  0  0  0
    2.8562   -5.5068    1.2165 N   0  0  0  0  0  0  0  0  0  0  0  0
    1.8150   -6.0401    0.5591 C   0  0  0  0  0  0  0  0  0  0  0  0
    0.7251   -6.2697    1.2936 N   0  0  0  0  0  0  0  0  0  0  0  0
    1.0713   -5.8600    2.5685 N   0  0  0  0  0  0  0  0  0  0  0  0
    2.3324   -5.4304    2.4509 C   0  0  0  0  0  0  0  0  0  0  0  0
    6.2562   -5.4445    1.2546 H   0  0  0  0  0  0  0  0  0  0  0  0
    5.1440   -6.6962    1.7907 H   0  0  0  0  0  0  0  0  0  0  0  0
    5.2025   -5.1601    2.6368 H   0  0  0  0  0  0  0  0  0  0  0  0
    4.2752   -5.5843   -0.2514 H   0  0  0  0  0  0  0  0  0  0  0  0
    4.1642   -3.0956    1.5084 H   0  0  0  0  0  0  0  0  0  0  0  0
    2.0515   -3.3976   -0.0499 H   0  0  0  0  0  0  0  0  0  0  0  0
    2.8927   -1.8805   -0.0965 H   0  0  0  0  0  0  0  0  0  0  0  0
    1.2104   -2.7389   -2.4896 H   0  0  0  0  0  0  0  0  0  0  0  0
    4.8640   -3.4823   -4.5068 H   0  0  0  0  0  0  0  0  0  0  0  0
    5.7975   -4.6400   -1.4695 H   0  0  0  0  0  0  0  0  0  0  0  0
    6.4867   -3.1161   -1.9661 H   0  0  0  0  0  0  0  0  0  0  0  0
    6.6663   -1.3743   -0.3494 H   0  0  0  0  0  0  0  0  0  0  0  0
    5.5638   -1.3032    1.0144 H   0  0  0  0  0  0  0  0  0  0  0  0
    4.9511   -1.0906   -0.6274 H   0  0  0  0  0  0  0  0  0  0  0  0
    1.8300   -6.2234   -0.5038 H   0  0  0  0  0  0  0  0  0  0  0  0
    2.8811   -5.0336    3.2911 H   0  0  0  0  0  0  0  0  0  0  0  0
    2.3584   -2.9599   -4.7451 H   0  0  0  0  0  0  0  0  0  0  0  0
  1  2  1  0
  1 18  1  0
  1 19  1  0
  1 20  1  0
  2  3  1  0
  2 13  1  0
  2 21  1  6
  3 11  1  0
  3  4  1  0
  3 22  1  1
  4  5  1  0
  4 23  1  0
  4 24  1  0
  5  9  1  0
  5  6  1  0
  6  7  2  0
  6 25  1  0
  7  8  1  0
  7 34  1  0
  8  9  2  0
  8 26  1  0
  9 10  1  0
 10 11  1  0
 10 27  1  0
 10 28  1  0
 11 12  1  0
 12 29  1  0
 12 30  1  0
 12 31  1  0
 13 17  1  0
 13 14  1  0
 14 15  2  0
 14 32  1  0
 15 16  1  0
 16 17  2  0
 17 33  1  0
M  CHG  1   7   1
M  END
>  <i_m_ct_stereo_status>  (386) 
1

>  <s_m_source_file>  (386) 
/var/tmp/pbs.5076255.sched01/tmpg_ssl3dq/162k0u29fl7.sdf

>  <i_m_source_file_index>  (386) 
24

>  <i_lp_mmshare_version>  (386) 
48012

>  <i_f3d_flags>  (386) 
0

>  <s_epik_input>  (386) 
W2NIXTFubltjSF1uMVtDQEhdKFtDSDNdKVtDQEhdKFtDSDJdMilOKFtDSDNdKVtDSDJdYyhuMjMpW2NIXW5bY0hdMw==

>  <s_epik_cmdline>  (386) 
J2VwaWtfcHl0aG9uJywgJy1waHQnLCAnMi4wJywgJy1waCcsICc3LjAnLCAnLXRuJywgJzgnLCAnLW1hJywgJzIwMCcsICctaW1hZScsICc8aW5maWxlLm1hZT4nLCAnLW9tYWUnLCAnPG91dGZpbGUubWFlPic=

>  <r_lp_tautomer_probability>  (386) 
1

>  <r_epik_Ionization_Penalty>  (386) 
0.270221

>  <r_epik_Ionization_Penalty_Charging>  (386) 
0

>  <r_epik_Ionization_Penalty_Neutral>  (386) 
0.270221

>  <r_epik_State_Penalty>  (386) 
0.266389

>  <r_epik_Charging_Adjusted_Penalty>  (386) 
0.266389

>  <i_epik_Tot_Q>  (386) 
1

>  <i_epik_Tot_abs_Q>  (386) 
1

>  <s_lp_Force_Field>  (386) 
OPLS3e

>  <r_lp_Energy>  (386) 
31.5179

>  <b_lp_Chiralities_Consistent>  (386) 
1

>  <s_lp_Variant>  (386) 
103:0-1

>  <s_i_glide_gridfile>  (386) 
pfpi4k_grid

>  <i_i_glide_lignum>  (386) 
24

>  <i_i_glide_rotatable_bonds>  (386) 
2

>  <r_i_docking_score>  (386) 
-3.68102

>  <r_i_glide_ligand_efficiency>  (386) 
-0.216531

>  <r_i_glide_ligand_efficiency_sa>  (386) 
-0.556761

>  <r_i_glide_ligand_efficiency_ln>  (386) 
-0.960297

>  <r_i_glide_gscore>  (386) 
-3.68102

>  <r_i_glide_lipo>  (386) 
-0.384217

>  <r_i_glide_hbond>  (386) 
0

>  <r_i_glide_metal>  (386) 
-0

>  <r_i_glide_rewards>  (386) 
-1.89717

>  <r_i_glide_evdw>  (386) 
-18.49

>  <r_i_glide_ecoul>  (386) 
-5.76432

>  <r_i_glide_erotb>  (386) 
0.630186

>  <r_i_glide_esite>  (386) 
-0.240675

>  <r_i_glide_emodel>  (386) 
-30.8594

>  <r_i_glide_energy>  (386) 
-24.2543

>  <r_i_glide_einternal>  (386) 
0.252027

>  <r_i_glide_intrahb_reward>  (386) 
-0

>  <i_i_glide_confnum>  (386) 
3

>  <i_i_glide_posenum>  (386) 
21

>  <r_i_glide_eff_state_penalty>  (386) 
0

>  <ligand_id>  (386) 
103

>  <original_smiles>  (386) 
CC(C1Cn2cncc2CN1C)n1cnnc1

>  <smiles>  (386) 
[H]c1nnc([H])n1C([H])(C([H])([H])[H])C1([H])N(C([H])([H])[H])C([H])([H])c2c([H])[n+]([H])c([H])n2C1([H])[H]

$$$$
103:0:1
     RDKit          3D

 34 36  0  0  1  0  0  0  0  0999 V2000
    4.4535   -0.4704    4.4821 C   0  0  0  0  0  0  0  0  0  0  0  0
    3.6840   -1.0752    3.2937 C   0  0  2  0  0  0  0  0  0  0  0  0
    4.2159   -0.6086    1.9013 C   0  0  2  0  0  0  0  0  0  0  0  0
    3.3603   -1.1017    0.6860 C   0  0  0  0  0  0  0  0  0  0  0  0
    3.7208   -2.4514    0.2896 N   0  0  0  0  0  0  0  0  0  0  0  0
    2.9927   -3.2092   -0.5369 C   0  0  0  0  0  0  0  0  0  0  0  0
    3.6917   -4.3337   -0.7191 N   0  0  0  0  0  0  0  0  0  0  0  0
    4.8523   -4.2996    0.0081 C   0  0  0  0  0  0  0  0  0  0  0  0
    4.8746   -3.0884    0.6515 C   0  0  0  0  0  0  0  0  0  0  0  0
    5.8257   -2.4277    1.5962 C   0  0  0  0  0  0  0  0  0  0  0  0
    5.6321   -0.9751    1.6958 N   0  0  0  0  0  0  0  0  0  0  0  0
    6.2104   -0.3004    0.5328 C   0  0  0  0  0  0  0  0  0  0  0  0
    2.2602   -0.7796    3.4456 N   0  0  0  0  0  0  0  0  0  0  0  0
    1.3287   -1.4359    4.1549 C   0  0  0  0  0  0  0  0  0  0  0  0
    0.0985   -0.9144    4.0975 N   0  0  0  0  0  0  0  0  0  0  0  0
    0.2255    0.2013    3.2924 N   0  0  0  0  0  0  0  0  0  0  0  0
    1.5210    0.2381    2.9599 C   0  0  0  0  0  0  0  0  0  0  0  0
    5.5019   -0.7666    4.4877 H   0  0  0  0  0  0  0  0  0  0  0  0
    4.0236   -0.8049    5.4267 H   0  0  0  0  0  0  0  0  0  0  0  0
    4.4063    0.6187    4.4751 H   0  0  0  0  0  0  0  0  0  0  0  0
    3.7707   -2.1588    3.3621 H   0  0  0  0  0  0  0  0  0  0  0  0
    4.1776    0.4826    1.9062 H   0  0  0  0  0  0  0  0  0  0  0  0
    2.2867   -1.1071    0.8685 H   0  0  0  0  0  0  0  0  0  0  0  0
    3.5386   -0.4684   -0.1856 H   0  0  0  0  0  0  0  0  0  0  0  0
    2.0449   -2.9582   -0.9739 H   0  0  0  0  0  0  0  0  0  0  0  0
    5.5627   -5.1180    0.0153 H   0  0  0  0  0  0  0  0  0  0  0  0
    5.6938   -2.8764    2.5812 H   0  0  0  0  0  0  0  0  0  0  0  0
    6.8421   -2.6575    1.2735 H   0  0  0  0  0  0  0  0  0  0  0  0
    7.2842   -0.4901    0.4789 H   0  0  0  0  0  0  0  0  0  0  0  0
    6.0702    0.7748    0.6154 H   0  0  0  0  0  0  0  0  0  0  0  0
    5.7658   -0.6142   -0.4136 H   0  0  0  0  0  0  0  0  0  0  0  0
    1.5458   -2.3257    4.7262 H   0  0  0  0  0  0  0  0  0  0  0  0
    1.9310    1.0063    2.3171 H   0  0  0  0  0  0  0  0  0  0  0  0
    3.4002   -5.0978   -1.3324 H   0  0  0  0  0  0  0  0  0  0  0  0
  1  2  1  0
  1 18  1  0
  1 19  1  0
  1 20  1  0
  2  3  1  0
  2 13  1  0
  2 21  1  6
  3 11  1  0
  3  4  1  0
  3 22  1  1
  4  5  1  0
  4 23  1  0
  4 24  1  0
  5  9  1  0
  5  6  1  0
  6  7  2  0
  6 25  1  0
  7  8  1  0
  7 34  1  0
  8  9  2  0
  8 26  1  0
  9 10  1  0
 10 11  1  0
 10 27  1  0
 10 28  1  0
 11 12  1  0
 12 29  1  0
 12 30  1  0
 12 31  1  0
 13 17  1  0
 13 14  1  0
 14 15  2  0
 14 32  1  0
 15 16  1  0
 16 17  2  0
 17 33  1  0
M  CHG  1   7   1
M  END
>  <i_m_ct_stereo_status>  (387) 
1

>  <s_m_source_file>  (387) 
/var/tmp/pbs.5076255.sched01/tmpg_ssl3dq/162k0u29fl7.sdf

>  <i_m_source_file_index>  (387) 
24

>  <i_lp_mmshare_version>  (387) 
48012

>  <i_f3d_flags>  (387) 
0

>  <s_epik_input>  (387) 
W2NIXTFubltjSF1uMVtDQEhdKFtDSDNdKVtDQEhdKFtDSDJdMilOKFtDSDNdKVtDSDJdYyhuMjMpW2NIXW5bY0hdMw==

>  <s_epik_cmdline>  (387) 
J2VwaWtfcHl0aG9uJywgJy1waHQnLCAnMi4wJywgJy1waCcsICc3LjAnLCAnLXRuJywgJzgnLCAnLW1hJywgJzIwMCcsICctaW1hZScsICc8aW5maWxlLm1hZT4nLCAnLW9tYWUnLCAnPG91dGZpbGUubWFlPic=

>  <r_lp_tautomer_probability>  (387) 
1

>  <r_epik_Ionization_Penalty>  (387) 
0.270221

>  <r_epik_Ionization_Penalty_Charging>  (387) 
0

>  <r_epik_Ionization_Penalty_Neutral>  (387) 
0.270221

>  <r_epik_State_Penalty>  (387) 
0.266389

>  <r_epik_Charging_Adjusted_Penalty>  (387) 
0.266389

>  <i_epik_Tot_Q>  (387) 
1

>  <i_epik_Tot_abs_Q>  (387) 
1

>  <s_lp_Force_Field>  (387) 
OPLS3e

>  <r_lp_Energy>  (387) 
31.5179

>  <b_lp_Chiralities_Consistent>  (387) 
1

>  <s_lp_Variant>  (387) 
103:0-1

>  <s_i_glide_gridfile>  (387) 
pfpi4k_grid

>  <i_i_glide_lignum>  (387) 
24

>  <i_i_glide_rotatable_bonds>  (387) 
2

>  <r_i_docking_score>  (387) 
-3.36447

>  <r_i_glide_ligand_efficiency>  (387) 
-0.19791

>  <r_i_glide_ligand_efficiency_sa>  (387) 
-0.508883

>  <r_i_glide_ligand_efficiency_ln>  (387) 
-0.877716

>  <r_i_glide_gscore>  (387) 
-3.36447

>  <r_i_glide_lipo>  (387) 
-0.323699

>  <r_i_glide_hbond>  (387) 
0

>  <r_i_glide_metal>  (387) 
-0

>  <r_i_glide_rewards>  (387) 
-1.81846

>  <r_i_glide_evdw>  (387) 
-14.4347

>  <r_i_glide_ecoul>  (387) 
-6.72523

>  <r_i_glide_erotb>  (387) 
0.630186

>  <r_i_glide_esite>  (387) 
-0.121986

>  <r_i_glide_emodel>  (387) 
-26.8202

>  <r_i_glide_energy>  (387) 
-21.1599

>  <r_i_glide_einternal>  (387) 
0.644061

>  <r_i_glide_intrahb_reward>  (387) 
-0

>  <i_i_glide_confnum>  (387) 
1

>  <i_i_glide_posenum>  (387) 
27

>  <r_i_glide_eff_state_penalty>  (387) 
0

>  <ligand_id>  (387) 
103

>  <original_smiles>  (387) 
CC(C1Cn2cncc2CN1C)n1cnnc1

>  <smiles>  (387) 
[H]c1nnc([H])n1C([H])(C([H])([H])[H])C1([H])N(C([H])([H])[H])C([H])([H])c2c([H])[n+]([H])c([H])n2C1([H])[H]

$$$$
103:0:2
     RDKit          3D

 34 36  0  0  1  0  0  0  0  0999 V2000
    4.8935   -4.6797    1.5270 C   0  0  0  0  0  0  0  0  0  0  0  0
    4.1610   -3.4625    0.9153 C   0  0  2  0  0  0  0  0  0  0  0  0
    5.1102   -2.4626    0.1774 C   0  0  2  0  0  0  0  0  0  0  0  0
    4.3675   -1.3377   -0.6220 C   0  0  0  0  0  0  0  0  0  0  0  0
    3.9306   -1.8086   -1.9412 N   0  0  0  0  0  0  0  0  0  0  0  0
    3.0546   -1.1800   -2.7347 C   0  0  0  0  0  0  0  0  0  0  0  0
    2.9866   -1.8944   -3.8661 N   0  0  0  0  0  0  0  0  0  0  0  0
    3.8109   -2.9861   -3.7852 C   0  0  0  0  0  0  0  0  0  0  0  0
    4.4167   -2.9286   -2.5551 C   0  0  0  0  0  0  0  0  0  0  0  0
    5.3806   -3.8164   -1.8402 C   0  0  0  0  0  0  0  0  0  0  0  0
    6.0590   -3.1666   -0.7107 N   0  0  0  0  0  0  0  0  0  0  0  0
    7.1354   -2.2980   -1.1744 C   0  0  0  0  0  0  0  0  0  0  0  0
    3.3936   -2.7833    1.9622 N   0  0  0  0  0  0  0  0  0  0  0  0
    3.6306   -2.6829    3.2851 C   0  0  0  0  0  0  0  0  0  0  0  0
    2.7388   -1.9641    3.9728 N   0  0  0  0  0  0  0  0  0  0  0  0
    1.8296   -1.5352    3.0265 N   0  0  0  0  0  0  0  0  0  0  0  0
    2.2730   -2.0473    1.8749 C   0  0  0  0  0  0  0  0  0  0  0  0
    5.3692   -5.3092    0.7781 H   0  0  0  0  0  0  0  0  0  0  0  0
    4.1895   -5.3106    2.0731 H   0  0  0  0  0  0  0  0  0  0  0  0
    5.6681   -4.3695    2.2303 H   0  0  0  0  0  0  0  0  0  0  0  0
    3.4362   -3.8516    0.1983 H   0  0  0  0  0  0  0  0  0  0  0  0
    5.7073   -1.9778    0.9525 H   0  0  0  0  0  0  0  0  0  0  0  0
    3.5056   -0.9259   -0.1073 H   0  0  0  0  0  0  0  0  0  0  0  0
    5.0342   -0.4925   -0.8020 H   0  0  0  0  0  0  0  0  0  0  0  0
    2.4961   -0.2898   -2.5062 H   0  0  0  0  0  0  0  0  0  0  0  0
    3.8980   -3.7170   -4.5770 H   0  0  0  0  0  0  0  0  0  0  0  0
    4.8318   -4.6849   -1.4736 H   0  0  0  0  0  0  0  0  0  0  0  0
    6.1048   -4.1833   -2.5676 H   0  0  0  0  0  0  0  0  0  0  0  0
    7.8929   -2.8644   -1.7238 H   0  0  0  0  0  0  0  0  0  0  0  0
    7.6340   -1.8201   -0.3280 H   0  0  0  0  0  0  0  0  0  0  0  0
    6.7437   -1.5315   -1.8431 H   0  0  0  0  0  0  0  0  0  0  0  0
    4.4708   -3.1558    3.7735 H   0  0  0  0  0  0  0  0  0  0  0  0
    1.7723   -1.8654    0.9371 H   0  0  0  0  0  0  0  0  0  0  0  0
    2.3774   -1.6733   -4.6479 H   0  0  0  0  0  0  0  0  0  0  0  0
  1  2  1  0
  1 18  1  0
  1 19  1  0
  1 20  1  0
  2  3  1  0
  2 13  1  0
  2 21  1  6
  3 11  1  0
  3  4  1  0
  3 22  1  1
  4  5  1  0
  4 23  1  0
  4 24  1  0
  5  9  1  0
  5  6  1  0
  6  7  2  0
  6 25  1  0
  7  8  1  0
  7 34  1  0
  8  9  2  0
  8 26  1  0
  9 10  1  0
 10 11  1  0
 10 27  1  0
 10 28  1  0
 11 12  1  0
 12 29  1  0
 12 30  1  0
 12 31  1  0
 13 17  1  0
 13 14  1  0
 14 15  2  0
 14 32  1  0
 15 16  1  0
 16 17  2  0
 17 33  1  0
M  CHG  1   7   1
M  END
>  <i_m_ct_stereo_status>  (388) 
1

>  <s_m_source_file>  (388) 
/var/tmp/pbs.5076255.sched01/tmpg_ssl3dq/162k0u29fl7.sdf

>  <i_m_source_file_index>  (388) 
24

>  <i_lp_mmshare_version>  (388) 
48012

>  <i_f3d_flags>  (388) 
0

>  <s_epik_input>  (388) 
W2NIXTFubltjSF1uMVtDQEhdKFtDSDNdKVtDQEhdKFtDSDJdMilOKFtDSDNdKVtDSDJdYyhuMjMpW2NIXW5bY0hdMw==

>  <s_epik_cmdline>  (388) 
J2VwaWtfcHl0aG9uJywgJy1waHQnLCAnMi4wJywgJy1waCcsICc3LjAnLCAnLXRuJywgJzgnLCAnLW1hJywgJzIwMCcsICctaW1hZScsICc8aW5maWxlLm1hZT4nLCAnLW9tYWUnLCAnPG91dGZpbGUubWFlPic=

>  <r_lp_tautomer_probability>  (388) 
1

>  <r_epik_Ionization_Penalty>  (388) 
0.270221

>  <r_epik_Ionization_Penalty_Charging>  (388) 
0

>  <r_epik_Ionization_Penalty_Neutral>  (388) 
0.270221

>  <r_epik_State_Penalty>  (388) 
0.266389

>  <r_epik_Charging_Adjusted_Penalty>  (388) 
0.266389

>  <i_epik_Tot_Q>  (388) 
1

>  <i_epik_Tot_abs_Q>  (388) 
1

>  <s_lp_Force_Field>  (388) 
OPLS3e

>  <r_lp_Energy>  (388) 
31.5179

>  <b_lp_Chiralities_Consistent>  (388) 
1

>  <s_lp_Variant>  (388) 
103:0-1

>  <s_i_glide_gridfile>  (388) 
pfpi4k_grid

>  <i_i_glide_lignum>  (388) 
24

>  <i_i_glide_rotatable_bonds>  (388) 
2

>  <r_i_docking_score>  (388) 
-3.11754

>  <r_i_glide_ligand_efficiency>  (388) 
-0.183385

>  <r_i_glide_ligand_efficiency_sa>  (388) 
-0.471534

>  <r_i_glide_ligand_efficiency_ln>  (388) 
-0.813297

>  <r_i_glide_gscore>  (388) 
-3.11754

>  <r_i_glide_lipo>  (388) 
-0.265511

>  <r_i_glide_hbond>  (388) 
0

>  <r_i_glide_metal>  (388) 
-0

>  <r_i_glide_rewards>  (388) 
-1.81852

>  <r_i_glide_evdw>  (388) 
-18.8526

>  <r_i_glide_ecoul>  (388) 
-3.86791

>  <r_i_glide_erotb>  (388) 
0.630186

>  <r_i_glide_esite>  (388) 
-0.140878

>  <r_i_glide_emodel>  (388) 
-27.4905

>  <r_i_glide_energy>  (388) 
-22.7205

>  <r_i_glide_einternal>  (388) 
1.52764

>  <r_i_glide_intrahb_reward>  (388) 
-0

>  <i_i_glide_confnum>  (388) 
5

>  <i_i_glide_posenum>  (388) 
2

>  <r_i_glide_eff_state_penalty>  (388) 
0

>  <ligand_id>  (388) 
103

>  <original_smiles>  (388) 
CC(C1Cn2cncc2CN1C)n1cnnc1

>  <smiles>  (388) 
[H]c1nnc([H])n1C([H])(C([H])([H])[H])C1([H])N(C([H])([H])[H])C([H])([H])c2c([H])[n+]([H])c([H])n2C1([H])[H]

$$$$
103:1:0
     RDKit          3D

 33 35  0  0  1  0  0  0  0  0999 V2000
    5.0386   -5.2669    2.3520 C   0  0  0  0  0  0  0  0  0  0  0  0
    4.1082   -4.8547    1.1902 C   0  0  2  0  0  0  0  0  0  0  0  0
    4.0359   -3.3068    0.9683 C   0  0  2  0  0  0  0  0  0  0  0  0
    3.1077   -2.8693   -0.2144 C   0  0  0  0  0  0  0  0  0  0  0  0
    3.7804   -2.9683   -1.4937 N   0  0  0  0  0  0  0  0  0  0  0  0
    3.2737   -2.9305   -2.7357 C   0  0  0  0  0  0  0  0  0  0  0  0
    4.2000   -2.9831   -3.6915 N   0  0  0  0  0  0  0  0  0  0  0  0
    5.4052   -3.0624   -2.9912 C   0  0  0  0  0  0  0  0  0  0  0  0
    5.1528   -3.0567   -1.6385 C   0  0  0  0  0  0  0  0  0  0  0  0
    6.0352   -3.1586   -0.4342 C   0  0  0  0  0  0  0  0  0  0  0  0
    5.3804   -2.7133    0.8044 N   0  0  0  0  0  0  0  0  0  0  0  0
    5.3524   -1.2514    0.8875 C   0  0  0  0  0  0  0  0  0  0  0  0
    2.7815   -5.4183    1.4129 N   0  0  0  0  0  0  0  0  0  0  0  0
    1.8842   -5.8659    0.5197 C   0  0  0  0  0  0  0  0  0  0  0  0
    0.7167   -6.2674    1.0328 N   0  0  0  0  0  0  0  0  0  0  0  0
    0.8480   -6.0781    2.3952 N   0  0  0  0  0  0  0  0  0  0  0  0
    2.0781   -5.5758    2.5515 C   0  0  0  0  0  0  0  0  0  0  0  0
    6.0770   -4.9927    2.1686 H   0  0  0  0  0  0  0  0  0  0  0  0
    5.0067   -6.3484    2.4960 H   0  0  0  0  0  0  0  0  0  0  0  0
    4.7343   -4.8025    3.2908 H   0  0  0  0  0  0  0  0  0  0  0  0
    4.4905   -5.3275    0.2828 H   0  0  0  0  0  0  0  0  0  0  0  0
    3.6128   -2.8868    1.8843 H   0  0  0  0  0  0  0  0  0  0  0  0
    2.1840   -3.4334   -0.2651 H   0  0  0  0  0  0  0  0  0  0  0  0
    2.8050   -1.8307   -0.0838 H   0  0  0  0  0  0  0  0  0  0  0  0
    2.2138   -2.8615   -2.9327 H   0  0  0  0  0  0  0  0  0  0  0  0
    6.3520   -3.1242   -3.5110 H   0  0  0  0  0  0  0  0  0  0  0  0
    6.3459   -4.1959   -0.3082 H   0  0  0  0  0  0  0  0  0  0  0  0
    6.9527   -2.5924   -0.5980 H   0  0  0  0  0  0  0  0  0  0  0  0
    6.3664   -0.8447    0.8976 H   0  0  0  0  0  0  0  0  0  0  0  0
    4.8626   -0.9275    1.8085 H   0  0  0  0  0  0  0  0  0  0  0  0
    4.8246   -0.7932    0.0474 H   0  0  0  0  0  0  0  0  0  0  0  0
    2.0742   -5.8677   -0.5416 H   0  0  0  0  0  0  0  0  0  0  0  0
    2.4662   -5.2996    3.5240 H   0  0  0  0  0  0  0  0  0  0  0  0
  1  2  1  0
  1 18  1  0
  1 19  1  0
  1 20  1  0
  2  3  1  0
  2 13  1  0
  2 21  1  6
  3 11  1  0
  3  4  1  0
  3 22  1  1
  4  5  1  0
  4 23  1  0
  4 24  1  0
  5  9  1  0
  5  6  1  0
  6  7  2  0
  6 25  1  0
  7  8  1  0
  8  9  2  0
  8 26  1  0
  9 10  1  0
 10 11  1  0
 10 27  1  0
 10 28  1  0
 11 12  1  0
 12 29  1  0
 12 30  1  0
 12 31  1  0
 13 17  1  0
 13 14  1  0
 14 15  2  0
 14 32  1  0
 15 16  1  0
 16 17  2  0
 17 33  1  0
M  END
>  <i_m_ct_stereo_status>  (389) 
1

>  <s_m_source_file>  (389) 
/var/tmp/pbs.5076255.sched01/tmpg_ssl3dq/162k0u29fl7.sdf

>  <i_m_source_file_index>  (389) 
25

>  <i_lp_mmshare_version>  (389) 
48012

>  <i_f3d_flags>  (389) 
0

>  <s_epik_input>  (389) 
W2NIXTFubltjSF1uMVtDQEhdKFtDSDNdKVtDQEhdKFtDSDJdMilOKFtDSDNdKVtDSDJdYyhuMjMpW2NIXW5bY0hdMw==

>  <s_epik_cmdline>  (389) 
J2VwaWtfcHl0aG9uJywgJy1waHQnLCAnMi4wJywgJy1waCcsICc3LjAnLCAnLXRuJywgJzgnLCAnLW1hJywgJzIwMCcsICctaW1hZScsICc8aW5maWxlLm1hZT4nLCAnLW9tYWUnLCAnPG91dGZpbGUubWFlPic=

>  <r_lp_tautomer_probability>  (389) 
1

>  <r_epik_Ionization_Penalty>  (389) 
0.617233

>  <r_epik_Ionization_Penalty_Charging>  (389) 
0.597698

>  <r_epik_Ionization_Penalty_Neutral>  (389) 
0.0195351

>  <r_epik_State_Penalty>  (389) 
0.617408

>  <r_epik_Charging_Adjusted_Penalty>  (389) 
1.21511

>  <i_epik_Tot_Q>  (389) 
0

>  <i_epik_Tot_abs_Q>  (389) 
0

>  <s_lp_Force_Field>  (389) 
OPLS3e

>  <r_lp_Energy>  (389) 
20.6703

>  <b_lp_Chiralities_Consistent>  (389) 
1

>  <s_lp_Variant>  (389) 
103:0-2

>  <s_i_glide_gridfile>  (389) 
pfpi4k_grid

>  <i_i_glide_lignum>  (389) 
25

>  <i_i_glide_rotatable_bonds>  (389) 
2

>  <r_i_docking_score>  (389) 
-3.89577

>  <r_i_glide_ligand_efficiency>  (389) 
-0.229163

>  <r_i_glide_ligand_efficiency_sa>  (389) 
-0.589242

>  <r_i_glide_ligand_efficiency_ln>  (389) 
-1.01632

>  <r_i_glide_gscore>  (389) 
-3.89577

>  <r_i_glide_lipo>  (389) 
-0.421029

>  <r_i_glide_hbond>  (389) 
0

>  <r_i_glide_metal>  (389) 
-0

>  <r_i_glide_rewards>  (389) 
-1.82533

>  <r_i_glide_evdw>  (389) 
-20.1306

>  <r_i_glide_ecoul>  (389) 
-6.52137

>  <r_i_glide_erotb>  (389) 
0.63484

>  <r_i_glide_esite>  (389) 
-0.299511

>  <r_i_glide_emodel>  (389) 
-33.0977

>  <r_i_glide_energy>  (389) 
-26.652

>  <r_i_glide_einternal>  (389) 
0.614294

>  <r_i_glide_intrahb_reward>  (389) 
-0

>  <i_i_glide_confnum>  (389) 
2

>  <i_i_glide_posenum>  (389) 
11

>  <r_i_glide_eff_state_penalty>  (389) 
0

>  <ligand_id>  (389) 
103

>  <original_smiles>  (389) 
CC(C1Cn2cncc2CN1C)n1cnnc1

>  <smiles>  (389) 
[H]c1nc([H])n2c1C([H])([H])N(C([H])([H])[H])C([H])(C([H])(n1c([H])nnc1[H])C([H])([H])[H])C2([H])[H]

$$$$
103:1:1
     RDKit          3D

 33 35  0  0  1  0  0  0  0  0999 V2000
    5.1993   -1.1529    0.0014 C   0  0  0  0  0  0  0  0  0  0  0  0
    4.3770   -2.4274   -0.2780 C   0  0  2  0  0  0  0  0  0  0  0  0
    4.9698   -3.7041    0.4065 C   0  0  2  0  0  0  0  0  0  0  0  0
    4.1569   -5.0077    0.1150 C   0  0  0  0  0  0  0  0  0  0  0  0
    3.0181   -5.1471    0.9987 N   0  0  0  0  0  0  0  0  0  0  0  0
    1.9610   -5.9622    0.9157 C   0  0  0  0  0  0  0  0  0  0  0  0
    1.1150   -5.8578    1.9382 N   0  0  0  0  0  0  0  0  0  0  0  0
    1.7163   -4.9078    2.7723 C   0  0  0  0  0  0  0  0  0  0  0  0
    2.8758   -4.4510    2.1849 C   0  0  0  0  0  0  0  0  0  0  0  0
    3.8733   -3.4061    2.5662 C   0  0  0  0  0  0  0  0  0  0  0  0
    5.1551   -3.5343    1.8600 N   0  0  0  0  0  0  0  0  0  0  0  0
    5.9622   -4.6139    2.4275 C   0  0  0  0  0  0  0  0  0  0  0  0
    4.2509   -2.6087   -1.7247 N   0  0  0  0  0  0  0  0  0  0  0  0
    4.9835   -3.3529   -2.5775 C   0  0  0  0  0  0  0  0  0  0  0  0
    4.6040   -3.2971   -3.8563 N   0  0  0  0  0  0  0  0  0  0  0  0
    3.5475   -2.4083   -3.8688 N   0  0  0  0  0  0  0  0  0  0  0  0
    3.3890   -2.0452   -2.5906 C   0  0  0  0  0  0  0  0  0  0  0  0
    5.2229   -0.9023    1.0618 H   0  0  0  0  0  0  0  0  0  0  0  0
    4.7690   -0.2958   -0.5171 H   0  0  0  0  0  0  0  0  0  0  0  0
    6.2270   -1.2650   -0.3416 H   0  0  0  0  0  0  0  0  0  0  0  0
    3.3667   -2.2567    0.1042 H   0  0  0  0  0  0  0  0  0  0  0  0
    5.9706   -3.8442   -0.0067 H   0  0  0  0  0  0  0  0  0  0  0  0
    3.7977   -5.0380   -0.9049 H   0  0  0  0  0  0  0  0  0  0  0  0
    4.7865   -5.8912    0.2402 H   0  0  0  0  0  0  0  0  0  0  0  0
    1.7938   -6.6362    0.0886 H   0  0  0  0  0  0  0  0  0  0  0  0
    1.2513   -4.6102    3.6973 H   0  0  0  0  0  0  0  0  0  0  0  0
    3.4607   -2.4189    2.3500 H   0  0  0  0  0  0  0  0  0  0  0  0
    4.0383   -3.4421    3.6430 H   0  0  0  0  0  0  0  0  0  0  0  0
    6.1913   -4.4071    3.4738 H   0  0  0  0  0  0  0  0  0  0  0  0
    6.9118   -4.7072    1.8968 H   0  0  0  0  0  0  0  0  0  0  0  0
    5.4562   -5.5809    2.3908 H   0  0  0  0  0  0  0  0  0  0  0  0
    5.8062   -3.9759   -2.2573 H   0  0  0  0  0  0  0  0  0  0  0  0
    2.6273   -1.3443   -2.2832 H   0  0  0  0  0  0  0  0  0  0  0  0
  1  2  1  0
  1 18  1  0
  1 19  1  0
  1 20  1  0
  2  3  1  0
  2 13  1  0
  2 21  1  1
  3 11  1  0
  3  4  1  0
  3 22  1  6
  4  5  1  0
  4 23  1  0
  4 24  1  0
  5  9  1  0
  5  6  1  0
  6  7  2  0
  6 25  1  0
  7  8  1  0
  8  9  2  0
  8 26  1  0
  9 10  1  0
 10 11  1  0
 10 27  1  0
 10 28  1  0
 11 12  1  0
 12 29  1  0
 12 30  1  0
 12 31  1  0
 13 17  1  0
 13 14  1  0
 14 15  2  0
 14 32  1  0
 15 16  1  0
 16 17  2  0
 17 33  1  0
M  END
>  <i_m_ct_stereo_status>  (390) 
1

>  <s_m_source_file>  (390) 
/var/tmp/pbs.5076255.sched01/tmpg_ssl3dq/162k0u29fl7.sdf

>  <i_m_source_file_index>  (390) 
25

>  <i_lp_mmshare_version>  (390) 
48012

>  <i_f3d_flags>  (390) 
0

>  <s_epik_input>  (390) 
W2NIXTFubltjSF1uMVtDQEhdKFtDSDNdKVtDQEhdKFtDSDJdMilOKFtDSDNdKVtDSDJdYyhuMjMpW2NIXW5bY0hdMw==

>  <s_epik_cmdline>  (390) 
J2VwaWtfcHl0aG9uJywgJy1waHQnLCAnMi4wJywgJy1waCcsICc3LjAnLCAnLXRuJywgJzgnLCAnLW1hJywgJzIwMCcsICctaW1hZScsICc8aW5maWxlLm1hZT4nLCAnLW9tYWUnLCAnPG91dGZpbGUubWFlPic=

>  <r_lp_tautomer_probability>  (390) 
1

>  <r_epik_Ionization_Penalty>  (390) 
0.617233

>  <r_epik_Ionization_Penalty_Charging>  (390) 
0.597698

>  <r_epik_Ionization_Penalty_Neutral>  (390) 
0.0195351

>  <r_epik_State_Penalty>  (390) 
0.617408

>  <r_epik_Charging_Adjusted_Penalty>  (390) 
1.21511

>  <i_epik_Tot_Q>  (390) 
0

>  <i_epik_Tot_abs_Q>  (390) 
0

>  <s_lp_Force_Field>  (390) 
OPLS3e

>  <r_lp_Energy>  (390) 
20.6703

>  <b_lp_Chiralities_Consistent>  (390) 
1

>  <s_lp_Variant>  (390) 
103:0-2

>  <s_i_glide_gridfile>  (390) 
pfpi4k_grid

>  <i_i_glide_lignum>  (390) 
25

>  <i_i_glide_rotatable_bonds>  (390) 
2

>  <r_i_docking_score>  (390) 
-3.51754

>  <r_i_glide_ligand_efficiency>  (390) 
-0.206914

>  <r_i_glide_ligand_efficiency_sa>  (390) 
-0.532034

>  <r_i_glide_ligand_efficiency_ln>  (390) 
-0.917647

>  <r_i_glide_gscore>  (390) 
-3.51754

>  <r_i_glide_lipo>  (390) 
-0.0716584

>  <r_i_glide_hbond>  (390) 
-0.103704

>  <r_i_glide_metal>  (390) 
-0

>  <r_i_glide_rewards>  (390) 
-2.04499

>  <r_i_glide_evdw>  (390) 
-19.988

>  <r_i_glide_ecoul>  (390) 
-5.45262

>  <r_i_glide_erotb>  (390) 
0.63484

>  <r_i_glide_esite>  (390) 
-0.114735

>  <r_i_glide_emodel>  (390) 
-31.1113

>  <r_i_glide_energy>  (390) 
-25.4406

>  <r_i_glide_einternal>  (390) 
0.750505

>  <r_i_glide_intrahb_reward>  (390) 
-0

>  <i_i_glide_confnum>  (390) 
3

>  <i_i_glide_posenum>  (390) 
6

>  <r_i_glide_eff_state_penalty>  (390) 
0

>  <ligand_id>  (390) 
103

>  <original_smiles>  (390) 
CC(C1Cn2cncc2CN1C)n1cnnc1

>  <smiles>  (390) 
[H]c1nc([H])n2c1C([H])([H])N(C([H])([H])[H])C([H])(C([H])(n1c([H])nnc1[H])C([H])([H])[H])C2([H])[H]

$$$$
103:1:2
     RDKit          3D

 33 35  0  0  1  0  0  0  0  0999 V2000
    4.7924   -0.6975   -1.1691 C   0  0  0  0  0  0  0  0  0  0  0  0
    4.2166   -2.1162   -1.0140 C   0  0  2  0  0  0  0  0  0  0  0  0
    5.0442   -3.0216   -0.0492 C   0  0  2  0  0  0  0  0  0  0  0  0
    4.5800   -4.5168   -0.0198 C   0  0  0  0  0  0  0  0  0  0  0  0
    3.4536   -4.7092    0.8641 N   0  0  0  0  0  0  0  0  0  0  0  0
    2.6234   -5.7527    0.9659 C   0  0  0  0  0  0  0  0  0  0  0  0
    1.7111   -5.6176    1.9235 N   0  0  0  0  0  0  0  0  0  0  0  0
    2.0166   -4.3871    2.5120 C   0  0  0  0  0  0  0  0  0  0  0  0
    3.0713   -3.8095    1.8427 C   0  0  0  0  0  0  0  0  0  0  0  0
    3.7691   -2.4907    1.9690 C   0  0  0  0  0  0  0  0  0  0  0  0
    5.0853   -2.4652    1.3147 N   0  0  0  0  0  0  0  0  0  0  0  0
    6.0809   -3.1464    2.1339 C   0  0  0  0  0  0  0  0  0  0  0  0
    4.1125   -2.7241   -2.3284 N   0  0  0  0  0  0  0  0  0  0  0  0
    3.0718   -2.7483   -3.1748 C   0  0  0  0  0  0  0  0  0  0  0  0
    3.3076   -3.3899   -4.3218 N   0  0  0  0  0  0  0  0  0  0  0  0
    4.6078   -3.8483   -4.2250 N   0  0  0  0  0  0  0  0  0  0  0  0
    5.0302   -3.3979   -3.0446 C   0  0  0  0  0  0  0  0  0  0  0  0
    4.7760   -0.1541   -0.2250 H   0  0  0  0  0  0  0  0  0  0  0  0
    4.2147   -0.1265   -1.8962 H   0  0  0  0  0  0  0  0  0  0  0  0
    5.8128   -0.7271   -1.5329 H   0  0  0  0  0  0  0  0  0  0  0  0
    3.1949   -2.0186   -0.6423 H   0  0  0  0  0  0  0  0  0  0  0  0
    6.0715   -3.0083   -0.4188 H   0  0  0  0  0  0  0  0  0  0  0  0
    4.3042   -4.9082   -0.9949 H   0  0  0  0  0  0  0  0  0  0  0  0
    5.3912   -5.1527    0.3365 H   0  0  0  0  0  0  0  0  0  0  0  0
    2.6968   -6.6203    0.3301 H   0  0  0  0  0  0  0  0  0  0  0  0
    1.4342   -4.0060    3.3377 H   0  0  0  0  0  0  0  0  0  0  0  0
    3.1483   -1.7112    1.5258 H   0  0  0  0  0  0  0  0  0  0  0  0
    3.8679   -2.2291    3.0236 H   0  0  0  0  0  0  0  0  0  0  0  0
    6.1754   -2.6357    3.0938 H   0  0  0  0  0  0  0  0  0  0  0  0
    7.0608   -3.1282    1.6561 H   0  0  0  0  0  0  0  0  0  0  0  0
    5.8232   -4.1871    2.3440 H   0  0  0  0  0  0  0  0  0  0  0  0
    2.1202   -2.2866   -2.9524 H   0  0  0  0  0  0  0  0  0  0  0  0
    6.0271   -3.6006   -2.6806 H   0  0  0  0  0  0  0  0  0  0  0  0
  1  2  1  0
  1 18  1  0
  1 19  1  0
  1 20  1  0
  2  3  1  0
  2 13  1  0
  2 21  1  1
  3 11  1  0
  3  4  1  0
  3 22  1  6
  4  5  1  0
  4 23  1  0
  4 24  1  0
  5  9  1  0
  5  6  1  0
  6  7  2  0
  6 25  1  0
  7  8  1  0
  8  9  2  0
  8 26  1  0
  9 10  1  0
 10 11  1  0
 10 27  1  0
 10 28  1  0
 11 12  1  0
 12 29  1  0
 12 30  1  0
 12 31  1  0
 13 17  1  0
 13 14  1  0
 14 15  2  0
 14 32  1  0
 15 16  1  0
 16 17  2  0
 17 33  1  0
M  END
>  <i_m_ct_stereo_status>  (391) 
1

>  <s_m_source_file>  (391) 
/var/tmp/pbs.5076255.sched01/tmpg_ssl3dq/162k0u29fl7.sdf

>  <i_m_source_file_index>  (391) 
25

>  <i_lp_mmshare_version>  (391) 
48012

>  <i_f3d_flags>  (391) 
0

>  <s_epik_input>  (391) 
W2NIXTFubltjSF1uMVtDQEhdKFtDSDNdKVtDQEhdKFtDSDJdMilOKFtDSDNdKVtDSDJdYyhuMjMpW2NIXW5bY0hdMw==

>  <s_epik_cmdline>  (391) 
J2VwaWtfcHl0aG9uJywgJy1waHQnLCAnMi4wJywgJy1waCcsICc3LjAnLCAnLXRuJywgJzgnLCAnLW1hJywgJzIwMCcsICctaW1hZScsICc8aW5maWxlLm1hZT4nLCAnLW9tYWUnLCAnPG91dGZpbGUubWFlPic=

>  <r_lp_tautomer_probability>  (391) 
1

>  <r_epik_Ionization_Penalty>  (391) 
0.617233

>  <r_epik_Ionization_Penalty_Charging>  (391) 
0.597698

>  <r_epik_Ionization_Penalty_Neutral>  (391) 
0.0195351

>  <r_epik_State_Penalty>  (391) 
0.617408

>  <r_epik_Charging_Adjusted_Penalty>  (391) 
1.21511

>  <i_epik_Tot_Q>  (391) 
0

>  <i_epik_Tot_abs_Q>  (391) 
0

>  <s_lp_Force_Field>  (391) 
OPLS3e

>  <r_lp_Energy>  (391) 
20.6703

>  <b_lp_Chiralities_Consistent>  (391) 
1

>  <s_lp_Variant>  (391) 
103:0-2

>  <s_i_glide_gridfile>  (391) 
pfpi4k_grid

>  <i_i_glide_lignum>  (391) 
25

>  <i_i_glide_rotatable_bonds>  (391) 
2

>  <r_i_docking_score>  (391) 
-3.4056

>  <r_i_glide_ligand_efficiency>  (391) 
-0.200329

>  <r_i_glide_ligand_efficiency_sa>  (391) 
-0.515103

>  <r_i_glide_ligand_efficiency_ln>  (391) 
-0.888445

>  <r_i_glide_gscore>  (391) 
-3.4056

>  <r_i_glide_lipo>  (391) 
-0.0596933

>  <r_i_glide_hbond>  (391) 
-0.0196278

>  <r_i_glide_metal>  (391) 
-0

>  <r_i_glide_rewards>  (391) 
-2.22702

>  <r_i_glide_evdw>  (391) 
-18.9695

>  <r_i_glide_ecoul>  (391) 
-4.68358

>  <r_i_glide_erotb>  (391) 
0.63484

>  <r_i_glide_esite>  (391) 
-0.083084

>  <r_i_glide_emodel>  (391) 
-29.3119

>  <r_i_glide_energy>  (391) 
-23.6531

>  <r_i_glide_einternal>  (391) 
0.395366

>  <r_i_glide_intrahb_reward>  (391) 
-0

>  <i_i_glide_confnum>  (391) 
3

>  <i_i_glide_posenum>  (391) 
32

>  <r_i_glide_eff_state_penalty>  (391) 
0

>  <ligand_id>  (391) 
103

>  <original_smiles>  (391) 
CC(C1Cn2cncc2CN1C)n1cnnc1

>  <smiles>  (391) 
[H]c1nc([H])n2c1C([H])([H])N(C([H])([H])[H])C([H])(C([H])(n1c([H])nnc1[H])C([H])([H])[H])C2([H])[H]

$$$$
104:0:0
     RDKit          3D

 89 98  0  0  1  0  0  0  0  0999 V2000
    5.3073   -3.6037   -1.4184 C   0  0  0  0  0  0  0  0  0  0  0  0
    4.1494   -4.2169   -0.8420 O   0  0  0  0  0  0  0  0  0  0  0  0
    3.9017   -4.0266    0.5380 C   0  0  2  0  0  0  0  0  0  0  0  0
    5.1394   -3.8637    1.1536 O   0  0  0  0  0  0  0  0  0  0  0  0
    5.5062   -4.6964    2.2288 C   0  0  2  0  0  0  0  0  0  0  0  0
    5.8740   -6.1550    1.8428 C   0  0  2  0  0  0  0  0  0  0  0  0
    5.4537   -6.2786    0.4880 O   0  0  0  0  0  0  0  0  0  0  0  0
    3.9630   -6.5167    0.3704 O   0  0  0  0  0  0  0  0  0  0  0  0
    3.1744   -5.4728    0.9073 C   0  0  2  0  0  0  0  0  0  0  0  0
    1.9216   -5.4615    0.2498 O   0  0  0  0  0  0  0  0  0  0  0  0
    2.8421   -6.0204    2.4230 C   0  0  2  0  0  0  0  0  0  0  0  0
    3.0747   -4.8161    3.4342 C   0  0  1  0  0  0  0  0  0  0  0  0
    1.7183   -3.9573    3.1390 C   0  0  0  0  0  0  0  0  0  0  0  0
    1.2558   -3.2164    4.3767 C   0  0  0  0  0  0  0  0  0  0  0  0
    2.5542   -3.2676    5.0419 C   0  0  0  0  0  0  0  0  0  0  0  0
    2.8221   -4.5917    4.9206 C   0  0  0  0  0  0  0  0  0  0  0  0
    3.5069   -5.3748    6.0257 C   0  0  0  0  0  0  0  0  0  0  0  0
    3.5212   -2.2970    4.2865 C   0  0  1  0  0  0  0  0  0  0  0  0
    4.7440   -2.2712    5.0238 O   0  0  0  0  0  0  0  0  0  0  0  0
    4.7987   -2.8882    3.7460 C   0  0  1  0  0  0  0  0  0  0  0  0
    4.6140   -4.3450    3.4257 C   0  0  2  0  0  0  0  0  0  0  0  0
    3.1276   -1.2180    3.1941 C   0  0  1  0  0  0  0  0  0  0  0  0
    3.5699    0.1811    3.6780 C   0  0  0  0  0  0  0  0  0  0  0  0
    3.5561   -1.4375    1.6442 C   0  0  1  0  0  0  0  0  0  0  0  0
    4.8709   -1.0058    1.3404 O   0  0  0  0  0  0  0  0  0  0  0  0
    3.0855   -2.6092    0.6326 C   0  0  1  0  0  0  0  0  0  0  0  0
    3.0171   -1.9309   -0.6204 O   0  0  0  0  0  0  0  0  0  0  0  0
    2.9524   -7.6184    2.7820 C   0  0  2  0  0  0  0  0  0  0  0  0
    1.8775   -8.3838    1.9531 C   0  0  0  0  0  0  0  0  0  0  0  0
    2.5257   -7.6621    4.1812 O   0  0  0  0  0  0  0  0  0  0  0  0
    2.1686   -8.8466    4.9587 C   0  0  0  0  0  0  0  0  0  0  0  0
    2.0172   -8.3597    6.4104 C   0  0  0  0  0  0  0  0  0  0  0  0
    0.7739   -9.4195    4.6025 C   0  0  0  0  0  0  0  0  0  0  0  0
    3.2691   -9.8944    4.7935 C   0  0  1  0  0  0  0  0  0  0  0  0
    4.6534   -9.2784    4.9140 C   0  0  2  0  0  0  0  0  0  0  0  0
    5.1938   -9.1193    3.5161 C   0  0  2  0  0  0  0  0  0  0  0  0
    6.3491   -8.2572    3.3168 O   0  0  0  0  0  0  0  0  0  0  0  0
    5.4413   -7.2391    2.8569 C   0  0  2  0  0  0  0  0  0  0  0  0
    4.3836   -8.2689    2.5086 C   0  0  2  0  0  0  0  0  0  0  0  0
    4.5060   -9.0796    1.1840 C   0  0  0  0  0  0  0  0  0  0  0  0
    4.3192  -10.5416    5.6907 C   0  0  0  0  0  0  0  0  0  0  0  0
    4.2535  -10.5070    7.2105 C   0  0  0  0  0  0  0  0  0  0  0  0
    4.9005  -11.8819    5.2604 C   0  0  0  0  0  0  0  0  0  0  0  0
    5.2346   -3.6566   -2.5040 H   0  0  0  0  0  0  0  0  0  0  0  0
    6.2136   -4.1268   -1.1204 H   0  0  0  0  0  0  0  0  0  0  0  0
    5.4212   -2.5525   -1.1491 H   0  0  0  0  0  0  0  0  0  0  0  0
    6.4848   -4.2971    2.4860 H   0  0  0  0  0  0  0  0  0  0  0  0
    6.9616   -6.1999    1.7697 H   0  0  0  0  0  0  0  0  0  0  0  0
    2.1264   -5.2932   -0.6611 H   0  0  0  0  0  0  0  0  0  0  0  0
    1.7679   -6.1145    2.4028 H   0  0  0  0  0  0  0  0  0  0  0  0
    1.7839   -3.1849    2.4437 H   0  0  0  0  0  0  0  0  0  0  0  0
    0.8234   -4.5000    2.8488 H   0  0  0  0  0  0  0  0  0  0  0  0
    0.7939   -2.2404    4.2571 H   0  0  0  0  0  0  0  0  0  0  0  0
    0.5459   -3.8188    4.9547 H   0  0  0  0  0  0  0  0  0  0  0  0
    4.0552   -6.2323    5.6521 H   0  0  0  0  0  0  0  0  0  0  0  0
    2.7358   -5.7175    6.7132 H   0  0  0  0  0  0  0  0  0  0  0  0
    4.1856   -4.7412    6.5965 H   0  0  0  0  0  0  0  0  0  0  0  0
    5.5451   -2.3558    3.1754 H   0  0  0  0  0  0  0  0  0  0  0  0
    5.1552   -4.8060    4.2452 H   0  0  0  0  0  0  0  0  0  0  0  0
    2.0482   -1.1138    3.1623 H   0  0  0  0  0  0  0  0  0  0  0  0
    4.6570    0.2761    3.7262 H   0  0  0  0  0  0  0  0  0  0  0  0
    3.1782    0.4007    4.6727 H   0  0  0  0  0  0  0  0  0  0  0  0
    3.2115    0.9682    3.0096 H   0  0  0  0  0  0  0  0  0  0  0  0
    3.0162   -0.5798    1.2369 H   0  0  0  0  0  0  0  0  0  0  0  0
    4.8869   -0.7999    0.4169 H   0  0  0  0  0  0  0  0  0  0  0  0
    2.0289   -2.8175    0.6111 H   0  0  0  0  0  0  0  0  0  0  0  0
    2.1213   -1.5275   -0.7075 H   0  0  0  0  0  0  0  0  0  0  0  0
    1.9266   -8.1519    0.8895 H   0  0  0  0  0  0  0  0  0  0  0  0
    0.8631   -8.1307    2.2601 H   0  0  0  0  0  0  0  0  0  0  0  0
    1.9920   -9.4654    2.0351 H   0  0  0  0  0  0  0  0  0  0  0  0
    1.7403   -9.1775    7.0780 H   0  0  0  0  0  0  0  0  0  0  0  0
    1.2333   -7.6051    6.4914 H   0  0  0  0  0  0  0  0  0  0  0  0
    2.9289   -7.9200    6.7991 H   0  0  0  0  0  0  0  0  0  0  0  0
    0.3979  -10.0763    5.3889 H   0  0  0  0  0  0  0  0  0  0  0  0
    0.7558  -10.0253    3.7011 H   0  0  0  0  0  0  0  0  0  0  0  0
    0.0395   -8.6211    4.4864 H   0  0  0  0  0  0  0  0  0  0  0  0
    3.0786  -10.5010    3.9092 H   0  0  0  0  0  0  0  0  0  0  0  0
    4.7466   -8.3828    5.5215 H   0  0  0  0  0  0  0  0  0  0  0  0
    5.4424  -10.1017    3.1096 H   0  0  0  0  0  0  0  0  0  0  0  0
    5.1318   -6.7642    3.7793 H   0  0  0  0  0  0  0  0  0  0  0  0
    5.5513   -9.1622    0.8742 H   0  0  0  0  0  0  0  0  0  0  0  0
    3.9511   -8.7353    0.3238 H   0  0  0  0  0  0  0  0  0  0  0  0
    4.1546  -10.1004    1.3345 H   0  0  0  0  0  0  0  0  0  0  0  0
    5.1854  -10.8723    7.6426 H   0  0  0  0  0  0  0  0  0  0  0  0
    3.4318  -11.1294    7.5712 H   0  0  0  0  0  0  0  0  0  0  0  0
    4.1175   -9.4963    7.5829 H   0  0  0  0  0  0  0  0  0  0  0  0
    5.9373  -11.9701    5.5869 H   0  0  0  0  0  0  0  0  0  0  0  0
    4.8775  -11.9941    4.1754 H   0  0  0  0  0  0  0  0  0  0  0  0
    4.3282  -12.7078    5.6878 H   0  0  0  0  0  0  0  0  0  0  0  0
  1  2  1  0
  1 44  1  0
  1 45  1  0
  1 46  1  0
  3  2  1  6
  3  9  1  0
  3 26  1  0
  3  4  1  0
  4  5  1  0
  5 21  1  0
  5  6  1  0
  5 47  1  1
  6 38  1  0
  6  7  1  0
  6 48  1  6
  7  8  1  0
  8  9  1  0
  9 10  1  6
  9 11  1  0
 10 49  1  0
 11 12  1  0
 11 28  1  0
 11 50  1  6
 12 16  1  0
 12 21  1  0
 12 13  1  6
 13 14  1  0
 13 51  1  0
 13 52  1  0
 14 15  1  0
 14 53  1  0
 14 54  1  0
 15 16  2  0
 15 18  1  0
 16 17  1  0
 17 55  1  0
 17 56  1  0
 17 57  1  0
 18 20  1  0
 18 19  1  1
 18 22  1  0
 19 20  1  0
 20 21  1  0
 20 58  1  6
 21 59  1  1
 22 23  1  0
 22 24  1  0
 22 60  1  6
 23 61  1  0
 23 62  1  0
 23 63  1  0
 24 25  1  0
 24 26  1  0
 24 64  1  6
 25 65  1  0
 26 27  1  0
 26 66  1  1
 27 67  1  0
 28 39  1  0
 28 29  1  6
 28 30  1  0
 29 68  1  0
 29 69  1  0
 29 70  1  0
 30 31  1  0
 31 32  1  0
 31 33  1  0
 31 34  1  0
 32 71  1  0
 32 72  1  0
 32 73  1  0
 33 74  1  0
 33 75  1  0
 33 76  1  0
 34 41  1  0
 34 35  1  0
 34 77  1  6
 35 36  1  0
 35 41  1  0
 35 78  1  1
 36 39  1  0
 36 37  1  0
 36 79  1  6
 37 38  1  0
 38 39  1  0
 38 80  1  1
 39 40  1  6
 40 81  1  0
 40 82  1  0
 40 83  1  0
 41 42  1  0
 41 43  1  0
 42 84  1  0
 42 85  1  0
 42 86  1  0
 43 87  1  0
 43 88  1  0
 43 89  1  0
M  END
>  <i_m_ct_stereo_status>  (392) 
1

>  <s_m_source_file>  (392) 
/var/tmp/pbs.5076255.sched01/tmpg_ssl3dq/162k0u29fl7.sdf

>  <i_m_source_file_index>  (392) 
26

>  <i_lp_mmshare_version>  (392) 
48012

>  <i_f3d_flags>  (392) 
0

>  <s_epik_input>  (392) 
W09IXVtDQEBIXTFbQ0BIXShbT0hdKVtDQEhdKFtDSDNdKVtDQEBdKE8yKShDKFtDSDJdW0NIMl0zKT1DNFtDSDNdKVtDQEBIXTJbQ0BASF01W0NASF0oT1tDQEBdMShPW0NIM10pW0NAXTYoW09IXSlbQ0BASF03W0NAQF0zNDUpW0NASF0oT082KVtDQEhdOFtDQF05KFtDSDNdKVtDQEBdNyhbQ0gzXSlPQyhbQ0gzXSkoW0NIM10pW0NASF0xW0NASF0oW0NAQEhdOU84KUMxKFtDSDNdKVtDSDNd

>  <s_epik_cmdline>  (392) 
J2VwaWtfcHl0aG9uJywgJy1waHQnLCAnMi4wJywgJy1waCcsICc3LjAnLCAnLXRuJywgJzgnLCAnLW1hJywgJzIwMCcsICctaW1hZScsICc8aW5maWxlLm1hZT4nLCAnLW9tYWUnLCAnPG91dGZpbGUubWFlPic=

>  <r_epik_Ionization_Penalty>  (392) 
0.000733936

>  <r_epik_Ionization_Penalty_Charging>  (392) 
0

>  <r_epik_Ionization_Penalty_Neutral>  (392) 
0.000733936

>  <r_epik_State_Penalty>  (392) 
0.00046593

>  <r_epik_Charging_Adjusted_Penalty>  (392) 
0.00046593

>  <i_epik_Tot_Q>  (392) 
0

>  <i_epik_Tot_abs_Q>  (392) 
0

>  <s_lp_Force_Field>  (392) 
OPLS3e

>  <r_lp_Energy>  (392) 
314.097

>  <b_lp_Chiralities_Consistent>  (392) 
1

>  <s_lp_Variant>  (392) 
104:0-1

>  <s_i_glide_gridfile>  (392) 
pfpi4k_grid

>  <i_i_glide_lignum>  (392) 
26

>  <i_i_glide_rotatable_bonds>  (392) 
4

>  <r_i_docking_score>  (392) 
-2.95349

>  <r_i_glide_ligand_efficiency>  (392) 
-0.0686859

>  <r_i_glide_ligand_efficiency_sa>  (392) 
-0.240634

>  <r_i_glide_ligand_efficiency_ln>  (392) 
-0.620325

>  <r_i_glide_gscore>  (392) 
-2.95349

>  <r_i_glide_lipo>  (392) 
-0.203492

>  <r_i_glide_hbond>  (392) 
0

>  <r_i_glide_metal>  (392) 
-0

>  <r_i_glide_rewards>  (392) 
-0.0163626

>  <r_i_glide_evdw>  (392) 
-22.4638

>  <r_i_glide_ecoul>  (392) 
-10.6709

>  <r_i_glide_erotb>  (392) 
0

>  <r_i_glide_esite>  (392) 
-0.00980841

>  <r_i_glide_emodel>  (392) 
-37.9869

>  <r_i_glide_energy>  (392) 
-33.1347

>  <r_i_glide_einternal>  (392) 
1.31203

>  <r_i_glide_intrahb_reward>  (392) 
-0

>  <i_i_glide_confnum>  (392) 
1

>  <i_i_glide_posenum>  (392) 
7

>  <r_i_glide_eff_state_penalty>  (392) 
0

>  <ligand_id>  (392) 
104

>  <original_smiles>  (392) 
COC12OC3C4OOC1(O)C(C15CCC(=C1C)C1(OC1C35)C(C)C(O)C2O)C1(C)OC(C)(C)C2C(C3OC4C31C)C2(C)C

>  <smiles>  (392) 
[H]OC1([H])C([H])(O[H])C([H])(C([H])([H])[H])C23OC2([H])C2([H])C4([H])OC1(OC([H])([H])[H])C1(O[H])OOC4([H])C4([H])OC5([H])C6([H])C([H])(C(C([H])([H])[H])(C([H])([H])[H])OC(C([H])([H])[H])(C1([H])C21C(C([H])([H])[H])=C3C([H])([H])C1([H])[H])C45C([H])([H])[H])C6(C([H])([H])[H])C([H])([H])[H]

$$$$
104:0:1
     RDKit          3D

 89 98  0  0  1  0  0  0  0  0999 V2000
    7.0464   -2.3860    0.4917 C   0  0  0  0  0  0  0  0  0  0  0  0
    5.6592   -2.7147    0.3327 O   0  0  0  0  0  0  0  0  0  0  0  0
    4.8211   -2.6842    1.4771 C   0  0  2  0  0  0  0  0  0  0  0  0
    5.6242   -2.9857    2.5778 O   0  0  0  0  0  0  0  0  0  0  0  0
    5.2993   -4.0512    3.4414 C   0  0  2  0  0  0  0  0  0  0  0  0
    5.5353   -5.4738    2.8548 C   0  0  2  0  0  0  0  0  0  0  0  0
    5.7806   -5.2574    1.4656 O   0  0  0  0  0  0  0  0  0  0  0  0
    4.5114   -5.0100    0.6644 O   0  0  0  0  0  0  0  0  0  0  0  0
    3.7539   -3.9078    1.1140 C   0  0  2  0  0  0  0  0  0  0  0  0
    2.9203   -3.4433    0.0636 O   0  0  0  0  0  0  0  0  0  0  0  0
    2.6811   -4.5728    2.1625 C   0  0  2  0  0  0  0  0  0  0  0  0
    2.6201   -3.6599    3.4582 C   0  0  1  0  0  0  0  0  0  0  0  0
    1.7548   -2.4066    2.8734 C   0  0  0  0  0  0  0  0  0  0  0  0
    0.8999   -1.7854    3.9585 C   0  0  0  0  0  0  0  0  0  0  0  0
    1.6937   -2.3123    5.0640 C   0  0  0  0  0  0  0  0  0  0  0  0
    1.7439   -3.6238    4.7042 C   0  0  0  0  0  0  0  0  0  0  0  0
    1.6786   -4.7345    5.7337 C   0  0  0  0  0  0  0  0  0  0  0  0
    3.0629   -1.5530    5.0792 C   0  0  1  0  0  0  0  0  0  0  0  0
    3.7822   -2.0003    6.2240 O   0  0  0  0  0  0  0  0  0  0  0  0
    4.3113   -2.3923    4.9728 C   0  0  1  0  0  0  0  0  0  0  0  0
    4.0402   -3.6604    4.2164 C   0  0  2  0  0  0  0  0  0  0  0  0
    3.4268   -0.2492    4.2581 C   0  0  1  0  0  0  0  0  0  0  0  0
    3.8464    0.8688    5.2397 C   0  0  0  0  0  0  0  0  0  0  0  0
    4.4755   -0.3345    3.0215 C   0  0  1  0  0  0  0  0  0  0  0  0
    5.8322   -0.2636    3.4144 O   0  0  0  0  0  0  0  0  0  0  0  0
    4.3437   -1.1243    1.6111 C   0  0  1  0  0  0  0  0  0  0  0  0
    5.0436   -0.2654    0.7185 O   0  0  0  0  0  0  0  0  0  0  0  0
    2.3022   -6.1658    2.0748 C   0  0  2  0  0  0  0  0  0  0  0  0
    1.6127   -6.4339    0.7063 C   0  0  0  0  0  0  0  0  0  0  0  0
    1.2575   -6.3083    3.0905 O   0  0  0  0  0  0  0  0  0  0  0  0
    0.3812   -7.4580    3.2985 C   0  0  0  0  0  0  0  0  0  0  0  0
   -0.3387   -7.1847    4.6310 C   0  0  0  0  0  0  0  0  0  0  0  0
   -0.7600   -7.5553    2.2588 C   0  0  0  0  0  0  0  0  0  0  0  0
    1.2249   -8.7289    3.3199 C   0  0  1  0  0  0  0  0  0  0  0  0
    2.4765   -8.5661    4.1654 C   0  0  2  0  0  0  0  0  0  0  0  0
    3.6248   -8.3479    3.2179 C   0  0  2  0  0  0  0  0  0  0  0  0
    4.8751   -7.8315    3.7574 O   0  0  0  0  0  0  0  0  0  0  0  0
    4.4887   -6.5375    3.2590 C   0  0  2  0  0  0  0  0  0  0  0  0
    3.5475   -7.1518    2.2381 C   0  0  2  0  0  0  0  0  0  0  0  0
    4.1262   -7.7364    0.9142 C   0  0  0  0  0  0  0  0  0  0  0  0
    1.5901   -9.7859    4.3528 C   0  0  0  0  0  0  0  0  0  0  0  0
    0.8323   -9.9770    5.6556 C   0  0  0  0  0  0  0  0  0  0  0  0
    2.0469  -11.1515    3.8536 C   0  0  0  0  0  0  0  0  0  0  0  0
    7.4872   -2.2347   -0.4922 H   0  0  0  0  0  0  0  0  0  0  0  0
    7.5955   -3.1916    0.9771 H   0  0  0  0  0  0  0  0  0  0  0  0
    7.2142   -1.4731    1.0653 H   0  0  0  0  0  0  0  0  0  0  0  0
    6.0789   -4.0198    4.2018 H   0  0  0  0  0  0  0  0  0  0  0  0
    6.5050   -5.8162    3.2340 H   0  0  0  0  0  0  0  0  0  0  0  0
    2.7361   -2.5268    0.1817 H   0  0  0  0  0  0  0  0  0  0  0  0
    1.7326   -4.3564    1.7066 H   0  0  0  0  0  0  0  0  0  0  0  0
    2.2846   -1.5820    2.5284 H   0  0  0  0  0  0  0  0  0  0  0  0
    1.0409   -2.5934    2.0784 H   0  0  0  0  0  0  0  0  0  0  0  0
    0.7361   -0.7100    3.9419 H   0  0  0  0  0  0  0  0  0  0  0  0
   -0.0945   -2.2434    3.9968 H   0  0  0  0  0  0  0  0  0  0  0  0
    2.1677   -5.6415    5.3956 H   0  0  0  0  0  0  0  0  0  0  0  0
    0.6279   -4.9433    5.9207 H   0  0  0  0  0  0  0  0  0  0  0  0
    2.1214   -4.4243    6.6790 H   0  0  0  0  0  0  0  0  0  0  0  0
    5.3229   -2.0101    4.9262 H   0  0  0  0  0  0  0  0  0  0  0  0
    4.0417   -4.3871    5.0222 H   0  0  0  0  0  0  0  0  0  0  0  0
    2.5329    0.1750    3.8171 H   0  0  0  0  0  0  0  0  0  0  0  0
    4.7816    0.6333    5.7539 H   0  0  0  0  0  0  0  0  0  0  0  0
    3.0837    1.0292    6.0059 H   0  0  0  0  0  0  0  0  0  0  0  0
    3.9931    1.8226    4.7244 H   0  0  0  0  0  0  0  0  0  0  0  0
    4.3401    0.6936    2.6861 H   0  0  0  0  0  0  0  0  0  0  0  0
    6.3599   -0.1515    2.6356 H   0  0  0  0  0  0  0  0  0  0  0  0
    3.3970   -1.0103    1.0955 H   0  0  0  0  0  0  0  0  0  0  0  0
    4.5286    0.5127    0.5779 H   0  0  0  0  0  0  0  0  0  0  0  0
    2.2058   -6.0702   -0.1347 H   0  0  0  0  0  0  0  0  0  0  0  0
    0.6450   -5.9463    0.6213 H   0  0  0  0  0  0  0  0  0  0  0  0
    1.4445   -7.4981    0.5445 H   0  0  0  0  0  0  0  0  0  0  0  0
   -1.0379   -7.9867    4.8717 H   0  0  0  0  0  0  0  0  0  0  0  0
   -0.9155   -6.2597    4.5875 H   0  0  0  0  0  0  0  0  0  0  0  0
    0.3493   -7.0946    5.4645 H   0  0  0  0  0  0  0  0  0  0  0  0
   -1.5688   -8.1946    2.6132 H   0  0  0  0  0  0  0  0  0  0  0  0
   -0.4649   -7.9746    1.3011 H   0  0  0  0  0  0  0  0  0  0  0  0
   -1.1973   -6.5818    2.0680 H   0  0  0  0  0  0  0  0  0  0  0  0
    1.3623   -9.1076    2.3061 H   0  0  0  0  0  0  0  0  0  0  0  0
    2.4365   -7.8473    4.9809 H   0  0  0  0  0  0  0  0  0  0  0  0
    3.8497   -9.2823    2.6980 H   0  0  0  0  0  0  0  0  0  0  0  0
    3.8742   -6.1425    4.0577 H   0  0  0  0  0  0  0  0  0  0  0  0
    5.1630   -8.0542    1.0567 H   0  0  0  0  0  0  0  0  0  0  0  0
    4.1153   -7.1068    0.0353 H   0  0  0  0  0  0  0  0  0  0  0  0
    3.5781   -8.6315    0.6199 H   0  0  0  0  0  0  0  0  0  0  0  0
    1.3745  -10.6489    6.3022 H   0  0  0  0  0  0  0  0  0  0  0  0
   -0.1603  -10.3881    5.4679 H   0  0  0  0  0  0  0  0  0  0  0  0
    0.7310   -9.0471    6.2078 H   0  0  0  0  0  0  0  0  0  0  0  0
    2.7705  -11.5870    4.5451 H   0  0  0  0  0  0  0  0  0  0  0  0
    2.5171  -11.0808    2.8714 H   0  0  0  0  0  0  0  0  0  0  0  0
    1.2020  -11.8379    3.7679 H   0  0  0  0  0  0  0  0  0  0  0  0
  1  2  1  0
  1 44  1  0
  1 45  1  0
  1 46  1  0
  3  2  1  6
  3  9  1  0
  3 26  1  0
  3  4  1  0
  4  5  1  0
  5 21  1  0
  5  6  1  0
  5 47  1  1
  6 38  1  0
  6  7  1  0
  6 48  1  1
  7  8  1  0
  8  9  1  0
  9 10  1  6
  9 11  1  0
 10 49  1  0
 11 12  1  0
 11 28  1  0
 11 50  1  6
 12 16  1  0
 12 21  1  0
 12 13  1  6
 13 14  1  0
 13 51  1  0
 13 52  1  0
 14 15  1  0
 14 53  1  0
 14 54  1  0
 15 16  2  0
 15 18  1  0
 16 17  1  0
 17 55  1  0
 17 56  1  0
 17 57  1  0
 18 20  1  0
 18 19  1  1
 18 22  1  0
 19 20  1  0
 20 21  1  0
 20 58  1  6
 21 59  1  1
 22 23  1  0
 22 24  1  0
 22 60  1  6
 23 61  1  0
 23 62  1  0
 23 63  1  0
 24 25  1  0
 24 26  1  0
 24 64  1  6
 25 65  1  0
 26 27  1  0
 26 66  1  6
 27 67  1  0
 28 39  1  0
 28 29  1  6
 28 30  1  0
 29 68  1  0
 29 69  1  0
 29 70  1  0
 30 31  1  0
 31 32  1  0
 31 33  1  0
 31 34  1  0
 32 71  1  0
 32 72  1  0
 32 73  1  0
 33 74  1  0
 33 75  1  0
 33 76  1  0
 34 41  1  0
 34 35  1  0
 34 77  1  6
 35 36  1  0
 35 41  1  0
 35 78  1  1
 36 39  1  0
 36 37  1  0
 36 79  1  6
 37 38  1  0
 38 39  1  0
 38 80  1  1
 39 40  1  6
 40 81  1  0
 40 82  1  0
 40 83  1  0
 41 42  1  0
 41 43  1  0
 42 84  1  0
 42 85  1  0
 42 86  1  0
 43 87  1  0
 43 88  1  0
 43 89  1  0
M  END
>  <i_m_ct_stereo_status>  (393) 
1

>  <s_m_source_file>  (393) 
/var/tmp/pbs.5076255.sched01/tmpg_ssl3dq/162k0u29fl7.sdf

>  <i_m_source_file_index>  (393) 
26

>  <i_lp_mmshare_version>  (393) 
48012

>  <i_f3d_flags>  (393) 
0

>  <s_epik_input>  (393) 
W09IXVtDQEBIXTFbQ0BIXShbT0hdKVtDQEhdKFtDSDNdKVtDQEBdKE8yKShDKFtDSDJdW0NIMl0zKT1DNFtDSDNdKVtDQEBIXTJbQ0BASF01W0NASF0oT1tDQEBdMShPW0NIM10pW0NAXTYoW09IXSlbQ0BASF03W0NAQF0zNDUpW0NASF0oT082KVtDQEhdOFtDQF05KFtDSDNdKVtDQEBdNyhbQ0gzXSlPQyhbQ0gzXSkoW0NIM10pW0NASF0xW0NASF0oW0NAQEhdOU84KUMxKFtDSDNdKVtDSDNd

>  <s_epik_cmdline>  (393) 
J2VwaWtfcHl0aG9uJywgJy1waHQnLCAnMi4wJywgJy1waCcsICc3LjAnLCAnLXRuJywgJzgnLCAnLW1hJywgJzIwMCcsICctaW1hZScsICc8aW5maWxlLm1hZT4nLCAnLW9tYWUnLCAnPG91dGZpbGUubWFlPic=

>  <r_epik_Ionization_Penalty>  (393) 
0.000733936

>  <r_epik_Ionization_Penalty_Charging>  (393) 
0

>  <r_epik_Ionization_Penalty_Neutral>  (393) 
0.000733936

>  <r_epik_State_Penalty>  (393) 
0.00046593

>  <r_epik_Charging_Adjusted_Penalty>  (393) 
0.00046593

>  <i_epik_Tot_Q>  (393) 
0

>  <i_epik_Tot_abs_Q>  (393) 
0

>  <s_lp_Force_Field>  (393) 
OPLS3e

>  <r_lp_Energy>  (393) 
314.097

>  <b_lp_Chiralities_Consistent>  (393) 
1

>  <s_lp_Variant>  (393) 
104:0-1

>  <s_i_glide_gridfile>  (393) 
pfpi4k_grid

>  <i_i_glide_lignum>  (393) 
26

>  <i_i_glide_rotatable_bonds>  (393) 
4

>  <r_i_docking_score>  (393) 
-2.1671

>  <r_i_glide_ligand_efficiency>  (393) 
-0.0503977

>  <r_i_glide_ligand_efficiency_sa>  (393) 
-0.176563

>  <r_i_glide_ligand_efficiency_ln>  (393) 
-0.455159

>  <r_i_glide_gscore>  (393) 
-2.1671

>  <r_i_glide_lipo>  (393) 
-0.365034

>  <r_i_glide_hbond>  (393) 
0

>  <r_i_glide_metal>  (393) 
-0

>  <r_i_glide_rewards>  (393) 
-0.0501607

>  <r_i_glide_evdw>  (393) 
-27.1704

>  <r_i_glide_ecoul>  (393) 
-2.62259

>  <r_i_glide_erotb>  (393) 
0

>  <r_i_glide_esite>  (393) 
0

>  <r_i_glide_emodel>  (393) 
-32.2997

>  <r_i_glide_energy>  (393) 
-29.793

>  <r_i_glide_einternal>  (393) 
2.41784

>  <r_i_glide_intrahb_reward>  (393) 
-0

>  <i_i_glide_confnum>  (393) 
1

>  <i_i_glide_posenum>  (393) 
1

>  <r_i_glide_eff_state_penalty>  (393) 
0

>  <ligand_id>  (393) 
104

>  <original_smiles>  (393) 
COC12OC3C4OOC1(O)C(C15CCC(=C1C)C1(OC1C35)C(C)C(O)C2O)C1(C)OC(C)(C)C2C(C3OC4C31C)C2(C)C

>  <smiles>  (393) 
[H]OC1([H])C([H])(O[H])C([H])(C([H])([H])[H])C23OC2([H])C2([H])C4([H])OC1(OC([H])([H])[H])C1(O[H])OOC4([H])C4([H])OC5([H])C6([H])C([H])(C(C([H])([H])[H])(C([H])([H])[H])OC(C([H])([H])[H])(C1([H])C21C(C([H])([H])[H])=C3C([H])([H])C1([H])[H])C45C([H])([H])[H])C6(C([H])([H])[H])C([H])([H])[H]

$$$$
104:0:2
     RDKit          3D

 89 98  0  0  1  0  0  0  0  0999 V2000
    7.0642   -2.8668    0.3371 C   0  0  0  0  0  0  0  0  0  0  0  0
    5.6654   -3.1552    0.2164 O   0  0  0  0  0  0  0  0  0  0  0  0
    4.8468   -2.9723    1.3614 C   0  0  2  0  0  0  0  0  0  0  0  0
    5.6479   -3.1959    2.4835 O   0  0  0  0  0  0  0  0  0  0  0  0
    5.2717   -4.1581    3.4396 C   0  0  2  0  0  0  0  0  0  0  0  0
    5.4473   -5.6375    2.9915 C   0  0  2  0  0  0  0  0  0  0  0  0
    5.6984   -5.5743    1.5902 O   0  0  0  0  0  0  0  0  0  0  0  0
    4.4367   -5.3507    0.7779 O   0  0  0  0  0  0  0  0  0  0  0  0
    3.7332   -4.1759    1.1189 C   0  0  2  0  0  0  0  0  0  0  0  0
    2.9431   -3.7705    0.0202 O   0  0  0  0  0  0  0  0  0  0  0  0
    2.6224   -4.6852    2.2150 C   0  0  2  0  0  0  0  0  0  0  0  0
    2.6094   -3.6567    3.4268 C   0  0  1  0  0  0  0  0  0  0  0  0
    1.7966   -2.4236    2.7392 C   0  0  0  0  0  0  0  0  0  0  0  0
    0.9692   -1.6680    3.7543 C   0  0  0  0  0  0  0  0  0  0  0  0
    1.7466   -2.1246    4.8983 C   0  0  0  0  0  0  0  0  0  0  0  0
    1.7387   -3.4653    4.6627 C   0  0  0  0  0  0  0  0  0  0  0  0
    1.6369   -4.4694    5.7922 C   0  0  0  0  0  0  0  0  0  0  0  0
    3.1420   -1.4211    4.8322 C   0  0  1  0  0  0  0  0  0  0  0  0
    3.8534   -1.7877    6.0126 O   0  0  0  0  0  0  0  0  0  0  0  0
    4.3558   -2.3181    4.8007 C   0  0  1  0  0  0  0  0  0  0  0  0
    4.0310   -3.6414    4.1740 C   0  0  2  0  0  0  0  0  0  0  0  0
    3.5509   -0.2213    3.8815 C   0  0  1  0  0  0  0  0  0  0  0  0
    4.0195    0.9677    4.7495 C   0  0  0  0  0  0  0  0  0  0  0  0
    4.5860   -0.4649    2.6544 C   0  0  1  0  0  0  0  0  0  0  0  0
    5.9406   -0.4012    3.0479 O   0  0  0  0  0  0  0  0  0  0  0  0
    4.4244   -1.3930    1.3331 C   0  0  1  0  0  0  0  0  0  0  0  0
    5.1509   -0.6600    0.3496 O   0  0  0  0  0  0  0  0  0  0  0  0
    2.1834   -6.2665    2.2857 C   0  0  2  0  0  0  0  0  0  0  0  0
    1.4861   -6.6458    0.9472 C   0  0  0  0  0  0  0  0  0  0  0  0
    1.1384   -6.2711    3.3096 O   0  0  0  0  0  0  0  0  0  0  0  0
    0.2238   -7.3624    3.6288 C   0  0  0  0  0  0  0  0  0  0  0  0
   -0.4752   -6.9317    4.9307 C   0  0  0  0  0  0  0  0  0  0  0  0
   -0.9258   -7.5230    2.6057 C   0  0  0  0  0  0  0  0  0  0  0  0
    1.0152   -8.6559    3.7773 C   0  0  1  0  0  0  0  0  0  0  0  0
    2.2756   -8.4612    4.6024 C   0  0  2  0  0  0  0  0  0  0  0  0
    3.4240   -8.3799    3.6334 C   0  0  2  0  0  0  0  0  0  0  0  0
    4.6968   -7.8635    4.1181 O   0  0  0  0  0  0  0  0  0  0  0  0
    4.3588   -6.6104    3.4961 C   0  0  2  0  0  0  0  0  0  0  0  0
    3.3879   -7.2820    2.5422 C   0  0  2  0  0  0  0  0  0  0  0  0
    3.9338   -8.0182    1.2806 C   0  0  0  0  0  0  0  0  0  0  0  0
    1.3414   -9.6185    4.9100 C   0  0  0  0  0  0  0  0  0  0  0  0
    0.5863   -9.6455    6.2302 C   0  0  0  0  0  0  0  0  0  0  0  0
    1.7381  -11.0449    4.5459 C   0  0  0  0  0  0  0  0  0  0  0  0
    7.5052   -2.8220   -0.6575 H   0  0  0  0  0  0  0  0  0  0  0  0
    7.5784   -3.6468    0.8968 H   0  0  0  0  0  0  0  0  0  0  0  0
    7.2690   -1.9135    0.8279 H   0  0  0  0  0  0  0  0  0  0  0  0
    6.0558   -4.0854    4.1894 H   0  0  0  0  0  0  0  0  0  0  0  0
    6.4029   -5.9794    3.4006 H   0  0  0  0  0  0  0  0  0  0  0  0
    3.5457   -3.5637   -0.6788 H   0  0  0  0  0  0  0  0  0  0  0  0
    1.6916   -4.4634    1.7200 H   0  0  0  0  0  0  0  0  0  0  0  0
    2.3427   -1.6671    2.2806 H   0  0  0  0  0  0  0  0  0  0  0  0
    1.0441   -2.6562    2.0054 H   0  0  0  0  0  0  0  0  0  0  0  0
    0.8467   -0.5947    3.6283 H   0  0  0  0  0  0  0  0  0  0  0  0
   -0.0421   -2.0828    3.8306 H   0  0  0  0  0  0  0  0  0  0  0  0
    2.0877   -5.4234    5.5407 H   0  0  0  0  0  0  0  0  0  0  0  0
    0.5798   -4.6140    5.9991 H   0  0  0  0  0  0  0  0  0  0  0  0
    2.0983   -4.0858    6.7006 H   0  0  0  0  0  0  0  0  0  0  0  0
    5.3782   -1.9816    4.7130 H   0  0  0  0  0  0  0  0  0  0  0  0
    4.0075   -4.2862    5.0450 H   0  0  0  0  0  0  0  0  0  0  0  0
    2.6716    0.1939    3.4024 H   0  0  0  0  0  0  0  0  0  0  0  0
    4.9472    0.7471    5.2831 H   0  0  0  0  0  0  0  0  0  0  0  0
    3.2695    1.2330    5.4982 H   0  0  0  0  0  0  0  0  0  0  0  0
    4.2007    1.8596    4.1440 H   0  0  0  0  0  0  0  0  0  0  0  0
    4.4924    0.5260    2.2130 H   0  0  0  0  0  0  0  0  0  0  0  0
    6.4702   -0.2688    2.2747 H   0  0  0  0  0  0  0  0  0  0  0  0
    3.4805   -1.2982    0.8070 H   0  0  0  0  0  0  0  0  0  0  0  0
    4.7054    0.1514    0.1894 H   0  0  0  0  0  0  0  0  0  0  0  0
    2.0784   -6.3534    0.0814 H   0  0  0  0  0  0  0  0  0  0  0  0
    0.5225   -6.1566    0.8225 H   0  0  0  0  0  0  0  0  0  0  0  0
    1.3165   -7.7223    0.8760 H   0  0  0  0  0  0  0  0  0  0  0  0
   -1.2039   -7.6792    5.2469 H   0  0  0  0  0  0  0  0  0  0  0  0
   -1.0091   -5.9899    4.8002 H   0  0  0  0  0  0  0  0  0  0  0  0
    0.2189   -6.7896    5.7529 H   0  0  0  0  0  0  0  0  0  0  0  0
   -1.7596   -8.0867    3.0264 H   0  0  0  0  0  0  0  0  0  0  0  0
   -0.6478   -8.0490    1.6962 H   0  0  0  0  0  0  0  0  0  0  0  0
   -1.3264   -6.5621    2.3092 H   0  0  0  0  0  0  0  0  0  0  0  0
    1.1325   -9.1378    2.8062 H   0  0  0  0  0  0  0  0  0  0  0  0
    2.2672   -7.6645    5.3443 H   0  0  0  0  0  0  0  0  0  0  0  0
    3.6092   -9.3681    3.2052 H   0  0  0  0  0  0  0  0  0  0  0  0
    3.7619   -6.1160    4.2517 H   0  0  0  0  0  0  0  0  0  0  0  0
    4.9575   -8.3639    1.4521 H   0  0  0  0  0  0  0  0  0  0  0  0
    3.9428   -7.4760    0.3463 H   0  0  0  0  0  0  0  0  0  0  0  0
    3.3439   -8.9115    1.0705 H   0  0  0  0  0  0  0  0  0  0  0  0
    1.1137  -10.2531    6.9531 H   0  0  0  0  0  0  0  0  0  0  0  0
   -0.4197  -10.0450    6.0859 H   0  0  0  0  0  0  0  0  0  0  0  0
    0.5145   -8.6564    6.6749 H   0  0  0  0  0  0  0  0  0  0  0  0
    2.4473  -11.4418    5.2748 H   0  0  0  0  0  0  0  0  0  0  0  0
    2.2039  -11.0892    3.5602 H   0  0  0  0  0  0  0  0  0  0  0  0
    0.8652  -11.7017    4.5308 H   0  0  0  0  0  0  0  0  0  0  0  0
  1  2  1  0
  1 44  1  0
  1 45  1  0
  1 46  1  0
  3  2  1  6
  3  9  1  0
  3 26  1  0
  3  4  1  0
  4  5  1  0
  5 21  1  0
  5  6  1  0
  5 47  1  1
  6 38  1  0
  6  7  1  0
  6 48  1  1
  7  8  1  0
  8  9  1  0
  9 10  1  6
  9 11  1  0
 10 49  1  0
 11 12  1  0
 11 28  1  0
 11 50  1  6
 12 16  1  0
 12 21  1  0
 12 13  1  6
 13 14  1  0
 13 51  1  0
 13 52  1  0
 14 15  1  0
 14 53  1  0
 14 54  1  0
 15 16  2  0
 15 18  1  0
 16 17  1  0
 17 55  1  0
 17 56  1  0
 17 57  1  0
 18 20  1  0
 18 19  1  1
 18 22  1  0
 19 20  1  0
 20 21  1  0
 20 58  1  6
 21 59  1  1
 22 23  1  0
 22 24  1  0
 22 60  1  6
 23 61  1  0
 23 62  1  0
 23 63  1  0
 24 25  1  0
 24 26  1  0
 24 64  1  6
 25 65  1  0
 26 27  1  0
 26 66  1  6
 27 67  1  0
 28 39  1  0
 28 29  1  6
 28 30  1  0
 29 68  1  0
 29 69  1  0
 29 70  1  0
 30 31  1  0
 31 32  1  0
 31 33  1  0
 31 34  1  0
 32 71  1  0
 32 72  1  0
 32 73  1  0
 33 74  1  0
 33 75  1  0
 33 76  1  0
 34 41  1  0
 34 35  1  0
 34 77  1  6
 35 36  1  0
 35 41  1  0
 35 78  1  1
 36 39  1  0
 36 37  1  0
 36 79  1  6
 37 38  1  0
 38 39  1  0
 38 80  1  1
 39 40  1  6
 40 81  1  0
 40 82  1  0
 40 83  1  0
 41 42  1  0
 41 43  1  0
 42 84  1  0
 42 85  1  0
 42 86  1  0
 43 87  1  0
 43 88  1  0
 43 89  1  0
M  END
>  <i_m_ct_stereo_status>  (394) 
1

>  <s_m_source_file>  (394) 
/var/tmp/pbs.5076255.sched01/tmpg_ssl3dq/162k0u29fl7.sdf

>  <i_m_source_file_index>  (394) 
26

>  <i_lp_mmshare_version>  (394) 
48012

>  <i_f3d_flags>  (394) 
0

>  <s_epik_input>  (394) 
W09IXVtDQEBIXTFbQ0BIXShbT0hdKVtDQEhdKFtDSDNdKVtDQEBdKE8yKShDKFtDSDJdW0NIMl0zKT1DNFtDSDNdKVtDQEBIXTJbQ0BASF01W0NASF0oT1tDQEBdMShPW0NIM10pW0NAXTYoW09IXSlbQ0BASF03W0NAQF0zNDUpW0NASF0oT082KVtDQEhdOFtDQF05KFtDSDNdKVtDQEBdNyhbQ0gzXSlPQyhbQ0gzXSkoW0NIM10pW0NASF0xW0NASF0oW0NAQEhdOU84KUMxKFtDSDNdKVtDSDNd

>  <s_epik_cmdline>  (394) 
J2VwaWtfcHl0aG9uJywgJy1waHQnLCAnMi4wJywgJy1waCcsICc3LjAnLCAnLXRuJywgJzgnLCAnLW1hJywgJzIwMCcsICctaW1hZScsICc8aW5maWxlLm1hZT4nLCAnLW9tYWUnLCAnPG91dGZpbGUubWFlPic=

>  <r_epik_Ionization_Penalty>  (394) 
0.000733936

>  <r_epik_Ionization_Penalty_Charging>  (394) 
0

>  <r_epik_Ionization_Penalty_Neutral>  (394) 
0.000733936

>  <r_epik_State_Penalty>  (394) 
0.00046593

>  <r_epik_Charging_Adjusted_Penalty>  (394) 
0.00046593

>  <i_epik_Tot_Q>  (394) 
0

>  <i_epik_Tot_abs_Q>  (394) 
0

>  <s_lp_Force_Field>  (394) 
OPLS3e

>  <r_lp_Energy>  (394) 
314.097

>  <b_lp_Chiralities_Consistent>  (394) 
1

>  <s_lp_Variant>  (394) 
104:0-1

>  <s_i_glide_gridfile>  (394) 
pfpi4k_grid

>  <i_i_glide_lignum>  (394) 
26

>  <i_i_glide_rotatable_bonds>  (394) 
4

>  <r_i_docking_score>  (394) 
-2.05345

>  <r_i_glide_ligand_efficiency>  (394) 
-0.0477545

>  <r_i_glide_ligand_efficiency_sa>  (394) 
-0.167303

>  <r_i_glide_ligand_efficiency_ln>  (394) 
-0.431287

>  <r_i_glide_gscore>  (394) 
-2.05345

>  <r_i_glide_lipo>  (394) 
-0.268458

>  <r_i_glide_hbond>  (394) 
0

>  <r_i_glide_metal>  (394) 
-0

>  <r_i_glide_rewards>  (394) 
-0.0497322

>  <r_i_glide_evdw>  (394) 
-26.8466

>  <r_i_glide_ecoul>  (394) 
-2.61951

>  <r_i_glide_erotb>  (394) 
0

>  <r_i_glide_esite>  (394) 
0

>  <r_i_glide_emodel>  (394) 
-32.9756

>  <r_i_glide_energy>  (394) 
-29.4661

>  <r_i_glide_einternal>  (394) 
0.708287

>  <r_i_glide_intrahb_reward>  (394) 
-0

>  <i_i_glide_confnum>  (394) 
1

>  <i_i_glide_posenum>  (394) 
9

>  <r_i_glide_eff_state_penalty>  (394) 
0

>  <ligand_id>  (394) 
104

>  <original_smiles>  (394) 
COC12OC3C4OOC1(O)C(C15CCC(=C1C)C1(OC1C35)C(C)C(O)C2O)C1(C)OC(C)(C)C2C(C3OC4C31C)C2(C)C

>  <smiles>  (394) 
[H]OC1([H])C([H])(O[H])C([H])(C([H])([H])[H])C23OC2([H])C2([H])C4([H])OC1(OC([H])([H])[H])C1(O[H])OOC4([H])C4([H])OC5([H])C6([H])C([H])(C(C([H])([H])[H])(C([H])([H])[H])OC(C([H])([H])[H])(C1([H])C21C(C([H])([H])[H])=C3C([H])([H])C1([H])[H])C45C([H])([H])[H])C6(C([H])([H])[H])C([H])([H])[H]

$$$$
105:0:0
     RDKit          3D

 58 64  0  0  1  0  0  0  0  0999 V2000
   -0.7441   -7.5368    2.6986 C   0  0  0  0  0  0  0  0  0  0  0  0
    0.6758   -7.0227    2.6105 C   0  0  0  0  0  0  0  0  0  0  0  0
    1.4304   -6.8876    1.5116 C   0  0  0  0  0  0  0  0  0  0  0  0
    2.8172   -6.4567    1.9142 C   0  0  1  0  0  0  0  0  0  0  0  0
    3.7927   -5.6553    1.0290 C   0  0  2  0  0  0  0  0  0  0  0  0
    5.1605   -5.7172    1.7841 C   0  0  0  0  0  0  0  0  0  0  0  0
    5.0726   -5.7116    3.3246 C   0  0  0  0  0  0  0  0  0  0  0  0
    6.3008   -5.6769    3.9884 N   0  0  0  0  0  0  0  0  0  0  0  0
    6.4421   -5.6508    5.3323 C   0  0  0  0  0  0  0  0  0  0  0  0
    7.5688   -5.6170    5.8440 O   0  0  0  0  0  0  0  0  0  0  0  0
    5.1977   -5.6466    6.0963 C   0  0  0  0  0  0  0  0  0  0  0  0
    3.9973   -5.6849    5.4679 C   0  0  0  0  0  0  0  0  0  0  0  0
    3.9161   -5.7271    4.0188 C   0  0  0  0  0  0  0  0  0  0  0  0
    2.5904   -5.7515    3.2700 C   0  0  2  0  0  0  0  0  0  0  0  0
    1.4456   -6.6123    3.8605 C   0  0  0  0  0  0  0  0  0  0  0  0
    2.0627   -4.3031    3.0893 C   0  0  0  0  0  0  0  0  0  0  0  0
    2.6175   -3.4913    1.8915 C   0  0  1  0  0  0  0  0  0  0  0  0
    3.4523   -2.2038    2.0788 C   0  0  1  0  0  0  0  0  0  0  0  0
    3.7912   -1.6174    3.4434 C   0  0  1  0  0  0  0  0  0  0  0  0
    4.7603   -2.2334    4.4509 C   0  0  0  0  0  0  0  0  0  0  0  0
    5.3749   -0.9416    4.6761 O   0  0  0  0  0  0  0  0  0  0  0  0
    4.8192   -0.4814    3.4104 C   0  0  1  0  0  0  0  0  0  0  0  0
    5.7810   -0.5696    2.3429 O   0  0  0  0  0  0  0  0  0  0  0  0
    5.3473   -1.0213    1.0564 C   0  0  0  0  0  0  0  0  0  0  0  0
    4.6957   -2.3926    1.2484 C   0  0  2  0  0  0  0  0  0  0  0  0
    4.1706   -3.1855    0.0373 C   0  0  1  0  0  0  0  0  0  0  0  0
    5.2183   -3.6918   -0.9719 C   0  0  0  0  0  0  0  0  0  0  0  0
    3.2267   -4.2503    0.6716 C   0  0  1  0  0  0  0  0  0  0  0  0
    2.2144   -4.4938   -0.2829 O   0  0  0  0  0  0  0  0  0  0  0  0
    7.1398   -5.6668    3.4155 H   0  0  0  0  0  0  0  0  0  0  0  0
   -0.7866   -8.4293    3.3231 H   0  0  0  0  0  0  0  0  0  0  0  0
   -1.1417   -7.8009    1.7149 H   0  0  0  0  0  0  0  0  0  0  0  0
   -1.3991   -6.7932    3.1519 H   0  0  0  0  0  0  0  0  0  0  0  0
    1.1348   -7.1247    0.4992 H   0  0  0  0  0  0  0  0  0  0  0  0
    3.2949   -7.4214    2.0923 H   0  0  0  0  0  0  0  0  0  0  0  0
    3.9431   -6.1949    0.0956 H   0  0  0  0  0  0  0  0  0  0  0  0
    5.6227   -6.6705    1.5318 H   0  0  0  0  0  0  0  0  0  0  0  0
    5.8897   -4.9770    1.4694 H   0  0  0  0  0  0  0  0  0  0  0  0
    5.2321   -5.6122    7.1722 H   0  0  0  0  0  0  0  0  0  0  0  0
    3.0991   -5.6855    6.0481 H   0  0  0  0  0  0  0  0  0  0  0  0
    0.8085   -6.0630    4.5612 H   0  0  0  0  0  0  0  0  0  0  0  0
    1.8099   -7.5162    4.3519 H   0  0  0  0  0  0  0  0  0  0  0  0
    0.9733   -4.3504    2.9482 H   0  0  0  0  0  0  0  0  0  0  0  0
    2.1862   -3.7497    4.0148 H   0  0  0  0  0  0  0  0  0  0  0  0
    1.7151   -3.0327    1.5166 H   0  0  0  0  0  0  0  0  0  0  0  0
    2.8750   -1.4263    1.5658 H   0  0  0  0  0  0  0  0  0  0  0  0
    2.9127   -1.2979    3.9879 H   0  0  0  0  0  0  0  0  0  0  0  0
    4.2801   -2.6280    5.3430 H   0  0  0  0  0  0  0  0  0  0  0  0
    5.4479   -2.9502    4.0214 H   0  0  0  0  0  0  0  0  0  0  0  0
    4.3436    0.4947    3.5097 H   0  0  0  0  0  0  0  0  0  0  0  0
    4.6607   -0.3128    0.5906 H   0  0  0  0  0  0  0  0  0  0  0  0
    6.2267   -1.1066    0.4195 H   0  0  0  0  0  0  0  0  0  0  0  0
    5.4061   -3.0034    1.7976 H   0  0  0  0  0  0  0  0  0  0  0  0
    3.5420   -2.4785   -0.5168 H   0  0  0  0  0  0  0  0  0  0  0  0
    5.9618   -4.3557   -0.5397 H   0  0  0  0  0  0  0  0  0  0  0  0
    5.7571   -2.8529   -1.4104 H   0  0  0  0  0  0  0  0  0  0  0  0
    4.7355   -4.2307   -1.7877 H   0  0  0  0  0  0  0  0  0  0  0  0
    2.6096   -4.9247   -1.0410 H   0  0  0  0  0  0  0  0  0  0  0  0
  1  2  1  0
  1 31  1  0
  1 32  1  0
  1 33  1  0
  2 15  1  0
  2  3  2  0
  3  4  1  0
  3 34  1  0
  4 14  1  0
  4  5  1  0
  4 35  1  1
  5 28  1  0
  5  6  1  0
  5 36  1  6
  6  7  1  0
  6 37  1  0
  6 38  1  0
  7 13  2  0
  7  8  1  0
  8 30  1  0
  8  9  1  0
  9 10  2  0
  9 11  1  0
 11 12  2  0
 11 39  1  0
 12 13  1  0
 12 40  1  0
 13 14  1  0
 14 15  1  1
 14 16  1  0
 15 41  1  0
 15 42  1  0
 16 17  1  0
 16 43  1  0
 16 44  1  0
 17 28  1  0
 17 18  1  0
 17 45  1  6
 18 25  1  0
 18 19  1  0
 18 46  1  6
 19 22  1  0
 19 20  1  0
 19 47  1  1
 20 21  1  0
 20 48  1  0
 20 49  1  0
 21 22  1  0
 22 23  1  0
 22 50  1  1
 23 24  1  0
 24 25  1  0
 24 51  1  0
 24 52  1  0
 25 26  1  0
 25 53  1  1
 26 27  1  0
 26 28  1  0
 26 54  1  6
 27 55  1  0
 27 56  1  0
 27 57  1  0
 28 29  1  6
 29 58  1  0
M  END
>  <i_m_ct_stereo_status>  (395) 
1

>  <s_m_source_file>  (395) 
/var/tmp/pbs.5076255.sched01/tmpg_ssl3dq/162k0u29fl7.sdf

>  <i_m_source_file_index>  (395) 
27

>  <i_lp_mmshare_version>  (395) 
48012

>  <i_f3d_flags>  (395) 
0

>  <s_epik_input>  (395) 
W25IXTFjKD1PKVtjSF1bY0hdYzJjMVtDSDJdW0NIXShbQ0BASF0oW0NAXTIzNClbQ0hdPUMoW0NIM10pW0NIMl0zKVtDQEBdNShbT0hdKVtDQEBIXShbQ0gyXTQpW0NASF02W0NAQEhdN1tDQEBIXShPW0NIMl03KU9bQ0gyXVtDQEBIXTZbQ0BIXTVbQ0gzXQ==

>  <s_epik_cmdline>  (395) 
J2VwaWtfcHl0aG9uJywgJy1waHQnLCAnMi4wJywgJy1waCcsICc3LjAnLCAnLXRuJywgJzgnLCAnLW1hJywgJzIwMCcsICctaW1hZScsICc8aW5maWxlLm1hZT4nLCAnLW9tYWUnLCAnPG91dGZpbGUubWFlPic=

>  <r_lp_tautomer_probability>  (395) 
1

>  <r_epik_Ionization_Penalty>  (395) 
9.25955e-06

>  <r_epik_Ionization_Penalty_Charging>  (395) 
9.12117e-06

>  <r_epik_Ionization_Penalty_Neutral>  (395) 
1.38381e-07

>  <r_epik_State_Penalty>  (395) 
-0

>  <r_epik_Charging_Adjusted_Penalty>  (395) 
9.12117e-06

>  <i_epik_Tot_Q>  (395) 
0

>  <i_epik_Tot_abs_Q>  (395) 
0

>  <s_epik_Chemistry_Notes>  (395) 
This compound contains an acetal/aminal-like group ( X-CH(R)-Y where X, Y are N, S, or O) that may be acid/base labile, releasing an aldehyde.

>  <s_lp_Force_Field>  (395) 
OPLS3e

>  <r_lp_Energy>  (395) 
63.3753

>  <b_lp_Chiralities_Consistent>  (395) 
1

>  <s_lp_Variant>  (395) 
105:0-1

>  <s_i_glide_gridfile>  (395) 
pfpi4k_grid

>  <i_i_glide_lignum>  (395) 
27

>  <i_i_glide_rotatable_bonds>  (395) 
1

>  <r_i_docking_score>  (395) 
-3.45727

>  <r_i_glide_ligand_efficiency>  (395) 
-0.119216

>  <r_i_glide_ligand_efficiency_sa>  (395) 
-0.36627

>  <r_i_glide_ligand_efficiency_ln>  (395) 
-0.791628

>  <r_i_glide_gscore>  (395) 
-3.45727

>  <r_i_glide_lipo>  (395) 
-0.309898

>  <r_i_glide_hbond>  (395) 
-0.350926

>  <r_i_glide_metal>  (395) 
-0

>  <r_i_glide_rewards>  (395) 
-0.858685

>  <r_i_glide_evdw>  (395) 
-25.408

>  <r_i_glide_ecoul>  (395) 
-4.44911

>  <r_i_glide_erotb>  (395) 
0

>  <r_i_glide_esite>  (395) 
0

>  <r_i_glide_emodel>  (395) 
-36.1473

>  <r_i_glide_energy>  (395) 
-29.8571

>  <r_i_glide_einternal>  (395) 
0.00296887

>  <r_i_glide_intrahb_reward>  (395) 
-0

>  <i_i_glide_confnum>  (395) 
1

>  <i_i_glide_posenum>  (395) 
5

>  <r_i_glide_eff_state_penalty>  (395) 
0

>  <ligand_id>  (395) 
105

>  <original_smiles>  (395) 
CC1=CC2C3Cc4[nH]c(=O)ccc4C2(C1)CC1C2C4COC4OCC2C(C)C13O

>  <smiles>  (395) 
[H]OC12C3([H])C([H])([H])c4c(c([H])c([H])c(=O)n4[H])C4(C([H])([H])C(C([H])([H])[H])=C([H])C34[H])C([H])([H])C1([H])C1([H])C3([H])C([H])([H])OC3([H])OC([H])([H])C1([H])C2([H])C([H])([H])[H]

$$$$
105:0:1
     RDKit          3D

 58 64  0  0  1  0  0  0  0  0999 V2000
   -0.4744   -7.3570    1.6827 C   0  0  0  0  0  0  0  0  0  0  0  0
    0.9089   -6.7485    1.7034 C   0  0  0  0  0  0  0  0  0  0  0  0
    1.6081   -6.2547    0.6730 C   0  0  0  0  0  0  0  0  0  0  0  0
    2.9885   -5.8852    1.1417 C   0  0  1  0  0  0  0  0  0  0  0  0
    3.8881   -4.8096    0.4968 C   0  0  2  0  0  0  0  0  0  0  0  0
    5.2913   -5.0099    1.1688 C   0  0  0  0  0  0  0  0  0  0  0  0
    5.2571   -5.4365    2.6455 C   0  0  0  0  0  0  0  0  0  0  0  0
    6.5131   -5.5304    3.2631 N   0  0  0  0  0  0  0  0  0  0  0  0
    6.7082   -5.8689    4.5605 C   0  0  0  0  0  0  0  0  0  0  0  0
    7.8396   -5.9175    5.0370 O   0  0  0  0  0  0  0  0  0  0  0  0
    5.4845   -6.1449    5.3182 C   0  0  0  0  0  0  0  0  0  0  0  0
    4.2683   -6.0772    4.7352 C   0  0  0  0  0  0  0  0  0  0  0  0
    4.1254   -5.7145    3.3350 C   0  0  0  0  0  0  0  0  0  0  0  0
    2.7807   -5.6043    2.6387 C   0  0  2  0  0  0  0  0  0  0  0  0
    1.7010   -6.6647    2.9912 C   0  0  0  0  0  0  0  0  0  0  0  0
    2.1820   -4.1907    2.8895 C   0  0  0  0  0  0  0  0  0  0  0  0
    2.6142   -3.0376    1.9417 C   0  0  1  0  0  0  0  0  0  0  0  0
    3.4150   -1.8281    2.4766 C   0  0  1  0  0  0  0  0  0  0  0  0
    3.7770   -1.6279    3.9449 C   0  0  1  0  0  0  0  0  0  0  0  0
    4.8139   -2.4458    4.7116 C   0  0  0  0  0  0  0  0  0  0  0  0
    5.3810   -1.2328    5.2705 O   0  0  0  0  0  0  0  0  0  0  0  0
    4.7543   -0.4659    4.2110 C   0  0  1  0  0  0  0  0  0  0  0  0
    5.6815   -0.2025    3.1378 O   0  0  0  0  0  0  0  0  0  0  0  0
    5.2140   -0.3067    1.7897 C   0  0  0  0  0  0  0  0  0  0  0  0
    4.6398   -1.7080    1.5963 C   0  0  2  0  0  0  0  0  0  0  0  0
    4.1112   -2.1482    0.2232 C   0  0  1  0  0  0  0  0  0  0  0  0
    5.1468   -2.2905   -0.9069 C   0  0  0  0  0  0  0  0  0  0  0  0
    3.2304   -3.3930    0.5522 C   0  0  1  0  0  0  0  0  0  0  0  0
    2.2188   -3.4157   -0.4437 O   0  0  0  0  0  0  0  0  0  0  0  0
    7.3249   -5.3104    2.7040 H   0  0  0  0  0  0  0  0  0  0  0  0
   -0.4418   -8.3883    2.0339 H   0  0  0  0  0  0  0  0  0  0  0  0
   -0.8752   -7.3700    0.6721 H   0  0  0  0  0  0  0  0  0  0  0  0
   -1.1507   -6.8023    2.3298 H   0  0  0  0  0  0  0  0  0  0  0  0
    1.3053   -6.2059   -0.3576 H   0  0  0  0  0  0  0  0  0  0  0  0
    3.5227   -6.8320    1.0208 H   0  0  0  0  0  0  0  0  0  0  0  0
    4.0256   -5.0558   -0.5567 H   0  0  0  0  0  0  0  0  0  0  0  0
    5.7889   -5.8226    0.6408 H   0  0  0  0  0  0  0  0  0  0  0  0
    5.9688   -4.1725    1.0539 H   0  0  0  0  0  0  0  0  0  0  0  0
    5.5624   -6.4114    6.3610 H   0  0  0  0  0  0  0  0  0  0  0  0
    3.3898   -6.2898    5.3161 H   0  0  0  0  0  0  0  0  0  0  0  0
    1.0773   -6.3668    3.8360 H   0  0  0  0  0  0  0  0  0  0  0  0
    2.1331   -7.6438    3.2071 H   0  0  0  0  0  0  0  0  0  0  0  0
    1.0959   -4.2691    2.7789 H   0  0  0  0  0  0  0  0  0  0  0  0
    2.3071   -3.9125    3.9318 H   0  0  0  0  0  0  0  0  0  0  0  0
    1.6555   -2.5698    1.7176 H   0  0  0  0  0  0  0  0  0  0  0  0
    2.7898   -0.9691    2.2227 H   0  0  0  0  0  0  0  0  0  0  0  0
    2.8939   -1.5176    4.5774 H   0  0  0  0  0  0  0  0  0  0  0  0
    4.3942   -3.0977    5.4782 H   0  0  0  0  0  0  0  0  0  0  0  0
    5.5356   -2.9693    4.0826 H   0  0  0  0  0  0  0  0  0  0  0  0
    4.2428    0.4270    4.5796 H   0  0  0  0  0  0  0  0  0  0  0  0
    4.4797    0.4638    1.5500 H   0  0  0  0  0  0  0  0  0  0  0  0
    6.0642   -0.1616    1.1246 H   0  0  0  0  0  0  0  0  0  0  0  0
    5.3975   -2.3995    1.9376 H   0  0  0  0  0  0  0  0  0  0  0  0
    3.4380   -1.3466   -0.0943 H   0  0  0  0  0  0  0  0  0  0  0  0
    5.9368   -3.0052   -0.6967 H   0  0  0  0  0  0  0  0  0  0  0  0
    5.6222   -1.3315   -1.1047 H   0  0  0  0  0  0  0  0  0  0  0  0
    4.6571   -2.6077   -1.8280 H   0  0  0  0  0  0  0  0  0  0  0  0
    1.9222   -2.5295   -0.6233 H   0  0  0  0  0  0  0  0  0  0  0  0
  1  2  1  0
  1 31  1  0
  1 32  1  0
  1 33  1  0
  2 15  1  0
  2  3  2  0
  3  4  1  0
  3 34  1  0
  4 14  1  0
  4  5  1  0
  4 35  1  1
  5 28  1  0
  5  6  1  0
  5 36  1  6
  6  7  1  0
  6 37  1  0
  6 38  1  0
  7 13  2  0
  7  8  1  0
  8 30  1  0
  8  9  1  0
  9 10  2  0
  9 11  1  0
 11 12  2  0
 11 39  1  0
 12 13  1  0
 12 40  1  0
 13 14  1  0
 14 15  1  1
 14 16  1  0
 15 41  1  0
 15 42  1  0
 16 17  1  0
 16 43  1  0
 16 44  1  0
 17 28  1  0
 17 18  1  0
 17 45  1  6
 18 25  1  0
 18 19  1  0
 18 46  1  6
 19 22  1  0
 19 20  1  0
 19 47  1  1
 20 21  1  0
 20 48  1  0
 20 49  1  0
 21 22  1  0
 22 23  1  0
 22 50  1  1
 23 24  1  0
 24 25  1  0
 24 51  1  0
 24 52  1  0
 25 26  1  0
 25 53  1  1
 26 27  1  0
 26 28  1  0
 26 54  1  6
 27 55  1  0
 27 56  1  0
 27 57  1  0
 28 29  1  6
 29 58  1  0
M  END
>  <i_m_ct_stereo_status>  (396) 
1

>  <s_m_source_file>  (396) 
/var/tmp/pbs.5076255.sched01/tmpg_ssl3dq/162k0u29fl7.sdf

>  <i_m_source_file_index>  (396) 
27

>  <i_lp_mmshare_version>  (396) 
48012

>  <i_f3d_flags>  (396) 
0

>  <s_epik_input>  (396) 
W25IXTFjKD1PKVtjSF1bY0hdYzJjMVtDSDJdW0NIXShbQ0BASF0oW0NAXTIzNClbQ0hdPUMoW0NIM10pW0NIMl0zKVtDQEBdNShbT0hdKVtDQEBIXShbQ0gyXTQpW0NASF02W0NAQEhdN1tDQEBIXShPW0NIMl03KU9bQ0gyXVtDQEBIXTZbQ0BIXTVbQ0gzXQ==

>  <s_epik_cmdline>  (396) 
J2VwaWtfcHl0aG9uJywgJy1waHQnLCAnMi4wJywgJy1waCcsICc3LjAnLCAnLXRuJywgJzgnLCAnLW1hJywgJzIwMCcsICctaW1hZScsICc8aW5maWxlLm1hZT4nLCAnLW9tYWUnLCAnPG91dGZpbGUubWFlPic=

>  <r_lp_tautomer_probability>  (396) 
1

>  <r_epik_Ionization_Penalty>  (396) 
9.25955e-06

>  <r_epik_Ionization_Penalty_Charging>  (396) 
9.12117e-06

>  <r_epik_Ionization_Penalty_Neutral>  (396) 
1.38381e-07

>  <r_epik_State_Penalty>  (396) 
-0

>  <r_epik_Charging_Adjusted_Penalty>  (396) 
9.12117e-06

>  <i_epik_Tot_Q>  (396) 
0

>  <i_epik_Tot_abs_Q>  (396) 
0

>  <s_epik_Chemistry_Notes>  (396) 
This compound contains an acetal/aminal-like group ( X-CH(R)-Y where X, Y are N, S, or O) that may be acid/base labile, releasing an aldehyde.

>  <s_lp_Force_Field>  (396) 
OPLS3e

>  <r_lp_Energy>  (396) 
63.3753

>  <b_lp_Chiralities_Consistent>  (396) 
1

>  <s_lp_Variant>  (396) 
105:0-1

>  <s_i_glide_gridfile>  (396) 
pfpi4k_grid

>  <i_i_glide_lignum>  (396) 
27

>  <i_i_glide_rotatable_bonds>  (396) 
1

>  <r_i_docking_score>  (396) 
-2.90291

>  <r_i_glide_ligand_efficiency>  (396) 
-0.1001

>  <r_i_glide_ligand_efficiency_sa>  (396) 
-0.30754

>  <r_i_glide_ligand_efficiency_ln>  (396) 
-0.664692

>  <r_i_glide_gscore>  (396) 
-2.90291

>  <r_i_glide_lipo>  (396) 
-0.280516

>  <r_i_glide_hbond>  (396) 
-0.218623

>  <r_i_glide_metal>  (396) 
-0

>  <r_i_glide_rewards>  (396) 
-0.796712

>  <r_i_glide_evdw>  (396) 
-24.094

>  <r_i_glide_ecoul>  (396) 
-2.68236

>  <r_i_glide_erotb>  (396) 
0

>  <r_i_glide_esite>  (396) 
0

>  <r_i_glide_emodel>  (396) 
-31.9311

>  <r_i_glide_energy>  (396) 
-26.7764

>  <r_i_glide_einternal>  (396) 
0.183845

>  <r_i_glide_intrahb_reward>  (396) 
-0

>  <i_i_glide_confnum>  (396) 
2

>  <i_i_glide_posenum>  (396) 
36

>  <r_i_glide_eff_state_penalty>  (396) 
0

>  <ligand_id>  (396) 
105

>  <original_smiles>  (396) 
CC1=CC2C3Cc4[nH]c(=O)ccc4C2(C1)CC1C2C4COC4OCC2C(C)C13O

>  <smiles>  (396) 
[H]OC12C3([H])C([H])([H])c4c(c([H])c([H])c(=O)n4[H])C4(C([H])([H])C(C([H])([H])[H])=C([H])C34[H])C([H])([H])C1([H])C1([H])C3([H])C([H])([H])OC3([H])OC([H])([H])C1([H])C2([H])C([H])([H])[H]

$$$$
105:0:2
     RDKit          3D

 58 64  0  0  1  0  0  0  0  0999 V2000
    2.0687  -10.0166    3.4721 C   0  0  0  0  0  0  0  0  0  0  0  0
    2.8468   -8.9127    2.7996 C   0  0  0  0  0  0  0  0  0  0  0  0
    2.6201   -8.3723    1.6033 C   0  0  0  0  0  0  0  0  0  0  0  0
    3.7249   -7.3984    1.2820 C   0  0  1  0  0  0  0  0  0  0  0  0
    3.6020   -6.1634    0.3749 C   0  0  2  0  0  0  0  0  0  0  0  0
    5.0232   -5.6352    0.1282 C   0  0  0  0  0  0  0  0  0  0  0  0
    5.9631   -5.8037    1.3226 C   0  0  0  0  0  0  0  0  0  0  0  0
    7.2375   -5.2978    1.1082 N   0  0  0  0  0  0  0  0  0  0  0  0
    8.2435   -5.3702    1.9891 C   0  0  0  0  0  0  0  0  0  0  0  0
    9.3490   -4.9273    1.6660 O   0  0  0  0  0  0  0  0  0  0  0  0
    7.8738   -5.9227    3.3079 C   0  0  0  0  0  0  0  0  0  0  0  0
    6.6336   -6.4272    3.5312 C   0  0  0  0  0  0  0  0  0  0  0  0
    5.6243   -6.3949    2.4882 C   0  0  0  0  0  0  0  0  0  0  0  0
    4.2238   -6.9645    2.6668 C   0  0  2  0  0  0  0  0  0  0  0  0
    4.0695   -8.2924    3.4551 C   0  0  0  0  0  0  0  0  0  0  0  0
    3.2839   -5.8953    3.2962 C   0  0  0  0  0  0  0  0  0  0  0  0
    2.6115   -4.8542    2.3535 C   0  0  1  0  0  0  0  0  0  0  0  0
    2.9405   -3.3417    2.4482 C   0  0  1  0  0  0  0  0  0  0  0  0
    3.8631   -2.7462    3.4904 C   0  0  1  0  0  0  0  0  0  0  0  0
    5.3759   -2.9257    3.5002 C   0  0  0  0  0  0  0  0  0  0  0  0
    5.5401   -1.5073    3.7617 O   0  0  0  0  0  0  0  0  0  0  0  0
    4.2124   -1.2627    3.2687 C   0  0  1  0  0  0  0  0  0  0  0  0
    4.2473   -0.8341    1.8951 O   0  0  0  0  0  0  0  0  0  0  0  0
    3.2668   -1.3626    1.0069 C   0  0  0  0  0  0  0  0  0  0  0  0
    3.3820   -2.8916    1.0676 C   0  0  2  0  0  0  0  0  0  0  0  0
    2.5184   -3.7510    0.1563 C   0  0  1  0  0  0  0  0  0  0  0  0
    2.7013   -3.6118   -1.3524 C   0  0  0  0  0  0  0  0  0  0  0  0
    2.5143   -5.1755    0.8328 C   0  0  1  0  0  0  0  0  0  0  0  0
    1.2797   -5.8544    0.5893 O   0  0  0  0  0  0  0  0  0  0  0  0
    7.4204   -4.8480    0.2150 H   0  0  0  0  0  0  0  0  0  0  0  0
    2.7178  -10.8698    3.6631 H   0  0  0  0  0  0  0  0  0  0  0  0
    1.2366  -10.3512    2.8496 H   0  0  0  0  0  0  0  0  0  0  0  0
    1.6732   -9.6636    4.4213 H   0  0  0  0  0  0  0  0  0  0  0  0
    1.8387   -8.6728    0.9171 H   0  0  0  0  0  0  0  0  0  0  0  0
    4.4648   -8.0487    0.8058 H   0  0  0  0  0  0  0  0  0  0  0  0
    3.3532   -6.4851   -0.6139 H   0  0  0  0  0  0  0  0  0  0  0  0
    5.4152   -6.2556   -0.6646 H   0  0  0  0  0  0  0  0  0  0  0  0
    5.1084   -4.6382   -0.2907 H   0  0  0  0  0  0  0  0  0  0  0  0
    8.5738   -5.9147    4.1225 H   0  0  0  0  0  0  0  0  0  0  0  0
    6.3626   -6.8253    4.4884 H   0  0  0  0  0  0  0  0  0  0  0  0
    3.9181   -8.1286    4.5232 H   0  0  0  0  0  0  0  0  0  0  0  0
    4.9245   -8.9541    3.3041 H   0  0  0  0  0  0  0  0  0  0  0  0
    2.4584   -6.4257    3.7863 H   0  0  0  0  0  0  0  0  0  0  0  0
    3.8102   -5.3972    4.1040 H   0  0  0  0  0  0  0  0  0  0  0  0
    1.5821   -4.8695    2.7156 H   0  0  0  0  0  0  0  0  0  0  0  0
    1.9640   -2.8774    2.6245 H   0  0  0  0  0  0  0  0  0  0  0  0
    3.5182   -2.8936    4.5081 H   0  0  0  0  0  0  0  0  0  0  0  0
    5.7168   -3.5480    4.3242 H   0  0  0  0  0  0  0  0  0  0  0  0
    5.8132   -3.2225    2.5470 H   0  0  0  0  0  0  0  0  0  0  0  0
    3.6469   -0.6094    3.9342 H   0  0  0  0  0  0  0  0  0  0  0  0
    2.2692   -1.0179    1.2826 H   0  0  0  0  0  0  0  0  0  0  0  0
    3.4745   -0.9982    0.0010 H   0  0  0  0  0  0  0  0  0  0  0  0
    4.4217   -3.1371    0.9041 H   0  0  0  0  0  0  0  0  0  0  0  0
    1.5628   -3.2657    0.2691 H   0  0  0  0  0  0  0  0  0  0  0  0
    3.6805   -3.9265   -1.6985 H   0  0  0  0  0  0  0  0  0  0  0  0
    2.5305   -2.5829   -1.6719 H   0  0  0  0  0  0  0  0  0  0  0  0
    1.9405   -4.2158   -1.8506 H   0  0  0  0  0  0  0  0  0  0  0  0
    1.3554   -6.7360    0.9313 H   0  0  0  0  0  0  0  0  0  0  0  0
  1  2  1  0
  1 31  1  0
  1 32  1  0
  1 33  1  0
  2 15  1  0
  2  3  2  0
  3  4  1  0
  3 34  1  0
  4 14  1  0
  4  5  1  0
  4 35  1  6
  5 28  1  0
  5  6  1  0
  5 36  1  6
  6  7  1  0
  6 37  1  0
  6 38  1  0
  7 13  2  0
  7  8  1  0
  8 30  1  0
  8  9  1  0
  9 10  2  0
  9 11  1  0
 11 12  2  0
 11 39  1  0
 12 13  1  0
 12 40  1  0
 13 14  1  0
 14 15  1  1
 14 16  1  0
 15 41  1  0
 15 42  1  0
 16 17  1  0
 16 43  1  0
 16 44  1  0
 17 28  1  0
 17 18  1  0
 17 45  1  1
 18 25  1  0
 18 19  1  0
 18 46  1  1
 19 22  1  0
 19 20  1  0
 19 47  1  1
 20 21  1  0
 20 48  1  0
 20 49  1  0
 21 22  1  0
 22 23  1  0
 22 50  1  1
 23 24  1  0
 24 25  1  0
 24 51  1  0
 24 52  1  0
 25 26  1  0
 25 53  1  6
 26 27  1  0
 26 28  1  0
 26 54  1  6
 27 55  1  0
 27 56  1  0
 27 57  1  0
 28 29  1  1
 29 58  1  0
M  END
>  <i_m_ct_stereo_status>  (397) 
1

>  <s_m_source_file>  (397) 
/var/tmp/pbs.5076255.sched01/tmpg_ssl3dq/162k0u29fl7.sdf

>  <i_m_source_file_index>  (397) 
27

>  <i_lp_mmshare_version>  (397) 
48012

>  <i_f3d_flags>  (397) 
0

>  <s_epik_input>  (397) 
W25IXTFjKD1PKVtjSF1bY0hdYzJjMVtDSDJdW0NIXShbQ0BASF0oW0NAXTIzNClbQ0hdPUMoW0NIM10pW0NIMl0zKVtDQEBdNShbT0hdKVtDQEBIXShbQ0gyXTQpW0NASF02W0NAQEhdN1tDQEBIXShPW0NIMl03KU9bQ0gyXVtDQEBIXTZbQ0BIXTVbQ0gzXQ==

>  <s_epik_cmdline>  (397) 
J2VwaWtfcHl0aG9uJywgJy1waHQnLCAnMi4wJywgJy1waCcsICc3LjAnLCAnLXRuJywgJzgnLCAnLW1hJywgJzIwMCcsICctaW1hZScsICc8aW5maWxlLm1hZT4nLCAnLW9tYWUnLCAnPG91dGZpbGUubWFlPic=

>  <r_lp_tautomer_probability>  (397) 
1

>  <r_epik_Ionization_Penalty>  (397) 
9.25955e-06

>  <r_epik_Ionization_Penalty_Charging>  (397) 
9.12117e-06

>  <r_epik_Ionization_Penalty_Neutral>  (397) 
1.38381e-07

>  <r_epik_State_Penalty>  (397) 
-0

>  <r_epik_Charging_Adjusted_Penalty>  (397) 
9.12117e-06

>  <i_epik_Tot_Q>  (397) 
0

>  <i_epik_Tot_abs_Q>  (397) 
0

>  <s_epik_Chemistry_Notes>  (397) 
This compound contains an acetal/aminal-like group ( X-CH(R)-Y where X, Y are N, S, or O) that may be acid/base labile, releasing an aldehyde.

>  <s_lp_Force_Field>  (397) 
OPLS3e

>  <r_lp_Energy>  (397) 
63.3753

>  <b_lp_Chiralities_Consistent>  (397) 
1

>  <s_lp_Variant>  (397) 
105:0-1

>  <s_i_glide_gridfile>  (397) 
pfpi4k_grid

>  <i_i_glide_lignum>  (397) 
27

>  <i_i_glide_rotatable_bonds>  (397) 
1

>  <r_i_docking_score>  (397) 
-2.78523

>  <r_i_glide_ligand_efficiency>  (397) 
-0.0960423

>  <r_i_glide_ligand_efficiency_sa>  (397) 
-0.295072

>  <r_i_glide_ligand_efficiency_ln>  (397) 
-0.637747

>  <r_i_glide_gscore>  (397) 
-2.78523

>  <r_i_glide_lipo>  (397) 
-0.39608

>  <r_i_glide_hbond>  (397) 
-0.166334

>  <r_i_glide_metal>  (397) 
-0

>  <r_i_glide_rewards>  (397) 
-0.730645

>  <r_i_glide_evdw>  (397) 
-12.385

>  <r_i_glide_ecoul>  (397) 
-5.81944

>  <r_i_glide_erotb>  (397) 
0

>  <r_i_glide_esite>  (397) 
0

>  <r_i_glide_emodel>  (397) 
-22.3388

>  <r_i_glide_energy>  (397) 
-18.2045

>  <r_i_glide_einternal>  (397) 
0.0632196

>  <r_i_glide_intrahb_reward>  (397) 
-0

>  <i_i_glide_confnum>  (397) 
2

>  <i_i_glide_posenum>  (397) 
16

>  <r_i_glide_eff_state_penalty>  (397) 
0

>  <ligand_id>  (397) 
105

>  <original_smiles>  (397) 
CC1=CC2C3Cc4[nH]c(=O)ccc4C2(C1)CC1C2C4COC4OCC2C(C)C13O

>  <smiles>  (397) 
[H]OC12C3([H])C([H])([H])c4c(c([H])c([H])c(=O)n4[H])C4(C([H])([H])C(C([H])([H])[H])=C([H])C34[H])C([H])([H])C1([H])C1([H])C3([H])C([H])([H])OC3([H])OC([H])([H])C1([H])C2([H])C([H])([H])[H]

$$$$
106:0:0
     RDKit          3D

 76 81  0  0  1  0  0  0  0  0999 V2000
    0.2049    0.1067    7.3500 C   0  0  0  0  0  0  0  0  0  0  0  0
    0.0449    0.1083    5.8039 C   0  0  2  0  0  0  0  0  0  0  0  0
    0.7466   -1.1037    5.1082 C   0  0  2  0  0  0  0  0  0  0  0  0
    0.3212   -2.4784    5.6768 C   0  0  1  0  0  0  0  0  0  0  0  0
   -0.9842   -2.6482    5.4611 F   0  0  0  0  0  0  0  0  0  0  0  0
    1.0984   -3.6875    5.1000 C   0  0  0  0  0  0  0  0  0  0  0  0
    2.6584   -3.5277    5.1154 C   0  0  2  0  0  0  0  0  0  0  0  0
    3.0782   -3.4482    6.6229 C   0  0  0  0  0  0  0  0  0  0  0  0
    3.0043   -2.1645    4.4262 C   0  0  1  0  0  0  0  0  0  0  0  0
    2.7989   -2.1778    2.8896 C   0  0  0  0  0  0  0  0  0  0  0  0
    2.6318   -3.5501    2.2298 C   0  0  0  0  0  0  0  0  0  0  0  0
    3.5204   -4.6646    2.8217 C   0  0  1  0  0  0  0  0  0  0  0  0
    3.4451   -4.7436    4.4073 C   0  0  1  0  0  0  0  0  0  0  0  0
    4.9249   -4.7438    4.9158 C   0  0  0  0  0  0  0  0  0  0  0  0
    2.8195   -6.0699    4.8545 C   0  0  0  0  0  0  0  0  0  0  0  0
    2.2772   -7.0128    4.0615 C   0  0  0  0  0  0  0  0  0  0  0  0
    2.2102   -6.9547    2.5378 C   0  0  2  0  0  0  0  0  0  0  0  0
    0.7993   -6.4378    2.1030 C   0  0  0  0  0  0  0  0  0  0  0  0
    0.5530   -6.2514    0.8869 O   0  0  0  0  0  0  0  0  0  0  0  0
   -0.0773   -6.2613    2.9787 O   0  0  0  0  0  0  0  0  0  0  0  0
    2.3034   -8.4164    1.9729 C   0  0  0  0  0  0  0  0  0  0  0  0
    3.6447   -9.1427    2.2019 C   0  0  0  0  0  0  0  0  0  0  0  0
    4.7889   -8.2552    1.7539 C   0  0  0  0  0  0  0  0  0  0  0  0
    5.6867   -8.6588    1.0141 O   0  0  0  0  0  0  0  0  0  0  0  0
    4.7594   -6.8392    2.3175 C   0  0  0  0  0  0  0  0  0  0  0  0
    3.4301   -6.0514    2.0439 C   0  0  2  0  0  0  0  0  0  0  0  0
    3.4532   -5.7915    0.5062 C   0  0  0  0  0  0  0  0  0  0  0  0
    2.2927   -0.9461    5.0894 C   0  0  1  0  0  0  0  0  0  0  0  0
    2.7153    0.4003    4.4623 C   0  0  0  0  0  0  0  0  0  0  0  0
    2.0289    1.5880    5.1502 C   0  0  0  0  0  0  0  0  0  0  0  0
    0.4900    1.4488    5.1328 C   0  0  2  0  0  0  0  0  0  0  0  0
   -0.2140    2.7302    5.6584 C   0  0  0  0  0  0  0  0  0  0  0  0
   -1.4500    2.8859    4.7852 C   0  0  0  0  0  0  0  0  0  0  0  0
   -1.0564    2.1348    3.5315 C   0  0  0  0  0  0  0  0  0  0  0  0
   -1.6914    2.1786    2.4847 O   0  0  0  0  0  0  0  0  0  0  0  0
    0.0493    1.4315    3.7752 O   0  0  0  0  0  0  0  0  0  0  0  0
    1.2512    0.1063    7.6555 H   0  0  0  0  0  0  0  0  0  0  0  0
   -0.2690   -0.7638    7.7987 H   0  0  0  0  0  0  0  0  0  0  0  0
   -0.2728    0.9578    7.8322 H   0  0  0  0  0  0  0  0  0  0  0  0
   -1.0227    0.0010    5.6178 H   0  0  0  0  0  0  0  0  0  0  0  0
    0.4091   -1.1060    4.0709 H   0  0  0  0  0  0  0  0  0  0  0  0
    0.4130   -2.5053    6.7581 H   0  0  0  0  0  0  0  0  0  0  0  0
    0.8066   -4.5711    5.6698 H   0  0  0  0  0  0  0  0  0  0  0  0
    0.7321   -3.8806    4.0984 H   0  0  0  0  0  0  0  0  0  0  0  0
    4.1034   -3.0944    6.7499 H   0  0  0  0  0  0  0  0  0  0  0  0
    2.9952   -4.4110    7.1274 H   0  0  0  0  0  0  0  0  0  0  0  0
    2.4746   -2.7612    7.2107 H   0  0  0  0  0  0  0  0  0  0  0  0
    4.0730   -2.0022    4.5723 H   0  0  0  0  0  0  0  0  0  0  0  0
    1.9424   -1.5732    2.5919 H   0  0  0  0  0  0  0  0  0  0  0  0
    3.6595   -1.6835    2.4356 H   0  0  0  0  0  0  0  0  0  0  0  0
    1.5888   -3.8479    2.2355 H   0  0  0  0  0  0  0  0  0  0  0  0
    2.8710   -3.3882    1.1804 H   0  0  0  0  0  0  0  0  0  0  0  0
    4.5184   -4.2910    2.5821 H   0  0  0  0  0  0  0  0  0  0  0  0
    5.3847   -3.7593    4.8367 H   0  0  0  0  0  0  0  0  0  0  0  0
    5.5815   -5.4054    4.3610 H   0  0  0  0  0  0  0  0  0  0  0  0
    5.0088   -5.0645    5.9553 H   0  0  0  0  0  0  0  0  0  0  0  0
    2.8035   -6.2390    5.9197 H   0  0  0  0  0  0  0  0  0  0  0  0
    1.8537   -7.8988    4.5134 H   0  0  0  0  0  0  0  0  0  0  0  0
    1.5142   -9.0396    2.4036 H   0  0  0  0  0  0  0  0  0  0  0  0
    2.1070   -8.4194    0.8983 H   0  0  0  0  0  0  0  0  0  0  0  0
    3.7903   -9.3717    3.2579 H   0  0  0  0  0  0  0  0  0  0  0  0
    3.6807  -10.0918    1.6658 H   0  0  0  0  0  0  0  0  0  0  0  0
    4.8960   -6.9989    3.3829 H   0  0  0  0  0  0  0  0  0  0  0  0
    5.6295   -6.2868    1.9608 H   0  0  0  0  0  0  0  0  0  0  0  0
    3.4551   -6.7182   -0.0532 H   0  0  0  0  0  0  0  0  0  0  0  0
    4.3502   -5.2466    0.2042 H   0  0  0  0  0  0  0  0  0  0  0  0
    2.5986   -5.2288    0.1341 H   0  0  0  0  0  0  0  0  0  0  0  0
    2.6418   -0.8919    6.1183 H   0  0  0  0  0  0  0  0  0  0  0  0
    3.7981    0.5235    4.5185 H   0  0  0  0  0  0  0  0  0  0  0  0
    2.4596    0.4366    3.4033 H   0  0  0  0  0  0  0  0  0  0  0  0
    2.3902    1.6761    6.1776 H   0  0  0  0  0  0  0  0  0  0  0  0
    2.3277    2.5051    4.6413 H   0  0  0  0  0  0  0  0  0  0  0  0
   -0.4623    2.7355    6.7220 H   0  0  0  0  0  0  0  0  0  0  0  0
    0.4331    3.5972    5.4960 H   0  0  0  0  0  0  0  0  0  0  0  0
   -2.3152    2.4029    5.2373 H   0  0  0  0  0  0  0  0  0  0  0  0
   -1.6741    3.9322    4.5850 H   0  0  0  0  0  0  0  0  0  0  0  0
  1  2  1  0
  1 37  1  0
  1 38  1  0
  1 39  1  0
  2 31  1  0
  2  3  1  0
  2 40  1  1
  3 28  1  0
  3  4  1  0
  3 41  1  6
  4  5  1  0
  4  6  1  0
  4 42  1  1
  6  7  1  0
  6 43  1  0
  6 44  1  0
  7 13  1  0
  7  8  1  1
  7  9  1  0
  8 45  1  0
  8 46  1  0
  8 47  1  0
  9 10  1  0
  9 28  1  0
  9 48  1  6
 10 11  1  0
 10 49  1  0
 10 50  1  0
 11 12  1  0
 11 51  1  0
 11 52  1  0
 12 26  1  0
 12 13  1  0
 12 53  1  1
 13 14  1  1
 13 15  1  0
 14 54  1  0
 14 55  1  0
 14 56  1  0
 15 16  2  0
 15 57  1  0
 16 17  1  0
 16 58  1  0
 17 26  1  0
 17 18  1  1
 17 21  1  0
 18 19  2  0
 18 20  1  0
 21 22  1  0
 21 59  1  0
 21 60  1  0
 22 23  1  0
 22 61  1  0
 22 62  1  0
 23 24  2  0
 23 25  1  0
 25 26  1  0
 25 63  1  0
 25 64  1  0
 26 27  1  6
 27 65  1  0
 27 66  1  0
 27 67  1  0
 28 29  1  0
 28 68  1  1
 29 30  1  0
 29 69  1  0
 29 70  1  0
 30 31  1  0
 30 71  1  0
 30 72  1  0
 31 36  1  6
 31 32  1  0
 32 33  1  0
 32 73  1  0
 32 74  1  0
 33 34  1  0
 33 75  1  0
 33 76  1  0
 34 35  2  0
 34 36  1  0
M  CHG  1  20  -1
M  END
>  <i_m_ct_stereo_status>  (398) 
1

>  <s_m_source_file>  (398) 
/var/tmp/pbs.5076255.sched01/tmpg_ssl3dq/162k0u29fl7.sdf

>  <i_m_source_file_index>  (398) 
28

>  <i_lp_mmshare_version>  (398) 
48012

>  <i_f3d_flags>  (398) 
0

>  <s_epik_input>  (398) 
Tz1DKE8xKVtDSDJdW0NIMl1bQ0BAXTEyW0NASF0oW0NIM10pW0NASF0zW0NASF0oW0NIMl1bQ0gyXTIpW0NASF00W0NAQF0oW0NIM10pKFtDSDJdW0NAQEhdM0YpW0NAXTUoW0NIM10pW0NASF0oW0NIMl1bQ0gyXTQpW0NAXTYoW0NIM10pW0NAQF0oW0NIXT1bQ0hdNSkoQyg9TylbT0hdKVtDSDJdW0NIMl1DKD1PKVtDSDJdNg==

>  <s_epik_cmdline>  (398) 
J2VwaWtfcHl0aG9uJywgJy1waHQnLCAnMi4wJywgJy1waCcsICc3LjAnLCAnLXRuJywgJzgnLCAnLW1hJywgJzIwMCcsICctaW1hZScsICc8aW5maWxlLm1hZT4nLCAnLW9tYWUnLCAnPG91dGZpbGUubWFlPic=

>  <r_lp_tautomer_probability>  (398) 
1

>  <r_epik_Ionization_Penalty>  (398) 
0.00263142

>  <r_epik_Ionization_Penalty_Charging>  (398) 
0.00263142

>  <r_epik_Ionization_Penalty_Neutral>  (398) 
5.73594e-14

>  <r_epik_State_Penalty>  (398) 
0.00183123

>  <r_epik_Charging_Adjusted_Penalty>  (398) 
0.00446265

>  <i_epik_Tot_Q>  (398) 
-1

>  <i_epik_Tot_abs_Q>  (398) 
1

>  <s_epik_Chemistry_Notes>  (398) 
This compound has an ester and may undergo hydrolysis at high or low pH.

>  <s_lp_Force_Field>  (398) 
OPLS3e

>  <r_lp_Energy>  (398) 
75.5346

>  <b_lp_Chiralities_Consistent>  (398) 
1

>  <s_lp_Variant>  (398) 
106:0-1

>  <s_i_glide_gridfile>  (398) 
pfpi4k_grid

>  <i_i_glide_lignum>  (398) 
28

>  <i_i_glide_rotatable_bonds>  (398) 
1

>  <r_i_docking_score>  (398) 
-2.53397

>  <r_i_glide_ligand_efficiency>  (398) 
-0.0703882

>  <r_i_glide_ligand_efficiency_sa>  (398) 
-0.232417

>  <r_i_glide_ligand_efficiency_ln>  (398) 
-0.552845

>  <r_i_glide_gscore>  (398) 
-2.53397

>  <r_i_glide_lipo>  (398) 
-0.0248796

>  <r_i_glide_hbond>  (398) 
-0.370223

>  <r_i_glide_metal>  (398) 
-0

>  <r_i_glide_rewards>  (398) 
-0.0291922

>  <r_i_glide_evdw>  (398) 
-26.4612

>  <r_i_glide_ecoul>  (398) 
-4.31899

>  <r_i_glide_erotb>  (398) 
0

>  <r_i_glide_esite>  (398) 
-0.138773

>  <r_i_glide_emodel>  (398) 
-37.4431

>  <r_i_glide_energy>  (398) 
-30.7802

>  <r_i_glide_einternal>  (398) 
0.0117182

>  <r_i_glide_intrahb_reward>  (398) 
-0

>  <i_i_glide_confnum>  (398) 
1

>  <i_i_glide_posenum>  (398) 
22

>  <r_i_glide_eff_state_penalty>  (398) 
0

>  <ligand_id>  (398) 
106

>  <original_smiles>  (398) 
CC1C2C(F)CC3(C)C(CCC4C3(C)C=CC3(C(=O)O)CCC(=O)CC43C)C2CCC12CCC(=O)O2

>  <smiles>  (398) 
[H]C1=C([H])C2(C([H])([H])[H])C([H])(C([H])([H])C([H])([H])C3([H])C4([H])C([H])([H])C([H])([H])C5(OC(=O)C([H])([H])C5([H])[H])C([H])(C([H])([H])[H])C4([H])C([H])(F)C([H])([H])C32C([H])([H])[H])C2(C([H])([H])[H])C([H])([H])C(=O)C([H])([H])C([H])([H])C12C(=O)[O-]

$$$$
106:0:1
     RDKit          3D

 76 81  0  0  1  0  0  0  0  0999 V2000
    3.4454    0.0466    1.3006 C   0  0  0  0  0  0  0  0  0  0  0  0
    2.7173   -0.8893    2.2849 C   0  0  2  0  0  0  0  0  0  0  0  0
    2.2141   -0.1637    3.5817 C   0  0  2  0  0  0  0  0  0  0  0  0
    1.3320    1.0830    3.2937 C   0  0  1  0  0  0  0  0  0  0  0  0
    0.2080    0.6761    2.6963 F   0  0  0  0  0  0  0  0  0  0  0  0
    0.9457    1.8993    4.5490 C   0  0  0  0  0  0  0  0  0  0  0  0
    2.1443    2.2558    5.5011 C   0  0  2  0  0  0  0  0  0  0  0  0
    3.0862    3.1942    4.6778 C   0  0  0  0  0  0  0  0  0  0  0  0
    2.9059    0.9206    5.8274 C   0  0  1  0  0  0  0  0  0  0  0  0
    2.1589   -0.0163    6.8041 C   0  0  0  0  0  0  0  0  0  0  0  0
    0.9610    0.5792    7.5378 C   0  0  0  0  0  0  0  0  0  0  0  0
    1.1433    2.0417    8.0142 C   0  0  1  0  0  0  0  0  0  0  0  0
    1.6947    2.9916    6.8572 C   0  0  1  0  0  0  0  0  0  0  0  0
    2.9274    3.7480    7.4522 C   0  0  0  0  0  0  0  0  0  0  0  0
    0.6531    4.0668    6.5079 C   0  0  0  0  0  0  0  0  0  0  0  0
   -0.6005    4.1527    6.9945 C   0  0  0  0  0  0  0  0  0  0  0  0
   -1.2229    3.2251    8.0178 C   0  0  2  0  0  0  0  0  0  0  0  0
   -2.1100    2.2169    7.2180 C   0  0  0  0  0  0  0  0  0  0  0  0
   -2.8927    2.7538    6.4365 O   0  0  0  0  0  0  0  0  0  0  0  0
   -2.0122    0.9508    7.3882 O   0  0  0  0  0  0  0  0  0  0  0  0
   -2.2530    4.0357    8.8949 C   0  0  0  0  0  0  0  0  0  0  0  0
   -1.6461    5.1126    9.8007 C   0  0  0  0  0  0  0  0  0  0  0  0
   -0.5121    4.5299   10.6082 C   0  0  0  0  0  0  0  0  0  0  0  0
   -0.4046    4.6776   11.8163 O   0  0  0  0  0  0  0  0  0  0  0  0
    0.5347    3.7709    9.7734 C   0  0  0  0  0  0  0  0  0  0  0  0
   -0.0496    2.6044    8.9002 C   0  0  2  0  0  0  0  0  0  0  0  0
   -0.5373    1.5526    9.9433 C   0  0  0  0  0  0  0  0  0  0  0  0
    3.3936    0.1817    4.5509 C   0  0  1  0  0  0  0  0  0  0  0  0
    4.2190   -1.0897    4.8840 C   0  0  0  0  0  0  0  0  0  0  0  0
    4.7096   -1.7948    3.6135 C   0  0  0  0  0  0  0  0  0  0  0  0
    3.5474   -2.1655    2.6805 C   0  0  2  0  0  0  0  0  0  0  0  0
    4.0236   -3.0376    1.4906 C   0  0  0  0  0  0  0  0  0  0  0  0
    2.9018   -4.0318    1.2639 C   0  0  0  0  0  0  0  0  0  0  0  0
    2.2335   -4.0854    2.6197 C   0  0  0  0  0  0  0  0  0  0  0  0
    1.4169   -4.9301    2.9478 O   0  0  0  0  0  0  0  0  0  0  0  0
    2.6817   -3.0629    3.3643 O   0  0  0  0  0  0  0  0  0  0  0  0
    4.3060    0.5429    1.7585 H   0  0  0  0  0  0  0  0  0  0  0  0
    2.7802    0.8138    0.9102 H   0  0  0  0  0  0  0  0  0  0  0  0
    3.8128   -0.4642    0.4056 H   0  0  0  0  0  0  0  0  0  0  0  0
    1.8283   -1.2347    1.7548 H   0  0  0  0  0  0  0  0  0  0  0  0
    1.5626   -0.8605    4.0962 H   0  0  0  0  0  0  0  0  0  0  0  0
    1.8020    1.7486    2.5771 H   0  0  0  0  0  0  0  0  0  0  0  0
    0.4574    2.8154    4.1989 H   0  0  0  0  0  0  0  0  0  0  0  0
    0.1652    1.3648    5.0685 H   0  0  0  0  0  0  0  0  0  0  0  0
    4.0675    3.3078    5.1487 H   0  0  0  0  0  0  0  0  0  0  0  0
    2.6667    4.1905    4.5429 H   0  0  0  0  0  0  0  0  0  0  0  0
    3.3036    2.8344    3.6778 H   0  0  0  0  0  0  0  0  0  0  0  0
    3.8232    1.2192    6.3585 H   0  0  0  0  0  0  0  0  0  0  0  0
    1.7788   -0.8964    6.2746 H   0  0  0  0  0  0  0  0  0  0  0  0
    2.8714   -0.4101    7.5229 H   0  0  0  0  0  0  0  0  0  0  0  0
    0.0640    0.4887    6.9237 H   0  0  0  0  0  0  0  0  0  0  0  0
    0.7798   -0.0690    8.3866 H   0  0  0  0  0  0  0  0  0  0  0  0
    1.9703    1.9318    8.7194 H   0  0  0  0  0  0  0  0  0  0  0  0
    3.7982    3.0923    7.5291 H   0  0  0  0  0  0  0  0  0  0  0  0
    2.7740    4.1234    8.4582 H   0  0  0  0  0  0  0  0  0  0  0  0
    3.2205    4.6151    6.8637 H   0  0  0  0  0  0  0  0  0  0  0  0
    0.9659    4.8139    5.7959 H   0  0  0  0  0  0  0  0  0  0  0  0
   -1.2410    4.9472    6.6394 H   0  0  0  0  0  0  0  0  0  0  0  0
   -2.9936    4.5243    8.2599 H   0  0  0  0  0  0  0  0  0  0  0  0
   -2.8251    3.3473    9.5173 H   0  0  0  0  0  0  0  0  0  0  0  0
   -1.2529    5.9432    9.2079 H   0  0  0  0  0  0  0  0  0  0  0  0
   -2.3995    5.5351   10.4692 H   0  0  0  0  0  0  0  0  0  0  0  0
    0.9542    4.5517    9.1589 H   0  0  0  0  0  0  0  0  0  0  0  0
    1.3202    3.4170   10.4363 H   0  0  0  0  0  0  0  0  0  0  0  0
   -1.3207    1.9350   10.5979 H   0  0  0  0  0  0  0  0  0  0  0  0
    0.2872    1.2398   10.5850 H   0  0  0  0  0  0  0  0  0  0  0  0
   -0.9499    0.6441    9.5016 H   0  0  0  0  0  0  0  0  0  0  0  0
    4.0798    0.8289    4.0233 H   0  0  0  0  0  0  0  0  0  0  0  0
    5.0719   -0.8215    5.5113 H   0  0  0  0  0  0  0  0  0  0  0  0
    3.6316   -1.7996    5.4535 H   0  0  0  0  0  0  0  0  0  0  0  0
    5.4315   -1.1555    3.0946 H   0  0  0  0  0  0  0  0  0  0  0  0
    5.2594   -2.6932    3.9044 H   0  0  0  0  0  0  0  0  0  0  0  0
    4.2710   -2.4959    0.5771 H   0  0  0  0  0  0  0  0  0  0  0  0
    4.9201   -3.5869    1.7697 H   0  0  0  0  0  0  0  0  0  0  0  0
    2.1992   -3.6590    0.5174 H   0  0  0  0  0  0  0  0  0  0  0  0
    3.2725   -5.0120    0.9547 H   0  0  0  0  0  0  0  0  0  0  0  0
  1  2  1  0
  1 37  1  0
  1 38  1  0
  1 39  1  0
  2 31  1  0
  2  3  1  0
  2 40  1  6
  3 28  1  0
  3  4  1  0
  3 41  1  1
  4  5  1  0
  4  6  1  0
  4 42  1  6
  6  7  1  0
  6 43  1  0
  6 44  1  0
  7 13  1  0
  7  8  1  6
  7  9  1  0
  8 45  1  0
  8 46  1  0
  8 47  1  0
  9 10  1  0
  9 28  1  0
  9 48  1  1
 10 11  1  0
 10 49  1  0
 10 50  1  0
 11 12  1  0
 11 51  1  0
 11 52  1  0
 12 26  1  0
 12 13  1  0
 12 53  1  1
 13 14  1  1
 13 15  1  0
 14 54  1  0
 14 55  1  0
 14 56  1  0
 15 16  2  0
 15 57  1  0
 16 17  1  0
 16 58  1  0
 17 26  1  0
 17 18  1  6
 17 21  1  0
 18 19  2  0
 18 20  1  0
 21 22  1  0
 21 59  1  0
 21 60  1  0
 22 23  1  0
 22 61  1  0
 22 62  1  0
 23 24  2  0
 23 25  1  0
 25 26  1  0
 25 63  1  0
 25 64  1  0
 26 27  1  1
 27 65  1  0
 27 66  1  0
 27 67  1  0
 28 29  1  0
 28 68  1  6
 29 30  1  0
 29 69  1  0
 29 70  1  0
 30 31  1  0
 30 71  1  0
 30 72  1  0
 31 36  1  1
 31 32  1  0
 32 33  1  0
 32 73  1  0
 32 74  1  0
 33 34  1  0
 33 75  1  0
 33 76  1  0
 34 35  2  0
 34 36  1  0
M  CHG  1  20  -1
M  END
>  <i_m_ct_stereo_status>  (399) 
1

>  <s_m_source_file>  (399) 
/var/tmp/pbs.5076255.sched01/tmpg_ssl3dq/162k0u29fl7.sdf

>  <i_m_source_file_index>  (399) 
28

>  <i_lp_mmshare_version>  (399) 
48012

>  <i_f3d_flags>  (399) 
0

>  <s_epik_input>  (399) 
Tz1DKE8xKVtDSDJdW0NIMl1bQ0BAXTEyW0NASF0oW0NIM10pW0NASF0zW0NASF0oW0NIMl1bQ0gyXTIpW0NASF00W0NAQF0oW0NIM10pKFtDSDJdW0NAQEhdM0YpW0NAXTUoW0NIM10pW0NASF0oW0NIMl1bQ0gyXTQpW0NAXTYoW0NIM10pW0NAQF0oW0NIXT1bQ0hdNSkoQyg9TylbT0hdKVtDSDJdW0NIMl1DKD1PKVtDSDJdNg==

>  <s_epik_cmdline>  (399) 
J2VwaWtfcHl0aG9uJywgJy1waHQnLCAnMi4wJywgJy1waCcsICc3LjAnLCAnLXRuJywgJzgnLCAnLW1hJywgJzIwMCcsICctaW1hZScsICc8aW5maWxlLm1hZT4nLCAnLW9tYWUnLCAnPG91dGZpbGUubWFlPic=

>  <r_lp_tautomer_probability>  (399) 
1

>  <r_epik_Ionization_Penalty>  (399) 
0.00263142

>  <r_epik_Ionization_Penalty_Charging>  (399) 
0.00263142

>  <r_epik_Ionization_Penalty_Neutral>  (399) 
5.73594e-14

>  <r_epik_State_Penalty>  (399) 
0.00183123

>  <r_epik_Charging_Adjusted_Penalty>  (399) 
0.00446265

>  <i_epik_Tot_Q>  (399) 
-1

>  <i_epik_Tot_abs_Q>  (399) 
1

>  <s_epik_Chemistry_Notes>  (399) 
This compound has an ester and may undergo hydrolysis at high or low pH.

>  <s_lp_Force_Field>  (399) 
OPLS3e

>  <r_lp_Energy>  (399) 
75.5346

>  <b_lp_Chiralities_Consistent>  (399) 
1

>  <s_lp_Variant>  (399) 
106:0-1

>  <s_i_glide_gridfile>  (399) 
pfpi4k_grid

>  <i_i_glide_lignum>  (399) 
28

>  <i_i_glide_rotatable_bonds>  (399) 
1

>  <r_i_docking_score>  (399) 
-2.04989

>  <r_i_glide_ligand_efficiency>  (399) 
-0.0569415

>  <r_i_glide_ligand_efficiency_sa>  (399) 
-0.188017

>  <r_i_glide_ligand_efficiency_ln>  (399) 
-0.447231

>  <r_i_glide_gscore>  (399) 
-2.04989

>  <r_i_glide_lipo>  (399) 
-0.0665564

>  <r_i_glide_hbond>  (399) 
-0.2

>  <r_i_glide_metal>  (399) 
-0

>  <r_i_glide_rewards>  (399) 
-0.00249543

>  <r_i_glide_evdw>  (399) 
-24.7283

>  <r_i_glide_ecoul>  (399) 
-3.21732

>  <r_i_glide_erotb>  (399) 
0

>  <r_i_glide_esite>  (399) 
-0.061831

>  <r_i_glide_emodel>  (399) 
-32.7468

>  <r_i_glide_energy>  (399) 
-27.9456

>  <r_i_glide_einternal>  (399) 
0.220845

>  <r_i_glide_intrahb_reward>  (399) 
-0

>  <i_i_glide_confnum>  (399) 
2

>  <i_i_glide_posenum>  (399) 
8

>  <r_i_glide_eff_state_penalty>  (399) 
0

>  <ligand_id>  (399) 
106

>  <original_smiles>  (399) 
CC1C2C(F)CC3(C)C(CCC4C3(C)C=CC3(C(=O)O)CCC(=O)CC43C)C2CCC12CCC(=O)O2

>  <smiles>  (399) 
[H]C1=C([H])C2(C([H])([H])[H])C([H])(C([H])([H])C([H])([H])C3([H])C4([H])C([H])([H])C([H])([H])C5(OC(=O)C([H])([H])C5([H])[H])C([H])(C([H])([H])[H])C4([H])C([H])(F)C([H])([H])C32C([H])([H])[H])C2(C([H])([H])[H])C([H])([H])C(=O)C([H])([H])C([H])([H])C12C(=O)[O-]

$$$$
106:0:2
     RDKit          3D

 76 81  0  0  1  0  0  0  0  0999 V2000
    3.7198   -0.5494    0.9652 C   0  0  0  0  0  0  0  0  0  0  0  0
    2.9354   -1.4318    1.9689 C   0  0  2  0  0  0  0  0  0  0  0  0
    2.3866   -0.6335    3.2008 C   0  0  2  0  0  0  0  0  0  0  0  0
    1.5218    0.5960    2.8188 C   0  0  1  0  0  0  0  0  0  0  0  0
    0.4218    0.1690    2.2002 F   0  0  0  0  0  0  0  0  0  0  0  0
    1.0890    1.4771    4.0164 C   0  0  0  0  0  0  0  0  0  0  0  0
    2.2441    1.8728    5.0017 C   0  0  2  0  0  0  0  0  0  0  0  0
    3.2202    2.7675    4.1772 C   0  0  0  0  0  0  0  0  0  0  0  0
    2.9856    0.5574    5.4163 C   0  0  1  0  0  0  0  0  0  0  0  0
    2.1733   -0.3309    6.3929 C   0  0  0  0  0  0  0  0  0  0  0  0
    0.9535    0.3156    7.0586 C   0  0  0  0  0  0  0  0  0  0  0  0
    1.1529    1.7926    7.4711 C   0  0  1  0  0  0  0  0  0  0  0  0
    1.7517    2.6898    6.2987 C   0  0  1  0  0  0  0  0  0  0  0  0
    2.9738    3.4535    6.9053 C   0  0  0  0  0  0  0  0  0  0  0  0
    0.7433    3.7548    5.8598 C   0  0  0  0  0  0  0  0  0  0  0  0
   -0.5252    3.8819    6.2896 C   0  0  0  0  0  0  0  0  0  0  0  0
   -1.2014    2.9896    7.3251 C   0  0  2  0  0  0  0  0  0  0  0  0
   -2.0183    1.8906    6.5786 C   0  0  0  0  0  0  0  0  0  0  0  0
   -2.1616    2.0060    5.3405 O   0  0  0  0  0  0  0  0  0  0  0  0
   -2.5530    0.9676    7.2385 O   0  0  0  0  0  0  0  0  0  0  0  0
   -2.2598    3.8288    8.1173 C   0  0  0  0  0  0  0  0  0  0  0  0
   -1.6846    4.9577    8.9920 C   0  0  0  0  0  0  0  0  0  0  0  0
   -0.5745    4.4111    9.8712 C   0  0  0  0  0  0  0  0  0  0  0  0
   -0.5239    4.6236   11.0821 O   0  0  0  0  0  0  0  0  0  0  0  0
    0.4923    3.6158    9.1278 C   0  0  0  0  0  0  0  0  0  0  0  0
   -0.0636    2.4215    8.2841 C   0  0  2  0  0  0  0  0  0  0  0  0
   -0.5817    1.4067    9.3535 C   0  0  0  0  0  0  0  0  0  0  0  0
    3.5197   -0.2561    4.1975 C   0  0  1  0  0  0  0  0  0  0  0  0
    4.3292   -1.5030    4.6248 C   0  0  0  0  0  0  0  0  0  0  0  0
    4.8683   -2.2771    3.4147 C   0  0  0  0  0  0  0  0  0  0  0  0
    3.7376   -2.6865    2.4513 C   0  0  2  0  0  0  0  0  0  0  0  0
    4.2497   -3.6222    1.3271 C   0  0  0  0  0  0  0  0  0  0  0  0
    3.1289   -4.6238    1.1026 C   0  0  0  0  0  0  0  0  0  0  0  0
    2.4060   -4.5972    2.4332 C   0  0  0  0  0  0  0  0  0  0  0  0
    1.5503   -5.4117    2.7632 O   0  0  0  0  0  0  0  0  0  0  0  0
    2.8382   -3.5513    3.1431 O   0  0  0  0  0  0  0  0  0  0  0  0
    4.5535   -0.0234    1.4276 H   0  0  0  0  0  0  0  0  0  0  0  0
    3.0627    0.1887    0.5139 H   0  0  0  0  0  0  0  0  0  0  0  0
    4.1102   -1.1055    0.1169 H   0  0  0  0  0  0  0  0  0  0  0  0
    2.0664   -1.7942    1.4177 H   0  0  0  0  0  0  0  0  0  0  0  0
    1.7066   -1.3055    3.7233 H   0  0  0  0  0  0  0  0  0  0  0  0
    2.0234    1.2231    2.0882 H   0  0  0  0  0  0  0  0  0  0  0  0
    0.6201    2.3737    3.6078 H   0  0  0  0  0  0  0  0  0  0  0  0
    0.2883    0.9658    4.5361 H   0  0  0  0  0  0  0  0  0  0  0  0
    4.1883    2.8908    4.6657 H   0  0  0  0  0  0  0  0  0  0  0  0
    2.8197    3.7590    3.9729 H   0  0  0  0  0  0  0  0  0  0  0  0
    3.4390    2.3478    3.2032 H   0  0  0  0  0  0  0  0  0  0  0  0
    3.8711    0.8641    5.9751 H   0  0  0  0  0  0  0  0  0  0  0  0
    1.8172   -1.2360    5.9028 H   0  0  0  0  0  0  0  0  0  0  0  0
    2.8504   -0.6774    7.1735 H   0  0  0  0  0  0  0  0  0  0  0  0
    0.0738    0.1964    6.4339 H   0  0  0  0  0  0  0  0  0  0  0  0
    0.7550   -0.2947    7.9374 H   0  0  0  0  0  0  0  0  0  0  0  0
    1.9497    1.6997    8.2128 H   0  0  0  0  0  0  0  0  0  0  0  0
    3.8330    2.7993    7.0424 H   0  0  0  0  0  0  0  0  0  0  0  0
    2.7849    3.8814    7.8825 H   0  0  0  0  0  0  0  0  0  0  0  0
    3.2927    4.2902    6.2825 H   0  0  0  0  0  0  0  0  0  0  0  0
    1.0880    4.4522    5.1119 H   0  0  0  0  0  0  0  0  0  0  0  0
   -1.1417    4.6572    5.8671 H   0  0  0  0  0  0  0  0  0  0  0  0
   -2.9768    4.2643    7.4211 H   0  0  0  0  0  0  0  0  0  0  0  0
   -2.8566    3.1756    8.7561 H   0  0  0  0  0  0  0  0  0  0  0  0
   -1.2623    5.7516    8.3774 H   0  0  0  0  0  0  0  0  0  0  0  0
   -2.4573    5.4116    9.6108 H   0  0  0  0  0  0  0  0  0  0  0  0
    0.9491    4.3608    8.4847 H   0  0  0  0  0  0  0  0  0  0  0  0
    1.2513    3.2824    9.8347 H   0  0  0  0  0  0  0  0  0  0  0  0
   -1.3978    1.8113    9.9501 H   0  0  0  0  0  0  0  0  0  0  0  0
    0.2141    1.1265   10.0493 H   0  0  0  0  0  0  0  0  0  0  0  0
   -0.9643    0.4812    8.9323 H   0  0  0  0  0  0  0  0  0  0  0  0
    4.2352    0.3726    3.6731 H   0  0  0  0  0  0  0  0  0  0  0  0
    5.1590   -1.2123    5.2720 H   0  0  0  0  0  0  0  0  0  0  0  0
    3.7153   -2.1853    5.2120 H   0  0  0  0  0  0  0  0  0  0  0  0
    5.6109   -1.6714    2.8926 H   0  0  0  0  0  0  0  0  0  0  0  0
    5.3960   -3.1628    3.7714 H   0  0  0  0  0  0  0  0  0  0  0  0
    4.5393   -3.1307    0.3986 H   0  0  0  0  0  0  0  0  0  0  0  0
    5.1322   -4.1672    1.6690 H   0  0  0  0  0  0  0  0  0  0  0  0
    2.4532   -4.2891    0.3161 H   0  0  0  0  0  0  0  0  0  0  0  0
    3.5051   -5.6173    0.8609 H   0  0  0  0  0  0  0  0  0  0  0  0
  1  2  1  0
  1 37  1  0
  1 38  1  0
  1 39  1  0
  2 31  1  0
  2  3  1  0
  2 40  1  6
  3 28  1  0
  3  4  1  0
  3 41  1  1
  4  5  1  0
  4  6  1  0
  4 42  1  6
  6  7  1  0
  6 43  1  0
  6 44  1  0
  7 13  1  0
  7  8  1  6
  7  9  1  0
  8 45  1  0
  8 46  1  0
  8 47  1  0
  9 10  1  0
  9 28  1  0
  9 48  1  1
 10 11  1  0
 10 49  1  0
 10 50  1  0
 11 12  1  0
 11 51  1  0
 11 52  1  0
 12 26  1  0
 12 13  1  0
 12 53  1  1
 13 14  1  1
 13 15  1  0
 14 54  1  0
 14 55  1  0
 14 56  1  0
 15 16  2  0
 15 57  1  0
 16 17  1  0
 16 58  1  0
 17 26  1  0
 17 18  1  6
 17 21  1  0
 18 19  2  0
 18 20  1  0
 21 22  1  0
 21 59  1  0
 21 60  1  0
 22 23  1  0
 22 61  1  0
 22 62  1  0
 23 24  2  0
 23 25  1  0
 25 26  1  0
 25 63  1  0
 25 64  1  0
 26 27  1  1
 27 65  1  0
 27 66  1  0
 27 67  1  0
 28 29  1  0
 28 68  1  6
 29 30  1  0
 29 69  1  0
 29 70  1  0
 30 31  1  0
 30 71  1  0
 30 72  1  0
 31 36  1  1
 31 32  1  0
 32 33  1  0
 32 73  1  0
 32 74  1  0
 33 34  1  0
 33 75  1  0
 33 76  1  0
 34 35  2  0
 34 36  1  0
M  CHG  1  20  -1
M  END
>  <i_m_ct_stereo_status>  (400) 
1

>  <s_m_source_file>  (400) 
/var/tmp/pbs.5076255.sched01/tmpg_ssl3dq/162k0u29fl7.sdf

>  <i_m_source_file_index>  (400) 
28

>  <i_lp_mmshare_version>  (400) 
48012

>  <i_f3d_flags>  (400) 
0

>  <s_epik_input>  (400) 
Tz1DKE8xKVtDSDJdW0NIMl1bQ0BAXTEyW0NASF0oW0NIM10pW0NASF0zW0NASF0oW0NIMl1bQ0gyXTIpW0NASF00W0NAQF0oW0NIM10pKFtDSDJdW0NAQEhdM0YpW0NAXTUoW0NIM10pW0NASF0oW0NIMl1bQ0gyXTQpW0NAXTYoW0NIM10pW0NAQF0oW0NIXT1bQ0hdNSkoQyg9TylbT0hdKVtDSDJdW0NIMl1DKD1PKVtDSDJdNg==

>  <s_epik_cmdline>  (400) 
J2VwaWtfcHl0aG9uJywgJy1waHQnLCAnMi4wJywgJy1waCcsICc3LjAnLCAnLXRuJywgJzgnLCAnLW1hJywgJzIwMCcsICctaW1hZScsICc8aW5maWxlLm1hZT4nLCAnLW9tYWUnLCAnPG91dGZpbGUubWFlPic=

>  <r_lp_tautomer_probability>  (400) 
1

>  <r_epik_Ionization_Penalty>  (400) 
0.00263142

>  <r_epik_Ionization_Penalty_Charging>  (400) 
0.00263142

>  <r_epik_Ionization_Penalty_Neutral>  (400) 
5.73594e-14

>  <r_epik_State_Penalty>  (400) 
0.00183123

>  <r_epik_Charging_Adjusted_Penalty>  (400) 
0.00446265

>  <i_epik_Tot_Q>  (400) 
-1

>  <i_epik_Tot_abs_Q>  (400) 
1

>  <s_epik_Chemistry_Notes>  (400) 
This compound has an ester and may undergo hydrolysis at high or low pH.

>  <s_lp_Force_Field>  (400) 
OPLS3e

>  <r_lp_Energy>  (400) 
75.5346

>  <b_lp_Chiralities_Consistent>  (400) 
1

>  <s_lp_Variant>  (400) 
106:0-1

>  <s_i_glide_gridfile>  (400) 
pfpi4k_grid

>  <i_i_glide_lignum>  (400) 
28

>  <i_i_glide_rotatable_bonds>  (400) 
1

>  <r_i_docking_score>  (400) 
-2.03462

>  <r_i_glide_ligand_efficiency>  (400) 
-0.0565172

>  <r_i_glide_ligand_efficiency_sa>  (400) 
-0.186616

>  <r_i_glide_ligand_efficiency_ln>  (400) 
-0.443899

>  <r_i_glide_gscore>  (400) 
-2.03462

>  <r_i_glide_lipo>  (400) 
-0.132518

>  <r_i_glide_hbond>  (400) 
-0.2

>  <r_i_glide_metal>  (400) 
-0

>  <r_i_glide_rewards>  (400) 
-0.00249543

>  <r_i_glide_evdw>  (400) 
-24.6024

>  <r_i_glide_ecoul>  (400) 
-2.54165

>  <r_i_glide_erotb>  (400) 
0

>  <r_i_glide_esite>  (400) 
-0.0882396

>  <r_i_glide_emodel>  (400) 
-32.378

>  <r_i_glide_energy>  (400) 
-27.144

>  <r_i_glide_einternal>  (400) 
0.114253

>  <r_i_glide_intrahb_reward>  (400) 
-0

>  <i_i_glide_confnum>  (400) 
1

>  <i_i_glide_posenum>  (400) 
14

>  <r_i_glide_eff_state_penalty>  (400) 
0

>  <ligand_id>  (400) 
106

>  <original_smiles>  (400) 
CC1C2C(F)CC3(C)C(CCC4C3(C)C=CC3(C(=O)O)CCC(=O)CC43C)C2CCC12CCC(=O)O2

>  <smiles>  (400) 
[H]C1=C([H])C2(C([H])([H])[H])C([H])(C([H])([H])C([H])([H])C3([H])C4([H])C([H])([H])C([H])([H])C5(OC(=O)C([H])([H])C5([H])[H])C([H])(C([H])([H])[H])C4([H])C([H])(F)C([H])([H])C32C([H])([H])[H])C2(C([H])([H])[H])C([H])([H])C(=O)C([H])([H])C([H])([H])C12C(=O)[O-]

$$$$
107:0:0
     RDKit          3D

 40 44  0  0  1  0  0  0  0  0999 V2000
    5.5832   -3.4278   -2.6462 C   0  0  0  0  0  0  0  0  0  0  0  0
    5.5154   -2.5442   -1.4278 C   0  0  0  0  0  0  0  0  0  0  0  0
    6.5984   -1.9311   -0.9056 N   0  0  0  0  0  0  0  0  0  0  0  0
    6.1510   -1.0658    0.4776 S   0  0  0  0  0  0  0  0  0  0  0  0
    4.5087   -1.5897    0.2902 C   0  0  0  0  0  0  0  0  0  0  0  0
    3.4822   -1.2655    1.1883 N   0  0  0  0  0  0  0  0  0  0  0  0
    3.1181    0.0435    1.3788 N   0  0  0  0  0  0  0  0  0  0  0  0
    2.0931    0.0087    2.2823 C   0  0  0  0  0  0  0  0  0  0  0  0
    1.9258   -1.3503    2.5957 C   0  0  0  0  0  0  0  0  0  0  0  0
    1.1470   -2.0278    3.3897 N   0  0  0  0  0  0  0  0  0  0  0  0
    1.5831   -3.3709    3.1581 N   0  0  0  0  0  0  0  0  0  0  0  0
    2.5879   -3.3446    2.2427 C   0  0  0  0  0  0  0  0  0  0  0  0
    3.3157   -4.4185    1.7024 N   0  0  0  0  0  0  0  0  0  0  0  0
    4.7628   -4.5802    1.7589 C   0  0  0  0  0  0  0  0  0  0  0  0
    5.1568   -5.7577    0.8741 C   0  0  0  0  0  0  0  0  0  0  0  0
    3.9399   -6.6535    0.9622 C   0  0  0  0  0  0  0  0  0  0  0  0
    2.7710   -5.6776    1.1696 C   0  0  1  0  0  0  0  0  0  0  0  0
    1.6489   -6.3161    1.9887 C   0  0  0  0  0  0  0  0  0  0  0  0
    1.7460   -6.3688    3.3959 C   0  0  0  0  0  0  0  0  0  0  0  0
    0.6990   -6.9440    4.1273 C   0  0  0  0  0  0  0  0  0  0  0  0
    0.7306   -6.9400    5.4797 F   0  0  0  0  0  0  0  0  0  0  0  0
   -0.3874   -7.4980    3.4304 C   0  0  0  0  0  0  0  0  0  0  0  0
   -0.3765   -7.4438    2.0224 C   0  0  0  0  0  0  0  0  0  0  0  0
    0.5950   -6.8260    1.3091 N   0  0  0  0  0  0  0  0  0  0  0  0
    2.7686   -2.0732    1.9352 N   0  0  0  0  0  0  0  0  0  0  0  0
    4.3491   -2.3467   -0.7888 N   0  0  0  0  0  0  0  0  0  0  0  0
    6.6132   -3.6658   -2.8885 H   0  0  0  0  0  0  0  0  0  0  0  0
    5.1381   -2.9177   -3.4938 H   0  0  0  0  0  0  0  0  0  0  0  0
    5.0320   -4.3469   -2.4494 H   0  0  0  0  0  0  0  0  0  0  0  0
    1.5493    0.8558    2.6800 H   0  0  0  0  0  0  0  0  0  0  0  0
    5.2881   -3.6881    1.4350 H   0  0  0  0  0  0  0  0  0  0  0  0
    5.0680   -4.7489    2.7925 H   0  0  0  0  0  0  0  0  0  0  0  0
    5.3053   -5.4135   -0.1503 H   0  0  0  0  0  0  0  0  0  0  0  0
    6.0715   -6.2471    1.2095 H   0  0  0  0  0  0  0  0  0  0  0  0
    3.8192   -7.2887    0.0830 H   0  0  0  0  0  0  0  0  0  0  0  0
    4.0391   -7.3065    1.8295 H   0  0  0  0  0  0  0  0  0  0  0  0
    2.3717   -5.4204    0.1838 H   0  0  0  0  0  0  0  0  0  0  0  0
    2.5925   -5.9266    3.8987 H   0  0  0  0  0  0  0  0  0  0  0  0
   -1.2013   -7.9624    3.9678 H   0  0  0  0  0  0  0  0  0  0  0  0
   -1.1910   -7.8698    1.4596 H   0  0  0  0  0  0  0  0  0  0  0  0
  1  2  1  0
  1 27  1  0
  1 28  1  0
  1 29  1  0
  2 26  1  0
  2  3  2  0
  3  4  1  0
  4  5  1  0
  5  6  1  0
  5 26  2  0
  6 25  1  0
  6  7  1  0
  7  8  2  0
  8  9  1  0
  8 30  1  0
  9 25  1  0
  9 10  2  0
 10 11  1  0
 11 12  2  0
 12 13  1  0
 12 25  1  0
 13 17  1  0
 13 14  1  0
 14 15  1  0
 14 31  1  0
 14 32  1  0
 15 16  1  0
 15 33  1  0
 15 34  1  0
 16 17  1  0
 16 35  1  0
 16 36  1  0
 17 18  1  0
 17 37  1  6
 18 24  1  0
 18 19  2  0
 19 20  1  0
 19 38  1  0
 20 21  1  0
 20 22  2  0
 22 23  1  0
 22 39  1  0
 23 24  2  0
 23 40  1  0
M  END
>  <i_m_ct_stereo_status>  (401) 
1

>  <s_m_source_file>  (401) 
/var/tmp/pbs.5076255.sched01/tmpg_ssl3dq/162k0u29fl7.sdf

>  <i_m_source_file_index>  (401) 
29

>  <i_lp_mmshare_version>  (401) 
48012

>  <i_f3d_flags>  (401) 
0

>  <s_epik_input>  (401) 
W0NIM11jMW5zYyhuMSktbihuW2NIXTIpbihjMjMpYyhubjMpTjRbQ0gyXVtDSDJdW0NIMl1bQ0BIXTRjNVtjSF1jKEYpW2NIXVtjSF1uNQ==

>  <s_epik_cmdline>  (401) 
J2VwaWtfcHl0aG9uJywgJy1waHQnLCAnMi4wJywgJy1waCcsICc3LjAnLCAnLXRuJywgJzgnLCAnLW1hJywgJzIwMCcsICctaW1hZScsICc8aW5maWxlLm1hZT4nLCAnLW9tYWUnLCAnPG91dGZpbGUubWFlPic=

>  <r_epik_Ionization_Penalty>  (401) 
0.0666838

>  <r_epik_Ionization_Penalty_Charging>  (401) 
0

>  <r_epik_Ionization_Penalty_Neutral>  (401) 
0.0666838

>  <r_epik_State_Penalty>  (401) 
0.0582054

>  <r_epik_Charging_Adjusted_Penalty>  (401) 
0.0582054

>  <i_epik_Tot_Q>  (401) 
0

>  <i_epik_Tot_abs_Q>  (401) 
0

>  <s_lp_Force_Field>  (401) 
OPLS3e

>  <r_lp_Energy>  (401) 
17.0769

>  <b_lp_Chiralities_Consistent>  (401) 
1

>  <s_lp_Variant>  (401) 
107:0-1

>  <s_i_glide_gridfile>  (401) 
pfpi4k_grid

>  <i_i_glide_lignum>  (401) 
29

>  <i_i_glide_rotatable_bonds>  (401) 
3

>  <r_i_docking_score>  (401) 
-3.17389

>  <r_i_glide_ligand_efficiency>  (401) 
-0.122073

>  <r_i_glide_ligand_efficiency_sa>  (401) 
-0.36164

>  <r_i_glide_ligand_efficiency_ln>  (401) 
-0.745378

>  <r_i_glide_gscore>  (401) 
-3.17389

>  <r_i_glide_lipo>  (401) 
-0.568162

>  <r_i_glide_hbond>  (401) 
-0.193539

>  <r_i_glide_metal>  (401) 
-0

>  <r_i_glide_rewards>  (401) 
-0.880703

>  <r_i_glide_evdw>  (401) 
-30.8716

>  <r_i_glide_ecoul>  (401) 
-1.97694

>  <r_i_glide_erotb>  (401) 
0.41982

>  <r_i_glide_esite>  (401) 
-0.111186

>  <r_i_glide_emodel>  (401) 
-36.6046

>  <r_i_glide_energy>  (401) 
-32.8486

>  <r_i_glide_einternal>  (401) 
6.19138

>  <r_i_glide_intrahb_reward>  (401) 
-0

>  <i_i_glide_confnum>  (401) 
5

>  <i_i_glide_posenum>  (401) 
36

>  <r_i_glide_eff_state_penalty>  (401) 
0

>  <ligand_id>  (401) 
107

>  <original_smiles>  (401) 
Cc1nsc(-n2ncc3nnc(N4CCCC4c4cc(F)ccn4)n32)n1

>  <smiles>  (401) 
[H]c1nc(C2([H])N(c3nnc4c([H])nn(-c5nc(C([H])([H])[H])ns5)n34)C([H])([H])C([H])([H])C2([H])[H])c([H])c(F)c1[H]

$$$$
107:0:1
     RDKit          3D

 40 44  0  0  1  0  0  0  0  0999 V2000
    2.5885    3.5840    2.6900 C   0  0  0  0  0  0  0  0  0  0  0  0
    2.3908    2.0572    2.5912 C   0  0  0  0  0  0  0  0  0  0  0  0
    3.0055    1.2562    1.6894 N   0  0  0  0  0  0  0  0  0  0  0  0
    2.5748   -0.3564    1.9093 S   0  0  0  0  0  0  0  0  0  0  0  0
    1.5125    0.1063    3.1823 C   0  0  0  0  0  0  0  0  0  0  0  0
    0.7381   -0.8232    3.8839 N   0  0  0  0  0  0  0  0  0  0  0  0
    1.0973   -2.1637    3.9167 N   0  0  0  0  0  0  0  0  0  0  0  0
    0.1724   -2.7886    4.6756 C   0  0  0  0  0  0  0  0  0  0  0  0
   -0.7081   -1.7899    5.0460 C   0  0  0  0  0  0  0  0  0  0  0  0
   -1.8252   -1.7643    5.6907 N   0  0  0  0  0  0  0  0  0  0  0  0
   -2.1506   -0.3742    5.6784 N   0  0  0  0  0  0  0  0  0  0  0  0
   -1.2095    0.2920    4.9546 C   0  0  0  0  0  0  0  0  0  0  0  0
   -1.1472    1.6406    4.6249 N   0  0  0  0  0  0  0  0  0  0  0  0
   -1.6803    2.2250    3.4000 C   0  0  0  0  0  0  0  0  0  0  0  0
   -1.2642    3.6904    3.3376 C   0  0  0  0  0  0  0  0  0  0  0  0
   -1.0395    4.0862    4.7956 C   0  0  0  0  0  0  0  0  0  0  0  0
   -0.7443    2.7450    5.5012 C   0  0  1  0  0  0  0  0  0  0  0  0
   -1.3079    2.6768    6.9161 C   0  0  0  0  0  0  0  0  0  0  0  0
   -0.5083    2.2876    8.0136 C   0  0  0  0  0  0  0  0  0  0  0  0
   -1.1177    2.2161    9.2852 C   0  0  0  0  0  0  0  0  0  0  0  0
   -0.4075    1.8079   10.3622 F   0  0  0  0  0  0  0  0  0  0  0  0
   -2.4812    2.5535    9.4056 C   0  0  0  0  0  0  0  0  0  0  0  0
   -3.1844    2.9430    8.2536 C   0  0  0  0  0  0  0  0  0  0  0  0
   -2.6257    2.9659    7.0309 N   0  0  0  0  0  0  0  0  0  0  0  0
   -0.3475   -0.6377    4.5737 N   0  0  0  0  0  0  0  0  0  0  0  0
    1.5955    1.4107    3.4570 N   0  0  0  0  0  0  0  0  0  0  0  0
    3.0594    3.9946    1.7907 H   0  0  0  0  0  0  0  0  0  0  0  0
    3.1725    3.8245    3.5935 H   0  0  0  0  0  0  0  0  0  0  0  0
    1.6770    4.1627    2.7679 H   0  0  0  0  0  0  0  0  0  0  0  0
    0.0744   -3.8566    4.9057 H   0  0  0  0  0  0  0  0  0  0  0  0
   -1.2383    1.7116    2.5426 H   0  0  0  0  0  0  0  0  0  0  0  0
   -2.7567    2.1372    3.3463 H   0  0  0  0  0  0  0  0  0  0  0  0
   -0.3535    3.6327    2.8082 H   0  0  0  0  0  0  0  0  0  0  0  0
   -1.9239    4.3663    2.7667 H   0  0  0  0  0  0  0  0  0  0  0  0
   -0.2466    4.8271    4.9595 H   0  0  0  0  0  0  0  0  0  0  0  0
   -1.9739    4.5254    5.1174 H   0  0  0  0  0  0  0  0  0  0  0  0
    0.3375    2.6483    5.5761 H   0  0  0  0  0  0  0  0  0  0  0  0
    0.5352    2.0259    7.8871 H   0  0  0  0  0  0  0  0  0  0  0  0
   -2.9874    2.5051   10.3620 H   0  0  0  0  0  0  0  0  0  0  0  0
   -4.2337    3.2000    8.2879 H   0  0  0  0  0  0  0  0  0  0  0  0
  1  2  1  0
  1 27  1  0
  1 28  1  0
  1 29  1  0
  2 26  1  0
  2  3  2  0
  3  4  1  0
  4  5  1  0
  5  6  1  0
  5 26  2  0
  6 25  1  0
  6  7  1  0
  7  8  2  0
  8  9  1  0
  8 30  1  0
  9 25  1  0
  9 10  2  0
 10 11  1  0
 11 12  2  0
 12 13  1  0
 12 25  1  0
 13 17  1  0
 13 14  1  0
 14 15  1  0
 14 31  1  0
 14 32  1  0
 15 16  1  0
 15 33  1  0
 15 34  1  0
 16 17  1  0
 16 35  1  0
 16 36  1  0
 17 18  1  0
 17 37  1  1
 18 24  1  0
 18 19  2  0
 19 20  1  0
 19 38  1  0
 20 21  1  0
 20 22  2  0
 22 23  1  0
 22 39  1  0
 23 24  2  0
 23 40  1  0
M  END
>  <i_m_ct_stereo_status>  (402) 
1

>  <s_m_source_file>  (402) 
/var/tmp/pbs.5076255.sched01/tmpg_ssl3dq/162k0u29fl7.sdf

>  <i_m_source_file_index>  (402) 
29

>  <i_lp_mmshare_version>  (402) 
48012

>  <i_f3d_flags>  (402) 
0

>  <s_epik_input>  (402) 
W0NIM11jMW5zYyhuMSktbihuW2NIXTIpbihjMjMpYyhubjMpTjRbQ0gyXVtDSDJdW0NIMl1bQ0BIXTRjNVtjSF1jKEYpW2NIXVtjSF1uNQ==

>  <s_epik_cmdline>  (402) 
J2VwaWtfcHl0aG9uJywgJy1waHQnLCAnMi4wJywgJy1waCcsICc3LjAnLCAnLXRuJywgJzgnLCAnLW1hJywgJzIwMCcsICctaW1hZScsICc8aW5maWxlLm1hZT4nLCAnLW9tYWUnLCAnPG91dGZpbGUubWFlPic=

>  <r_epik_Ionization_Penalty>  (402) 
0.0666838

>  <r_epik_Ionization_Penalty_Charging>  (402) 
0

>  <r_epik_Ionization_Penalty_Neutral>  (402) 
0.0666838

>  <r_epik_State_Penalty>  (402) 
0.0582054

>  <r_epik_Charging_Adjusted_Penalty>  (402) 
0.0582054

>  <i_epik_Tot_Q>  (402) 
0

>  <i_epik_Tot_abs_Q>  (402) 
0

>  <s_lp_Force_Field>  (402) 
OPLS3e

>  <r_lp_Energy>  (402) 
17.0769

>  <b_lp_Chiralities_Consistent>  (402) 
1

>  <s_lp_Variant>  (402) 
107:0-1

>  <s_i_glide_gridfile>  (402) 
pfpi4k_grid

>  <i_i_glide_lignum>  (402) 
29

>  <i_i_glide_rotatable_bonds>  (402) 
3

>  <r_i_docking_score>  (402) 
-3.02056

>  <r_i_glide_ligand_efficiency>  (402) 
-0.116175

>  <r_i_glide_ligand_efficiency_sa>  (402) 
-0.344169

>  <r_i_glide_ligand_efficiency_ln>  (402) 
-0.709368

>  <r_i_glide_gscore>  (402) 
-3.02056

>  <r_i_glide_lipo>  (402) 
-0.12426

>  <r_i_glide_hbond>  (402) 
0

>  <r_i_glide_metal>  (402) 
-0

>  <r_i_glide_rewards>  (402) 
-0.876843

>  <r_i_glide_evdw>  (402) 
-25.3493

>  <r_i_glide_ecoul>  (402) 
-5.71085

>  <r_i_glide_erotb>  (402) 
0.41982

>  <r_i_glide_esite>  (402) 
-0.315181

>  <r_i_glide_emodel>  (402) 
-32.6809

>  <r_i_glide_energy>  (402) 
-31.0602

>  <r_i_glide_einternal>  (402) 
8.35429

>  <r_i_glide_intrahb_reward>  (402) 
-0

>  <i_i_glide_confnum>  (402) 
1

>  <i_i_glide_posenum>  (402) 
3

>  <r_i_glide_eff_state_penalty>  (402) 
0

>  <ligand_id>  (402) 
107

>  <original_smiles>  (402) 
Cc1nsc(-n2ncc3nnc(N4CCCC4c4cc(F)ccn4)n32)n1

>  <smiles>  (402) 
[H]c1nc(C2([H])N(c3nnc4c([H])nn(-c5nc(C([H])([H])[H])ns5)n34)C([H])([H])C([H])([H])C2([H])[H])c([H])c(F)c1[H]

$$$$
107:0:2
     RDKit          3D

 40 44  0  0  1  0  0  0  0  0999 V2000
    8.7680   -2.5179    0.1697 C   0  0  0  0  0  0  0  0  0  0  0  0
    7.3342   -2.2168   -0.2024 C   0  0  0  0  0  0  0  0  0  0  0  0
    6.8523   -2.3520   -1.4537 N   0  0  0  0  0  0  0  0  0  0  0  0
    5.2034   -1.9760   -1.4676 S   0  0  0  0  0  0  0  0  0  0  0  0
    5.2398   -1.6741    0.2443 C   0  0  0  0  0  0  0  0  0  0  0  0
    4.1354   -1.3160    1.0318 N   0  0  0  0  0  0  0  0  0  0  0  0
    3.8330    0.0044    1.2071 N   0  0  0  0  0  0  0  0  0  0  0  0
    2.7148    0.0195    1.9888 C   0  0  0  0  0  0  0  0  0  0  0  0
    2.4181   -1.3308    2.2523 C   0  0  0  0  0  0  0  0  0  0  0  0
    1.4902   -1.9671    2.9163 N   0  0  0  0  0  0  0  0  0  0  0  0
    1.8566   -3.3343    2.7026 N   0  0  0  0  0  0  0  0  0  0  0  0
    2.9695   -3.3686    1.9263 C   0  0  0  0  0  0  0  0  0  0  0  0
    3.6865   -4.4894    1.4729 N   0  0  0  0  0  0  0  0  0  0  0  0
    5.1122   -4.7265    1.6661 C   0  0  0  0  0  0  0  0  0  0  0  0
    5.5267   -5.9266    0.8322 C   0  0  0  0  0  0  0  0  0  0  0  0
    4.2701   -6.7712    0.8329 C   0  0  0  0  0  0  0  0  0  0  0  0
    3.1273   -5.7386    0.9243 C   0  0  1  0  0  0  0  0  0  0  0  0
    1.9253   -6.2942    1.6851 C   0  0  0  0  0  0  0  0  0  0  0  0
    1.9438   -6.3425    3.0954 C   0  0  0  0  0  0  0  0  0  0  0  0
    0.8278   -6.8578    3.7664 C   0  0  0  0  0  0  0  0  0  0  0  0
    0.7862   -6.8629    5.1195 F   0  0  0  0  0  0  0  0  0  0  0  0
   -0.2517   -7.3430    3.0121 C   0  0  0  0  0  0  0  0  0  0  0  0
   -0.1649   -7.2850    1.6089 C   0  0  0  0  0  0  0  0  0  0  0  0
    0.8802   -6.7344    0.9503 N   0  0  0  0  0  0  0  0  0  0  0  0
    3.2868   -2.1014    1.6753 N   0  0  0  0  0  0  0  0  0  0  0  0
    6.4735   -1.7611    0.7229 N   0  0  0  0  0  0  0  0  0  0  0  0
    9.3988   -2.5545   -0.7106 H   0  0  0  0  0  0  0  0  0  0  0  0
    8.8442   -3.4778    0.6750 H   0  0  0  0  0  0  0  0  0  0  0  0
    9.1417   -1.7374    0.8281 H   0  0  0  0  0  0  0  0  0  0  0  0
    2.1825    0.8960    2.3313 H   0  0  0  0  0  0  0  0  0  0  0  0
    5.6994   -3.8900    1.3348 H   0  0  0  0  0  0  0  0  0  0  0  0
    5.3272   -4.8742    2.7276 H   0  0  0  0  0  0  0  0  0  0  0  0
    5.7634   -5.6015   -0.1823 H   0  0  0  0  0  0  0  0  0  0  0  0
    6.3974   -6.4409    1.2402 H   0  0  0  0  0  0  0  0  0  0  0  0
    4.2027   -7.4285   -0.0382 H   0  0  0  0  0  0  0  0  0  0  0  0
    4.2801   -7.3945    1.7294 H   0  0  0  0  0  0  0  0  0  0  0  0
    2.8105   -5.4913   -0.0943 H   0  0  0  0  0  0  0  0  0  0  0  0
    2.7896   -5.9558    3.6431 H   0  0  0  0  0  0  0  0  0  0  0  0
   -1.1194   -7.7606    3.5003 H   0  0  0  0  0  0  0  0  0  0  0  0
   -0.9663   -7.6661    0.9969 H   0  0  0  0  0  0  0  0  0  0  0  0
  1  2  1  0
  1 27  1  0
  1 28  1  0
  1 29  1  0
  2 26  1  0
  2  3  2  0
  3  4  1  0
  4  5  1  0
  5  6  1  0
  5 26  2  0
  6 25  1  0
  6  7  1  0
  7  8  2  0
  8  9  1  0
  8 30  1  0
  9 25  1  0
  9 10  2  0
 10 11  1  0
 11 12  2  0
 12 13  1  0
 12 25  1  0
 13 17  1  0
 13 14  1  0
 14 15  1  0
 14 31  1  0
 14 32  1  0
 15 16  1  0
 15 33  1  0
 15 34  1  0
 16 17  1  0
 16 35  1  0
 16 36  1  0
 17 18  1  0
 17 37  1  6
 18 24  1  0
 18 19  2  0
 19 20  1  0
 19 38  1  0
 20 21  1  0
 20 22  2  0
 22 23  1  0
 22 39  1  0
 23 24  2  0
 23 40  1  0
M  END
>  <i_m_ct_stereo_status>  (403) 
1

>  <s_m_source_file>  (403) 
/var/tmp/pbs.5076255.sched01/tmpg_ssl3dq/162k0u29fl7.sdf

>  <i_m_source_file_index>  (403) 
29

>  <i_lp_mmshare_version>  (403) 
48012

>  <i_f3d_flags>  (403) 
0

>  <s_epik_input>  (403) 
W0NIM11jMW5zYyhuMSktbihuW2NIXTIpbihjMjMpYyhubjMpTjRbQ0gyXVtDSDJdW0NIMl1bQ0BIXTRjNVtjSF1jKEYpW2NIXVtjSF1uNQ==

>  <s_epik_cmdline>  (403) 
J2VwaWtfcHl0aG9uJywgJy1waHQnLCAnMi4wJywgJy1waCcsICc3LjAnLCAnLXRuJywgJzgnLCAnLW1hJywgJzIwMCcsICctaW1hZScsICc8aW5maWxlLm1hZT4nLCAnLW9tYWUnLCAnPG91dGZpbGUubWFlPic=

>  <r_epik_Ionization_Penalty>  (403) 
0.0666838

>  <r_epik_Ionization_Penalty_Charging>  (403) 
0

>  <r_epik_Ionization_Penalty_Neutral>  (403) 
0.0666838

>  <r_epik_State_Penalty>  (403) 
0.0582054

>  <r_epik_Charging_Adjusted_Penalty>  (403) 
0.0582054

>  <i_epik_Tot_Q>  (403) 
0

>  <i_epik_Tot_abs_Q>  (403) 
0

>  <s_lp_Force_Field>  (403) 
OPLS3e

>  <r_lp_Energy>  (403) 
17.0769

>  <b_lp_Chiralities_Consistent>  (403) 
1

>  <s_lp_Variant>  (403) 
107:0-1

>  <s_i_glide_gridfile>  (403) 
pfpi4k_grid

>  <i_i_glide_lignum>  (403) 
29

>  <i_i_glide_rotatable_bonds>  (403) 
3

>  <r_i_docking_score>  (403) 
-2.84967

>  <r_i_glide_ligand_efficiency>  (403) 
-0.109603

>  <r_i_glide_ligand_efficiency_sa>  (403) 
-0.324697

>  <r_i_glide_ligand_efficiency_ln>  (403) 
-0.669235

>  <r_i_glide_gscore>  (403) 
-2.84967

>  <r_i_glide_lipo>  (403) 
-0.247333

>  <r_i_glide_hbond>  (403) 
-0.211334

>  <r_i_glide_metal>  (403) 
-0

>  <r_i_glide_rewards>  (403) 
-0.939964

>  <r_i_glide_evdw>  (403) 
-31.6003

>  <r_i_glide_ecoul>  (403) 
-1.34032

>  <r_i_glide_erotb>  (403) 
0.41982

>  <r_i_glide_esite>  (403) 
-0.0897922

>  <r_i_glide_emodel>  (403) 
-35.8269

>  <r_i_glide_energy>  (403) 
-32.9407

>  <r_i_glide_einternal>  (403) 
6.3721

>  <r_i_glide_intrahb_reward>  (403) 
-0

>  <i_i_glide_confnum>  (403) 
2

>  <i_i_glide_posenum>  (403) 
26

>  <r_i_glide_eff_state_penalty>  (403) 
0

>  <ligand_id>  (403) 
107

>  <original_smiles>  (403) 
Cc1nsc(-n2ncc3nnc(N4CCCC4c4cc(F)ccn4)n32)n1

>  <smiles>  (403) 
[H]c1nc(C2([H])N(c3nnc4c([H])nn(-c5nc(C([H])([H])[H])ns5)n34)C([H])([H])C([H])([H])C2([H])[H])c([H])c(F)c1[H]

$$$$
107:1:0
     RDKit          3D

 41 45  0  0  1  0  0  0  0  0999 V2000
    1.8125   -3.3909    3.5304 C   0  0  0  0  0  0  0  0  0  0  0  0
    2.6116   -4.4301    2.7530 C   0  0  0  0  0  0  0  0  0  0  0  0
    2.0259   -5.4456    2.0793 N   0  0  0  0  0  0  0  0  0  0  0  0
    3.1984   -6.2474    1.1578 S   0  0  0  0  0  0  0  0  0  0  0  0
    4.3874   -5.0506    1.6289 C   0  0  0  0  0  0  0  0  0  0  0  0
    5.6673   -4.8962    1.0468 N   0  0  0  0  0  0  0  0  0  0  0  0
    6.4099   -6.0230    0.8816 N   0  0  0  0  0  0  0  0  0  0  0  0
    7.6328   -5.6443    0.4901 C   0  0  0  0  0  0  0  0  0  0  0  0
    7.5619   -4.2567    0.4094 C   0  0  0  0  0  0  0  0  0  0  0  0
    8.4273   -3.3071    0.0872 N   0  0  0  0  0  0  0  0  0  0  0  0
    7.6341   -2.1330    0.2729 N   0  0  0  0  0  0  0  0  0  0  0  0
    6.3875   -2.4830    0.6768 C   0  0  0  0  0  0  0  0  0  0  0  0
    5.3154   -1.6649    0.9724 N   0  0  0  0  0  0  0  0  0  0  0  0
    5.3770   -0.2816    1.4563 C   0  0  0  0  0  0  0  0  0  0  0  0
    3.9719    0.3111    1.3947 C   0  0  0  0  0  0  0  0  0  0  0  0
    3.0723   -0.8959    1.3981 C   0  0  0  0  0  0  0  0  0  0  0  0
    3.9110   -1.8964    0.6475 C   0  0  1  0  0  0  0  0  0  0  0  0
    3.6020   -2.0761   -0.8052 C   0  0  0  0  0  0  0  0  0  0  0  0
    4.0912   -1.1582   -1.7458 C   0  0  0  0  0  0  0  0  0  0  0  0
    3.7607   -1.3492   -3.0873 C   0  0  0  0  0  0  0  0  0  0  0  0
    4.2162   -0.4583   -3.9949 F   0  0  0  0  0  0  0  0  0  0  0  0
    2.9822   -2.4603   -3.4606 C   0  0  0  0  0  0  0  0  0  0  0  0
    2.5251   -3.3670   -2.4723 C   0  0  0  0  0  0  0  0  0  0  0  0
    2.8618   -3.1478   -1.1855 N   0  0  0  0  0  0  0  0  0  0  0  0
    6.3840   -3.8298    0.7244 N   0  0  0  0  0  0  0  0  0  0  0  0
    3.9370   -4.2798    2.5993 N   0  0  0  0  0  0  0  0  0  0  0  0
    0.9390   -3.8671    3.9664 H   0  0  0  0  0  0  0  0  0  0  0  0
    1.4300   -2.5430    2.9366 H   0  0  0  0  0  0  0  0  0  0  0  0
    2.4714   -3.0091    4.3163 H   0  0  0  0  0  0  0  0  0  0  0  0
    8.4476   -6.3565    0.2883 H   0  0  0  0  0  0  0  0  0  0  0  0
    5.7311   -0.3100    2.4860 H   0  0  0  0  0  0  0  0  0  0  0  0
    6.0750    0.3126    0.8691 H   0  0  0  0  0  0  0  0  0  0  0  0
    3.7392    1.0018    2.2010 H   0  0  0  0  0  0  0  0  0  0  0  0
    3.8193    0.8199    0.4584 H   0  0  0  0  0  0  0  0  0  0  0  0
    2.9718   -1.1873    2.4432 H   0  0  0  0  0  0  0  0  0  0  0  0
    2.0793   -0.7778    0.9524 H   0  0  0  0  0  0  0  0  0  0  0  0
    3.6024   -2.8612    0.9514 H   0  0  0  0  0  0  0  0  0  0  0  0
    4.6824   -0.3231   -1.3887 H   0  0  0  0  0  0  0  0  0  0  0  0
    2.7314   -2.6089   -4.4913 H   0  0  0  0  0  0  0  0  0  0  0  0
    1.9252   -4.2362   -2.6825 H   0  0  0  0  0  0  0  0  0  0  0  0
    2.5407   -3.8275   -0.4811 H   0  0  0  0  0  0  0  0  0  0  0  0
  1  2  1  0
  1 27  1  0
  1 28  1  0
  1 29  1  0
  2 26  1  0
  2  3  2  0
  3  4  1  0
  4  5  1  0
  5  6  1  0
  5 26  2  0
  6 25  1  0
  6  7  1  0
  7  8  2  0
  8  9  1  0
  8 30  1  0
  9 25  1  0
  9 10  2  0
 10 11  1  0
 11 12  2  0
 12 13  1  0
 12 25  1  0
 13 17  1  0
 13 14  1  0
 14 15  1  0
 14 31  1  0
 14 32  1  0
 15 16  1  0
 15 33  1  0
 15 34  1  0
 16 17  1  0
 16 35  1  0
 16 36  1  0
 17 18  1  0
 17 37  1  1
 18 24  1  0
 18 19  2  0
 19 20  1  0
 19 38  1  0
 20 21  1  0
 20 22  2  0
 22 23  1  0
 22 39  1  0
 23 24  2  0
 23 40  1  0
 24 41  1  0
M  CHG  1  24   1
M  END
>  <i_m_ct_stereo_status>  (404) 
1

>  <s_m_source_file>  (404) 
/var/tmp/pbs.5076255.sched01/tmpg_ssl3dq/162k0u29fl7.sdf

>  <i_m_source_file_index>  (404) 
30

>  <i_lp_mmshare_version>  (404) 
48012

>  <i_f3d_flags>  (404) 
0

>  <s_epik_input>  (404) 
W0NIM11jMW5zYyhuMSktbihuW2NIXTIpbihjMjMpYyhubjMpTjRbQ0gyXVtDSDJdW0NIMl1bQ0BIXTRjNVtjSF1jKEYpW2NIXVtjSF1uNQ==

>  <s_epik_cmdline>  (404) 
J2VwaWtfcHl0aG9uJywgJy1waHQnLCAnMi4wJywgJy1waCcsICc3LjAnLCAnLXRuJywgJzgnLCAnLW1hJywgJzIwMCcsICctaW1hZScsICc8aW5maWxlLm1hZT4nLCAnLW9tYWUnLCAnPG91dGZpbGUubWFlPic=

>  <r_epik_Ionization_Penalty>  (404) 
1.32753

>  <r_epik_Ionization_Penalty_Charging>  (404) 
1.32751

>  <r_epik_Ionization_Penalty_Neutral>  (404) 
2.74888e-05

>  <r_epik_State_Penalty>  (404) 
1.40364

>  <r_epik_Charging_Adjusted_Penalty>  (404) 
2.73114

>  <i_epik_Tot_Q>  (404) 
1

>  <i_epik_Tot_abs_Q>  (404) 
1

>  <s_lp_Force_Field>  (404) 
OPLS3e

>  <r_lp_Energy>  (404) 
24.3705

>  <b_lp_Chiralities_Consistent>  (404) 
1

>  <s_lp_Variant>  (404) 
107:0-2

>  <s_i_glide_gridfile>  (404) 
pfpi4k_grid

>  <i_i_glide_lignum>  (404) 
30

>  <i_i_glide_rotatable_bonds>  (404) 
3

>  <r_i_docking_score>  (404) 
-4.51863

>  <r_i_glide_ligand_efficiency>  (404) 
-0.173794

>  <r_i_glide_ligand_efficiency_sa>  (404) 
-0.514863

>  <r_i_glide_ligand_efficiency_ln>  (404) 
-1.06119

>  <r_i_glide_gscore>  (404) 
-4.51863

>  <r_i_glide_lipo>  (404) 
-0.59331

>  <r_i_glide_hbond>  (404) 
0

>  <r_i_glide_metal>  (404) 
-0

>  <r_i_glide_rewards>  (404) 
-1.90348

>  <r_i_glide_evdw>  (404) 
-29.1833

>  <r_i_glide_ecoul>  (404) 
-6.51152

>  <r_i_glide_erotb>  (404) 
0.417791

>  <r_i_glide_esite>  (404) 
-0.0037388

>  <r_i_glide_emodel>  (404) 
-43.8002

>  <r_i_glide_energy>  (404) 
-35.6949

>  <r_i_glide_einternal>  (404) 
1.54723

>  <r_i_glide_intrahb_reward>  (404) 
-0

>  <i_i_glide_confnum>  (404) 
1

>  <i_i_glide_posenum>  (404) 
4

>  <r_i_glide_eff_state_penalty>  (404) 
0

>  <ligand_id>  (404) 
107

>  <original_smiles>  (404) 
Cc1nsc(-n2ncc3nnc(N4CCCC4c4cc(F)ccn4)n32)n1

>  <smiles>  (404) 
[H]c1c(F)c([H])c(C2([H])N(c3nnc4c([H])nn(-c5nc(C([H])([H])[H])ns5)n34)C([H])([H])C([H])([H])C2([H])[H])[n+]([H])c1[H]

$$$$
107:1:1
     RDKit          3D

 41 45  0  0  1  0  0  0  0  0999 V2000
    4.9566   -8.4237    1.5851 C   0  0  0  0  0  0  0  0  0  0  0  0
    4.2753   -7.1413    1.1889 C   0  0  0  0  0  0  0  0  0  0  0  0
    2.9797   -6.8986    1.4767 N   0  0  0  0  0  0  0  0  0  0  0  0
    2.4910   -5.5024    0.6710 S   0  0  0  0  0  0  0  0  0  0  0  0
    4.1271   -5.1888    0.1717 C   0  0  0  0  0  0  0  0  0  0  0  0
    4.5687   -4.0608   -0.5409 N   0  0  0  0  0  0  0  0  0  0  0  0
    5.2863   -4.2231   -1.6921 N   0  0  0  0  0  0  0  0  0  0  0  0
    5.5668   -2.9608   -2.1327 C   0  0  0  0  0  0  0  0  0  0  0  0
    4.9978   -2.0900   -1.1756 C   0  0  0  0  0  0  0  0  0  0  0  0
    4.9127   -0.7981   -1.0149 N   0  0  0  0  0  0  0  0  0  0  0  0
    4.1527   -0.6918    0.2038 N   0  0  0  0  0  0  0  0  0  0  0  0
    3.8835   -1.9489    0.6355 C   0  0  0  0  0  0  0  0  0  0  0  0
    3.1588   -2.3387    1.7683 N   0  0  0  0  0  0  0  0  0  0  0  0
    3.6348   -3.2072    2.8489 C   0  0  0  0  0  0  0  0  0  0  0  0
    2.6197   -3.1484    3.9916 C   0  0  0  0  0  0  0  0  0  0  0  0
    1.3455   -2.6451    3.3209 C   0  0  0  0  0  0  0  0  0  0  0  0
    1.8729   -1.7734    2.1728 C   0  0  1  0  0  0  0  0  0  0  0  0
    1.9597   -0.3004    2.5405 C   0  0  0  0  0  0  0  0  0  0  0  0
    2.7720    0.1544    3.6024 C   0  0  0  0  0  0  0  0  0  0  0  0
    2.8307    1.5223    3.9043 C   0  0  0  0  0  0  0  0  0  0  0  0
    3.6067    1.9586    4.9204 F   0  0  0  0  0  0  0  0  0  0  0  0
    2.0786    2.4210    3.1290 C   0  0  0  0  0  0  0  0  0  0  0  0
    1.2796    1.9188    2.0836 C   0  0  0  0  0  0  0  0  0  0  0  0
    1.2461    0.5923    1.8199 N   0  0  0  0  0  0  0  0  0  0  0  0
    4.4194   -2.7822   -0.2464 N   0  0  0  0  0  0  0  0  0  0  0  0
    4.9322   -6.1905    0.5015 N   0  0  0  0  0  0  0  0  0  0  0  0
    4.2283   -9.1663    1.9058 H   0  0  0  0  0  0  0  0  0  0  0  0
    5.6600   -8.2574    2.3987 H   0  0  0  0  0  0  0  0  0  0  0  0
    5.5007   -8.8354    0.7351 H   0  0  0  0  0  0  0  0  0  0  0  0
    6.1238   -2.7294   -3.0257 H   0  0  0  0  0  0  0  0  0  0  0  0
    3.7104   -4.2389    2.5176 H   0  0  0  0  0  0  0  0  0  0  0  0
    4.6367   -2.9163    3.1711 H   0  0  0  0  0  0  0  0  0  0  0  0
    2.4842   -4.1117    4.4807 H   0  0  0  0  0  0  0  0  0  0  0  0
    2.9499   -2.4532    4.7597 H   0  0  0  0  0  0  0  0  0  0  0  0
    0.7957   -3.4939    2.9091 H   0  0  0  0  0  0  0  0  0  0  0  0
    0.6709   -2.1061    3.9899 H   0  0  0  0  0  0  0  0  0  0  0  0
    1.1904   -1.8572    1.3220 H   0  0  0  0  0  0  0  0  0  0  0  0
    3.3713   -0.5210    4.1919 H   0  0  0  0  0  0  0  0  0  0  0  0
    2.1265    3.4789    3.3294 H   0  0  0  0  0  0  0  0  0  0  0  0
    0.6886    2.5465    1.4355 H   0  0  0  0  0  0  0  0  0  0  0  0
    0.6884    0.2576    1.0287 H   0  0  0  0  0  0  0  0  0  0  0  0
  1  2  1  0
  1 27  1  0
  1 28  1  0
  1 29  1  0
  2 26  1  0
  2  3  2  0
  3  4  1  0
  4  5  1  0
  5  6  1  0
  5 26  2  0
  6 25  1  0
  6  7  1  0
  7  8  2  0
  8  9  1  0
  8 30  1  0
  9 25  1  0
  9 10  2  0
 10 11  1  0
 11 12  2  0
 12 13  1  0
 12 25  1  0
 13 17  1  0
 13 14  1  0
 14 15  1  0
 14 31  1  0
 14 32  1  0
 15 16  1  0
 15 33  1  0
 15 34  1  0
 16 17  1  0
 16 35  1  0
 16 36  1  0
 17 18  1  0
 17 37  1  6
 18 24  1  0
 18 19  2  0
 19 20  1  0
 19 38  1  0
 20 21  1  0
 20 22  2  0
 22 23  1  0
 22 39  1  0
 23 24  2  0
 23 40  1  0
 24 41  1  0
M  CHG  1  24   1
M  END
>  <i_m_ct_stereo_status>  (405) 
1

>  <s_m_source_file>  (405) 
/var/tmp/pbs.5076255.sched01/tmpg_ssl3dq/162k0u29fl7.sdf

>  <i_m_source_file_index>  (405) 
30

>  <i_lp_mmshare_version>  (405) 
48012

>  <i_f3d_flags>  (405) 
0

>  <s_epik_input>  (405) 
W0NIM11jMW5zYyhuMSktbihuW2NIXTIpbihjMjMpYyhubjMpTjRbQ0gyXVtDSDJdW0NIMl1bQ0BIXTRjNVtjSF1jKEYpW2NIXVtjSF1uNQ==

>  <s_epik_cmdline>  (405) 
J2VwaWtfcHl0aG9uJywgJy1waHQnLCAnMi4wJywgJy1waCcsICc3LjAnLCAnLXRuJywgJzgnLCAnLW1hJywgJzIwMCcsICctaW1hZScsICc8aW5maWxlLm1hZT4nLCAnLW9tYWUnLCAnPG91dGZpbGUubWFlPic=

>  <r_epik_Ionization_Penalty>  (405) 
1.32753

>  <r_epik_Ionization_Penalty_Charging>  (405) 
1.32751

>  <r_epik_Ionization_Penalty_Neutral>  (405) 
2.74888e-05

>  <r_epik_State_Penalty>  (405) 
1.40364

>  <r_epik_Charging_Adjusted_Penalty>  (405) 
2.73114

>  <i_epik_Tot_Q>  (405) 
1

>  <i_epik_Tot_abs_Q>  (405) 
1

>  <s_lp_Force_Field>  (405) 
OPLS3e

>  <r_lp_Energy>  (405) 
24.3705

>  <b_lp_Chiralities_Consistent>  (405) 
1

>  <s_lp_Variant>  (405) 
107:0-2

>  <s_i_glide_gridfile>  (405) 
pfpi4k_grid

>  <i_i_glide_lignum>  (405) 
30

>  <i_i_glide_rotatable_bonds>  (405) 
3

>  <r_i_docking_score>  (405) 
-3.14397

>  <r_i_glide_ligand_efficiency>  (405) 
-0.120922

>  <r_i_glide_ligand_efficiency_sa>  (405) 
-0.358231

>  <r_i_glide_ligand_efficiency_ln>  (405) 
-0.738351

>  <r_i_glide_gscore>  (405) 
-3.14397

>  <r_i_glide_lipo>  (405) 
-0.189557

>  <r_i_glide_hbond>  (405) 
-0.125593

>  <r_i_glide_metal>  (405) 
-0

>  <r_i_glide_rewards>  (405) 
-1.00723

>  <r_i_glide_evdw>  (405) 
-26.4896

>  <r_i_glide_ecoul>  (405) 
-4.92332

>  <r_i_glide_erotb>  (405) 
0.417791

>  <r_i_glide_esite>  (405) 
-0.176399

>  <r_i_glide_emodel>  (405) 
-35.165

>  <r_i_glide_energy>  (405) 
-31.4129

>  <r_i_glide_einternal>  (405) 
6.35643

>  <r_i_glide_intrahb_reward>  (405) 
-0

>  <i_i_glide_confnum>  (405) 
3

>  <i_i_glide_posenum>  (405) 
14

>  <r_i_glide_eff_state_penalty>  (405) 
0

>  <ligand_id>  (405) 
107

>  <original_smiles>  (405) 
Cc1nsc(-n2ncc3nnc(N4CCCC4c4cc(F)ccn4)n32)n1

>  <smiles>  (405) 
[H]c1c(F)c([H])c(C2([H])N(c3nnc4c([H])nn(-c5nc(C([H])([H])[H])ns5)n34)C([H])([H])C([H])([H])C2([H])[H])[n+]([H])c1[H]

$$$$
107:1:2
     RDKit          3D

 41 45  0  0  1  0  0  0  0  0999 V2000
    0.5173   -6.9723    1.1676 C   0  0  0  0  0  0  0  0  0  0  0  0
    1.7748   -6.1957    1.4372 C   0  0  0  0  0  0  0  0  0  0  0  0
    2.3643   -6.2287    2.6449 N   0  0  0  0  0  0  0  0  0  0  0  0
    3.7813   -5.3298    2.6012 S   0  0  0  0  0  0  0  0  0  0  0  0
    3.4259   -4.7879    0.9810 C   0  0  0  0  0  0  0  0  0  0  0  0
    4.2099   -3.8830    0.2100 N   0  0  0  0  0  0  0  0  0  0  0  0
    4.6051   -4.1993   -1.0692 N   0  0  0  0  0  0  0  0  0  0  0  0
    5.3947   -3.1599   -1.4967 C   0  0  0  0  0  0  0  0  0  0  0  0
    5.3967   -2.2576   -0.4202 C   0  0  0  0  0  0  0  0  0  0  0  0
    5.9668   -1.1230   -0.1756 N   0  0  0  0  0  0  0  0  0  0  0  0
    5.5204   -0.8481    1.1701 N   0  0  0  0  0  0  0  0  0  0  0  0
    4.7295   -1.8717    1.5645 C   0  0  0  0  0  0  0  0  0  0  0  0
    4.0454   -2.0638    2.7813 N   0  0  0  0  0  0  0  0  0  0  0  0
    4.6513   -2.3526    4.0785 C   0  0  0  0  0  0  0  0  0  0  0  0
    3.5889   -2.2091    5.1774 C   0  0  0  0  0  0  0  0  0  0  0  0
    2.2796   -2.3264    4.4111 C   0  0  0  0  0  0  0  0  0  0  0  0
    2.6377   -1.7754    3.0193 C   0  0  1  0  0  0  0  0  0  0  0  0
    2.2858   -0.3002    2.8498 C   0  0  0  0  0  0  0  0  0  0  0  0
    2.8637    0.6992    3.6683 C   0  0  0  0  0  0  0  0  0  0  0  0
    2.5170    2.0469    3.4899 C   0  0  0  0  0  0  0  0  0  0  0  0
    3.0568    3.0055    4.2830 F   0  0  0  0  0  0  0  0  0  0  0  0
    1.5941    2.3712    2.4787 C   0  0  0  0  0  0  0  0  0  0  0  0
    1.0342    1.3463    1.6874 C   0  0  0  0  0  0  0  0  0  0  0  0
    1.4024    0.0567    1.8799 N   0  0  0  0  0  0  0  0  0  0  0  0
    4.6818   -2.7244    0.5634 N   0  0  0  0  0  0  0  0  0  0  0  0
    2.3471   -5.4014    0.5076 N   0  0  0  0  0  0  0  0  0  0  0  0
    0.0689   -7.2971    2.1080 H   0  0  0  0  0  0  0  0  0  0  0  0
    0.7834   -7.8551    0.6003 H   0  0  0  0  0  0  0  0  0  0  0  0
   -0.1875   -6.3731    0.5912 H   0  0  0  0  0  0  0  0  0  0  0  0
    5.9207   -3.0722   -2.4397 H   0  0  0  0  0  0  0  0  0  0  0  0
    5.0213   -3.3766    4.0786 H   0  0  0  0  0  0  0  0  0  0  0  0
    5.5165   -1.7150    4.2557 H   0  0  0  0  0  0  0  0  0  0  0  0
    3.6975   -2.9444    5.9731 H   0  0  0  0  0  0  0  0  0  0  0  0
    3.6748   -1.2437    5.6673 H   0  0  0  0  0  0  0  0  0  0  0  0
    2.0182   -3.3844    4.3256 H   0  0  0  0  0  0  0  0  0  0  0  0
    1.4358   -1.8167    4.8820 H   0  0  0  0  0  0  0  0  0  0  0  0
    2.0647   -2.3403    2.2865 H   0  0  0  0  0  0  0  0  0  0  0  0
    3.5896    0.4711    4.4298 H   0  0  0  0  0  0  0  0  0  0  0  0
    1.3499    3.4095    2.2998 H   0  0  0  0  0  0  0  0  0  0  0  0
    0.3289    1.5180    0.8826 H   0  0  0  0  0  0  0  0  0  0  0  0
    1.0335   -0.6384    1.2190 H   0  0  0  0  0  0  0  0  0  0  0  0
  1  2  1  0
  1 27  1  0
  1 28  1  0
  1 29  1  0
  2 26  1  0
  2  3  2  0
  3  4  1  0
  4  5  1  0
  5  6  1  0
  5 26  2  0
  6 25  1  0
  6  7  1  0
  7  8  2  0
  8  9  1  0
  8 30  1  0
  9 25  1  0
  9 10  2  0
 10 11  1  0
 11 12  2  0
 12 13  1  0
 12 25  1  0
 13 17  1  0
 13 14  1  0
 14 15  1  0
 14 31  1  0
 14 32  1  0
 15 16  1  0
 15 33  1  0
 15 34  1  0
 16 17  1  0
 16 35  1  0
 16 36  1  0
 17 18  1  0
 17 37  1  6
 18 24  1  0
 18 19  2  0
 19 20  1  0
 19 38  1  0
 20 21  1  0
 20 22  2  0
 22 23  1  0
 22 39  1  0
 23 24  2  0
 23 40  1  0
 24 41  1  0
M  CHG  1  24   1
M  END
>  <i_m_ct_stereo_status>  (406) 
1

>  <s_m_source_file>  (406) 
/var/tmp/pbs.5076255.sched01/tmpg_ssl3dq/162k0u29fl7.sdf

>  <i_m_source_file_index>  (406) 
30

>  <i_lp_mmshare_version>  (406) 
48012

>  <i_f3d_flags>  (406) 
0

>  <s_epik_input>  (406) 
W0NIM11jMW5zYyhuMSktbihuW2NIXTIpbihjMjMpYyhubjMpTjRbQ0gyXVtDSDJdW0NIMl1bQ0BIXTRjNVtjSF1jKEYpW2NIXVtjSF1uNQ==

>  <s_epik_cmdline>  (406) 
J2VwaWtfcHl0aG9uJywgJy1waHQnLCAnMi4wJywgJy1waCcsICc3LjAnLCAnLXRuJywgJzgnLCAnLW1hJywgJzIwMCcsICctaW1hZScsICc8aW5maWxlLm1hZT4nLCAnLW9tYWUnLCAnPG91dGZpbGUubWFlPic=

>  <r_epik_Ionization_Penalty>  (406) 
1.32753

>  <r_epik_Ionization_Penalty_Charging>  (406) 
1.32751

>  <r_epik_Ionization_Penalty_Neutral>  (406) 
2.74888e-05

>  <r_epik_State_Penalty>  (406) 
1.40364

>  <r_epik_Charging_Adjusted_Penalty>  (406) 
2.73114

>  <i_epik_Tot_Q>  (406) 
1

>  <i_epik_Tot_abs_Q>  (406) 
1

>  <s_lp_Force_Field>  (406) 
OPLS3e

>  <r_lp_Energy>  (406) 
24.3705

>  <b_lp_Chiralities_Consistent>  (406) 
1

>  <s_lp_Variant>  (406) 
107:0-2

>  <s_i_glide_gridfile>  (406) 
pfpi4k_grid

>  <i_i_glide_lignum>  (406) 
30

>  <i_i_glide_rotatable_bonds>  (406) 
3

>  <r_i_docking_score>  (406) 
-2.90678

>  <r_i_glide_ligand_efficiency>  (406) 
-0.111799

>  <r_i_glide_ligand_efficiency_sa>  (406) 
-0.331204

>  <r_i_glide_ligand_efficiency_ln>  (406) 
-0.682647

>  <r_i_glide_gscore>  (406) 
-2.90678

>  <r_i_glide_lipo>  (406) 
-0.098676

>  <r_i_glide_hbond>  (406) 
-0.169359

>  <r_i_glide_metal>  (406) 
-0

>  <r_i_glide_rewards>  (406) 
-0.96463

>  <r_i_glide_evdw>  (406) 
-25.8898

>  <r_i_glide_ecoul>  (406) 
-4.13043

>  <r_i_glide_erotb>  (406) 
0.417791

>  <r_i_glide_esite>  (406) 
-0.17785

>  <r_i_glide_emodel>  (406) 
-32.0097

>  <r_i_glide_energy>  (406) 
-30.0202

>  <r_i_glide_einternal>  (406) 
8.85642

>  <r_i_glide_intrahb_reward>  (406) 
-0

>  <i_i_glide_confnum>  (406) 
3

>  <i_i_glide_posenum>  (406) 
3

>  <r_i_glide_eff_state_penalty>  (406) 
0

>  <ligand_id>  (406) 
107

>  <original_smiles>  (406) 
Cc1nsc(-n2ncc3nnc(N4CCCC4c4cc(F)ccn4)n32)n1

>  <smiles>  (406) 
[H]c1c(F)c([H])c(C2([H])N(c3nnc4c([H])nn(-c5nc(C([H])([H])[H])ns5)n34)C([H])([H])C([H])([H])C2([H])[H])[n+]([H])c1[H]

$$$$
109:0:0
     RDKit          3D

 36 39  0  0  1  0  0  0  0  0999 V2000
  -10.1037   -3.0692   -6.6664 C   0  0  0  0  0  0  0  0  0  0  0  0
   -9.8063   -4.3212   -7.0341 C   0  0  0  0  0  0  0  0  0  0  0  0
  -10.5454   -5.1340   -7.9733 C   0  0  0  0  0  0  0  0  0  0  0  0
   -9.9073   -6.2980   -8.0973 C   0  0  0  0  0  0  0  0  0  0  0  0
   -8.7530   -6.2499   -7.2678 C   0  0  0  0  0  0  0  0  0  0  0  0
   -8.7325   -5.0559   -6.5819 N   0  0  0  0  0  0  0  0  0  0  0  0
   -7.9066   -7.2783   -7.2245 C   0  0  0  0  0  0  0  0  0  0  0  0
   -6.7343   -7.4664   -6.4030 C   0  0  0  0  0  0  0  0  0  0  0  0
   -6.1807   -6.6773   -5.3873 C   0  0  0  0  0  0  0  0  0  0  0  0
   -5.0064   -7.1473   -4.7840 C   0  0  0  0  0  0  0  0  0  0  0  0
   -4.4094   -8.3680   -5.1900 C   0  0  0  0  0  0  0  0  0  0  0  0
   -4.9915   -9.1540   -6.2099 C   0  0  0  0  0  0  0  0  0  0  0  0
   -6.1693   -8.6604   -6.7896 C   0  0  0  0  0  0  0  0  0  0  0  0
   -6.9876   -9.2584   -7.8661 C   0  0  0  0  0  0  0  0  0  0  0  0
   -6.6975  -10.2945   -8.4678 O   0  0  0  0  0  0  0  0  0  0  0  0
   -8.0338   -8.4170   -8.0508 N   0  0  0  0  0  0  0  0  0  0  0  0
   -9.0957   -8.5138   -9.1052 C   0  0  0  0  0  0  0  0  0  0  0  0
   -8.4541   -8.1146  -10.4480 C   0  0  0  0  0  0  0  0  0  0  0  0
   -9.6603   -9.9562   -9.1870 C   0  0  0  0  0  0  0  0  0  0  0  0
  -10.3030   -7.5502   -8.8522 C   0  0  0  0  0  0  0  0  0  0  0  0
   -7.9845   -4.7091   -5.9962 H   0  0  0  0  0  0  0  0  0  0  0  0
   -9.4771   -2.5701   -5.9396 H   0  0  0  0  0  0  0  0  0  0  0  0
  -10.9540   -2.5310   -7.0623 H   0  0  0  0  0  0  0  0  0  0  0  0
  -11.4781   -4.8923   -8.4488 H   0  0  0  0  0  0  0  0  0  0  0  0
   -6.6328   -5.7514   -5.0605 H   0  0  0  0  0  0  0  0  0  0  0  0
   -4.5885   -6.5517   -3.9998 H   0  0  0  0  0  0  0  0  0  0  0  0
   -3.5030   -8.7200   -4.7271 H   0  0  0  0  0  0  0  0  0  0  0  0
   -4.5607  -10.0884   -6.5416 H   0  0  0  0  0  0  0  0  0  0  0  0
   -9.1604   -8.1669  -11.2794 H   0  0  0  0  0  0  0  0  0  0  0  0
   -7.6157   -8.7641  -10.6903 H   0  0  0  0  0  0  0  0  0  0  0  0
   -8.0690   -7.0948  -10.4016 H   0  0  0  0  0  0  0  0  0  0  0  0
  -10.5488  -10.0099   -9.8224 H   0  0  0  0  0  0  0  0  0  0  0  0
   -9.9470  -10.3040   -8.1938 H   0  0  0  0  0  0  0  0  0  0  0  0
   -8.9336  -10.6639   -9.5874 H   0  0  0  0  0  0  0  0  0  0  0  0
  -11.0593   -8.0494   -8.2430 H   0  0  0  0  0  0  0  0  0  0  0  0
  -10.8117   -7.2842   -9.7810 H   0  0  0  0  0  0  0  0  0  0  0  0
  1  2  2  0
  1 22  1  0
  1 23  1  0
  2  6  1  0
  2  3  1  0
  3  4  2  0
  3 24  1  0
  4 20  1  0
  4  5  1  0
  5  6  1  0
  5  7  2  0
  6 21  1  0
  7 16  1  0
  7  8  1  0
  8 13  2  0
  8  9  1  0
  9 10  2  0
  9 25  1  0
 10 11  1  0
 10 26  1  0
 11 12  2  0
 11 27  1  0
 12 13  1  0
 12 28  1  0
 13 14  1  0
 14 15  2  0
 14 16  1  0
 16 17  1  0
 17 18  1  0
 17 19  1  0
 17 20  1  0
 18 29  1  0
 18 30  1  0
 18 31  1  0
 19 32  1  0
 19 33  1  0
 19 34  1  0
 20 35  1  0
 20 36  1  0
M  END
>  <i_m_ct_stereo_status>  (407) 
1

>  <s_m_source_file>  (407) 
/var/tmp/pbs.5076255.sched01/tmpg_ssl3dq/162k0u29fl7.sdf

>  <i_m_source_file_index>  (407) 
32

>  <i_lp_mmshare_version>  (407) 
48012

>  <i_f3d_flags>  (407) 
0

>  <s_epik_input>  (407) 
W0NIMl09YyhbY0hdMSlbbkhdYyhjMTIpPUMzYzRjKFtjSF1bY0hdW2NIXVtjSF00KUMoPU8pTjNDKFtDSDNdKShbQ0gzXSlbQ0gyXTI=

>  <s_epik_cmdline>  (407) 
J2VwaWtfcHl0aG9uJywgJy1waHQnLCAnMi4wJywgJy1waCcsICc3LjAnLCAnLXRuJywgJzgnLCAnLW1hJywgJzIwMCcsICctaW1hZScsICc8aW5maWxlLm1hZT4nLCAnLW9tYWUnLCAnPG91dGZpbGUubWFlPic=

>  <r_lp_tautomer_probability>  (407) 
1

>  <r_epik_Ionization_Penalty>  (407) 
2.12817e-06

>  <r_epik_Ionization_Penalty_Charging>  (407) 
1.69237e-12

>  <r_epik_Ionization_Penalty_Neutral>  (407) 
2.12817e-06

>  <r_epik_State_Penalty>  (407) 
-0

>  <r_epik_Charging_Adjusted_Penalty>  (407) 
1.69237e-12

>  <i_epik_Tot_Q>  (407) 
0

>  <i_epik_Tot_abs_Q>  (407) 
0

>  <s_epik_Chemistry_Notes>  (407) 
This compound has an imine and may undergo hydrolysis.

>  <s_lp_Force_Field>  (407) 
OPLS3e

>  <r_lp_Energy>  (407) 
24.9413

>  <b_lp_Chiralities_Consistent>  (407) 
1

>  <s_lp_Variant>  (407) 
109:0-1

>  <s_i_glide_gridfile>  (407) 
pfpi4k_grid

>  <i_i_glide_lignum>  (407) 
32

>  <i_i_glide_rotatable_bonds>  (407) 
0

>  <r_i_docking_score>  (407) 
-5.83685

>  <r_i_glide_ligand_efficiency>  (407) 
-0.291842

>  <r_i_glide_ligand_efficiency_sa>  (407) 
-0.792182

>  <r_i_glide_ligand_efficiency_ln>  (407) 
-1.46077

>  <r_i_glide_gscore>  (407) 
-5.83685

>  <r_i_glide_lipo>  (407) 
-1.99206

>  <r_i_glide_hbond>  (407) 
0

>  <r_i_glide_metal>  (407) 
-0

>  <r_i_glide_rewards>  (407) 
-2.40514

>  <r_i_glide_evdw>  (407) 
-27.6295

>  <r_i_glide_ecoul>  (407) 
-0.387812

>  <r_i_glide_erotb>  (407) 
0

>  <r_i_glide_esite>  (407) 
0

>  <r_i_glide_emodel>  (407) 
-38.0596

>  <r_i_glide_energy>  (407) 
-28.0173

>  <r_i_glide_einternal>  (407) 
0

>  <r_i_glide_intrahb_reward>  (407) 
-0

>  <i_i_glide_confnum>  (407) 
1

>  <i_i_glide_posenum>  (407) 
19

>  <r_i_glide_eff_state_penalty>  (407) 
0

>  <ligand_id>  (407) 
109

>  <original_smiles>  (407) 
C=c1cc2c([nH]1)=C1c3ccccc3C(=O)N1C(C)(C)C2

>  <smiles>  (407) 
[H]C([H])=c1c([H])c2c(n1[H])=C1c3c([H])c([H])c([H])c([H])c3C(=O)N1C(C([H])([H])[H])(C([H])([H])[H])C2([H])[H]

$$$$
109:0:1
     RDKit          3D

 36 39  0  0  1  0  0  0  0  0999 V2000
    4.1006   -2.8333   -3.6938 C   0  0  0  0  0  0  0  0  0  0  0  0
    4.0797   -2.5936   -2.3784 C   0  0  0  0  0  0  0  0  0  0  0  0
    4.5455   -1.3937   -1.7147 C   0  0  0  0  0  0  0  0  0  0  0  0
    4.3021   -1.5480   -0.4027 C   0  0  0  0  0  0  0  0  0  0  0  0
    3.6853   -2.8234   -0.2168 C   0  0  0  0  0  0  0  0  0  0  0  0
    3.5955   -3.4623   -1.4289 N   0  0  0  0  0  0  0  0  0  0  0  0
    3.2539   -3.2084    0.9882 C   0  0  0  0  0  0  0  0  0  0  0  0
    2.6170   -4.4556    1.3979 C   0  0  0  0  0  0  0  0  0  0  0  0
    2.3212   -5.6333    0.6983 C   0  0  0  0  0  0  0  0  0  0  0  0
    1.6740   -6.6744    1.3994 C   0  0  0  0  0  0  0  0  0  0  0  0
    1.3403   -6.5210    2.7656 C   0  0  0  0  0  0  0  0  0  0  0  0
    1.6383   -5.3208    3.4526 C   0  0  0  0  0  0  0  0  0  0  0  0
    2.2818   -4.3052    2.7273 C   0  0  0  0  0  0  0  0  0  0  0  0
    2.6981   -2.9615    3.1858 C   0  0  0  0  0  0  0  0  0  0  0  0
    2.4738   -2.5138    4.3099 O   0  0  0  0  0  0  0  0  0  0  0  0
    3.2993   -2.3675    2.1211 N   0  0  0  0  0  0  0  0  0  0  0  0
    3.7715   -0.9429    2.0338 C   0  0  0  0  0  0  0  0  0  0  0  0
    2.5277   -0.0246    1.9739 C   0  0  0  0  0  0  0  0  0  0  0  0
    4.6285   -0.5834    3.2729 C   0  0  0  0  0  0  0  0  0  0  0  0
    4.6475   -0.6578    0.7668 C   0  0  0  0  0  0  0  0  0  0  0  0
    3.1019   -4.3249   -1.6355 H   0  0  0  0  0  0  0  0  0  0  0  0
    3.7211   -3.7726   -4.0761 H   0  0  0  0  0  0  0  0  0  0  0  0
    4.4780   -2.0985   -4.3858 H   0  0  0  0  0  0  0  0  0  0  0  0
    5.0241   -0.5493   -2.1837 H   0  0  0  0  0  0  0  0  0  0  0  0
    2.6025   -5.7487   -0.3333 H   0  0  0  0  0  0  0  0  0  0  0  0
    1.4490   -7.6009    0.8979 H   0  0  0  0  0  0  0  0  0  0  0  0
    0.8700   -7.3371    3.2951 H   0  0  0  0  0  0  0  0  0  0  0  0
    1.4037   -5.1858    4.5006 H   0  0  0  0  0  0  0  0  0  0  0  0
    2.7922    1.0328    1.9183 H   0  0  0  0  0  0  0  0  0  0  0  0
    1.8822   -0.1556    2.8432 H   0  0  0  0  0  0  0  0  0  0  0  0
    1.9274   -0.2551    1.0934 H   0  0  0  0  0  0  0  0  0  0  0  0
    5.1361    0.3756    3.1572 H   0  0  0  0  0  0  0  0  0  0  0  0
    5.3959   -1.3427    3.4294 H   0  0  0  0  0  0  0  0  0  0  0  0
    4.0353   -0.5251    4.1868 H   0  0  0  0  0  0  0  0  0  0  0  0
    5.6963   -0.8552    0.9902 H   0  0  0  0  0  0  0  0  0  0  0  0
    4.5943    0.3910    0.4765 H   0  0  0  0  0  0  0  0  0  0  0  0
  1  2  2  0
  1 22  1  0
  1 23  1  0
  2  6  1  0
  2  3  1  0
  3  4  2  0
  3 24  1  0
  4 20  1  0
  4  5  1  0
  5  6  1  0
  5  7  2  0
  6 21  1  0
  7 16  1  0
  7  8  1  0
  8 13  2  0
  8  9  1  0
  9 10  2  0
  9 25  1  0
 10 11  1  0
 10 26  1  0
 11 12  2  0
 11 27  1  0
 12 13  1  0
 12 28  1  0
 13 14  1  0
 14 15  2  0
 14 16  1  0
 16 17  1  0
 17 18  1  0
 17 19  1  0
 17 20  1  0
 18 29  1  0
 18 30  1  0
 18 31  1  0
 19 32  1  0
 19 33  1  0
 19 34  1  0
 20 35  1  0
 20 36  1  0
M  END
>  <i_m_ct_stereo_status>  (408) 
1

>  <s_m_source_file>  (408) 
/var/tmp/pbs.5076255.sched01/tmpg_ssl3dq/162k0u29fl7.sdf

>  <i_m_source_file_index>  (408) 
32

>  <i_lp_mmshare_version>  (408) 
48012

>  <i_f3d_flags>  (408) 
0

>  <s_epik_input>  (408) 
W0NIMl09YyhbY0hdMSlbbkhdYyhjMTIpPUMzYzRjKFtjSF1bY0hdW2NIXVtjSF00KUMoPU8pTjNDKFtDSDNdKShbQ0gzXSlbQ0gyXTI=

>  <s_epik_cmdline>  (408) 
J2VwaWtfcHl0aG9uJywgJy1waHQnLCAnMi4wJywgJy1waCcsICc3LjAnLCAnLXRuJywgJzgnLCAnLW1hJywgJzIwMCcsICctaW1hZScsICc8aW5maWxlLm1hZT4nLCAnLW9tYWUnLCAnPG91dGZpbGUubWFlPic=

>  <r_lp_tautomer_probability>  (408) 
1

>  <r_epik_Ionization_Penalty>  (408) 
2.12817e-06

>  <r_epik_Ionization_Penalty_Charging>  (408) 
1.69237e-12

>  <r_epik_Ionization_Penalty_Neutral>  (408) 
2.12817e-06

>  <r_epik_State_Penalty>  (408) 
-0

>  <r_epik_Charging_Adjusted_Penalty>  (408) 
1.69237e-12

>  <i_epik_Tot_Q>  (408) 
0

>  <i_epik_Tot_abs_Q>  (408) 
0

>  <s_epik_Chemistry_Notes>  (408) 
This compound has an imine and may undergo hydrolysis.

>  <s_lp_Force_Field>  (408) 
OPLS3e

>  <r_lp_Energy>  (408) 
24.9413

>  <b_lp_Chiralities_Consistent>  (408) 
1

>  <s_lp_Variant>  (408) 
109:0-1

>  <s_i_glide_gridfile>  (408) 
pfpi4k_grid

>  <i_i_glide_lignum>  (408) 
32

>  <i_i_glide_rotatable_bonds>  (408) 
0

>  <r_i_docking_score>  (408) 
-4.00759

>  <r_i_glide_ligand_efficiency>  (408) 
-0.20038

>  <r_i_glide_ligand_efficiency_sa>  (408) 
-0.543914

>  <r_i_glide_ligand_efficiency_ln>  (408) 
-1.00297

>  <r_i_glide_gscore>  (408) 
-4.00759

>  <r_i_glide_lipo>  (408) 
-0.392211

>  <r_i_glide_hbond>  (408) 
-0.316764

>  <r_i_glide_metal>  (408) 
-0

>  <r_i_glide_rewards>  (408) 
-1.6069

>  <r_i_glide_evdw>  (408) 
-25.1148

>  <r_i_glide_ecoul>  (408) 
-2.88353

>  <r_i_glide_erotb>  (408) 
0

>  <r_i_glide_esite>  (408) 
-0.00344908

>  <r_i_glide_emodel>  (408) 
-34.9035

>  <r_i_glide_energy>  (408) 
-27.9984

>  <r_i_glide_einternal>  (408) 
0

>  <r_i_glide_intrahb_reward>  (408) 
-0

>  <i_i_glide_confnum>  (408) 
2

>  <i_i_glide_posenum>  (408) 
32

>  <r_i_glide_eff_state_penalty>  (408) 
0

>  <ligand_id>  (408) 
109

>  <original_smiles>  (408) 
C=c1cc2c([nH]1)=C1c3ccccc3C(=O)N1C(C)(C)C2

>  <smiles>  (408) 
[H]C([H])=c1c([H])c2c(n1[H])=C1c3c([H])c([H])c([H])c([H])c3C(=O)N1C(C([H])([H])[H])(C([H])([H])[H])C2([H])[H]

$$$$
109:0:2
     RDKit          3D

 36 39  0  0  1  0  0  0  0  0999 V2000
    3.3408    6.0442    3.3074 C   0  0  0  0  0  0  0  0  0  0  0  0
    2.4924    5.1130    3.7658 C   0  0  0  0  0  0  0  0  0  0  0  0
    1.3073    5.3536    4.5632 C   0  0  0  0  0  0  0  0  0  0  0  0
    0.7113    4.1685    4.7579 C   0  0  0  0  0  0  0  0  0  0  0  0
    1.4870    3.1720    4.0925 C   0  0  0  0  0  0  0  0  0  0  0  0
    2.6057    3.7576    3.5432 N   0  0  0  0  0  0  0  0  0  0  0  0
    1.0730    1.9026    4.0375 C   0  0  0  0  0  0  0  0  0  0  0  0
    1.7076    0.7428    3.4294 C   0  0  0  0  0  0  0  0  0  0  0  0
    2.9438    0.5847    2.7801 C   0  0  0  0  0  0  0  0  0  0  0  0
    3.2732   -0.6996    2.3012 C   0  0  0  0  0  0  0  0  0  0  0  0
    2.3795   -1.7841    2.4744 C   0  0  0  0  0  0  0  0  0  0  0  0
    1.1384   -1.6045    3.1291 C   0  0  0  0  0  0  0  0  0  0  0  0
    0.8382   -0.3138    3.5935 C   0  0  0  0  0  0  0  0  0  0  0  0
   -0.3766    0.1557    4.2996 C   0  0  0  0  0  0  0  0  0  0  0  0
   -1.3572   -0.5478    4.5494 O   0  0  0  0  0  0  0  0  0  0  0  0
   -0.1665    1.4740    4.5656 N   0  0  0  0  0  0  0  0  0  0  0  0
   -1.1487    2.4403    5.1585 C   0  0  0  0  0  0  0  0  0  0  0  0
   -2.2157    2.7357    4.0827 C   0  0  0  0  0  0  0  0  0  0  0  0
   -1.8117    1.8332    6.4224 C   0  0  0  0  0  0  0  0  0  0  0  0
   -0.5027    3.8034    5.5834 C   0  0  0  0  0  0  0  0  0  0  0  0
    3.2126    3.3411    2.8508 H   0  0  0  0  0  0  0  0  0  0  0  0
    4.1879    5.7518    2.7040 H   0  0  0  0  0  0  0  0  0  0  0  0
    3.1915    7.0959    3.5050 H   0  0  0  0  0  0  0  0  0  0  0  0
    0.9890    6.3063    4.9587 H   0  0  0  0  0  0  0  0  0  0  0  0
    3.6234    1.4118    2.6630 H   0  0  0  0  0  0  0  0  0  0  0  0
    4.2133   -0.8524    1.7987 H   0  0  0  0  0  0  0  0  0  0  0  0
    2.6429   -2.7610    2.0987 H   0  0  0  0  0  0  0  0  0  0  0  0
    0.4415   -2.4181    3.2729 H   0  0  0  0  0  0  0  0  0  0  0  0
   -2.9845    3.4189    4.4413 H   0  0  0  0  0  0  0  0  0  0  0  0
   -2.7146    1.8237    3.7585 H   0  0  0  0  0  0  0  0  0  0  0  0
   -1.7583    3.1783    3.1961 H   0  0  0  0  0  0  0  0  0  0  0  0
   -2.3947    2.5721    6.9748 H   0  0  0  0  0  0  0  0  0  0  0  0
   -1.0460    1.4505    7.0992 H   0  0  0  0  0  0  0  0  0  0  0  0
   -2.4819    1.0055    6.1875 H   0  0  0  0  0  0  0  0  0  0  0  0
   -0.1541    3.7391    6.6148 H   0  0  0  0  0  0  0  0  0  0  0  0
   -1.2316    4.6145    5.5653 H   0  0  0  0  0  0  0  0  0  0  0  0
  1  2  2  0
  1 22  1  0
  1 23  1  0
  2  6  1  0
  2  3  1  0
  3  4  2  0
  3 24  1  0
  4 20  1  0
  4  5  1  0
  5  6  1  0
  5  7  2  0
  6 21  1  0
  7 16  1  0
  7  8  1  0
  8 13  2  0
  8  9  1  0
  9 10  2  0
  9 25  1  0
 10 11  1  0
 10 26  1  0
 11 12  2  0
 11 27  1  0
 12 13  1  0
 12 28  1  0
 13 14  1  0
 14 15  2  0
 14 16  1  0
 16 17  1  0
 17 18  1  0
 17 19  1  0
 17 20  1  0
 18 29  1  0
 18 30  1  0
 18 31  1  0
 19 32  1  0
 19 33  1  0
 19 34  1  0
 20 35  1  0
 20 36  1  0
M  END
>  <i_m_ct_stereo_status>  (409) 
1

>  <s_m_source_file>  (409) 
/var/tmp/pbs.5076255.sched01/tmpg_ssl3dq/162k0u29fl7.sdf

>  <i_m_source_file_index>  (409) 
32

>  <i_lp_mmshare_version>  (409) 
48012

>  <i_f3d_flags>  (409) 
0

>  <s_epik_input>  (409) 
W0NIMl09YyhbY0hdMSlbbkhdYyhjMTIpPUMzYzRjKFtjSF1bY0hdW2NIXVtjSF00KUMoPU8pTjNDKFtDSDNdKShbQ0gzXSlbQ0gyXTI=

>  <s_epik_cmdline>  (409) 
J2VwaWtfcHl0aG9uJywgJy1waHQnLCAnMi4wJywgJy1waCcsICc3LjAnLCAnLXRuJywgJzgnLCAnLW1hJywgJzIwMCcsICctaW1hZScsICc8aW5maWxlLm1hZT4nLCAnLW9tYWUnLCAnPG91dGZpbGUubWFlPic=

>  <r_lp_tautomer_probability>  (409) 
1

>  <r_epik_Ionization_Penalty>  (409) 
2.12817e-06

>  <r_epik_Ionization_Penalty_Charging>  (409) 
1.69237e-12

>  <r_epik_Ionization_Penalty_Neutral>  (409) 
2.12817e-06

>  <r_epik_State_Penalty>  (409) 
-0

>  <r_epik_Charging_Adjusted_Penalty>  (409) 
1.69237e-12

>  <i_epik_Tot_Q>  (409) 
0

>  <i_epik_Tot_abs_Q>  (409) 
0

>  <s_epik_Chemistry_Notes>  (409) 
This compound has an imine and may undergo hydrolysis.

>  <s_lp_Force_Field>  (409) 
OPLS3e

>  <r_lp_Energy>  (409) 
24.9413

>  <b_lp_Chiralities_Consistent>  (409) 
1

>  <s_lp_Variant>  (409) 
109:0-1

>  <s_i_glide_gridfile>  (409) 
pfpi4k_grid

>  <i_i_glide_lignum>  (409) 
32

>  <i_i_glide_rotatable_bonds>  (409) 
0

>  <r_i_docking_score>  (409) 
-3.18901

>  <r_i_glide_ligand_efficiency>  (409) 
-0.159451

>  <r_i_glide_ligand_efficiency_sa>  (409) 
-0.432816

>  <r_i_glide_ligand_efficiency_ln>  (409) 
-0.798105

>  <r_i_glide_gscore>  (409) 
-3.18901

>  <r_i_glide_lipo>  (409) 
-0.124294

>  <r_i_glide_hbond>  (409) 
0

>  <r_i_glide_metal>  (409) 
-0

>  <r_i_glide_rewards>  (409) 
-1.6069

>  <r_i_glide_evdw>  (409) 
-22.0074

>  <r_i_glide_ecoul>  (409) 
-2.00901

>  <r_i_glide_erotb>  (409) 
0

>  <r_i_glide_esite>  (409) 
-0.0561043

>  <r_i_glide_emodel>  (409) 
-29.4902

>  <r_i_glide_energy>  (409) 
-24.0164

>  <r_i_glide_einternal>  (409) 
0

>  <r_i_glide_intrahb_reward>  (409) 
-0

>  <i_i_glide_confnum>  (409) 
2

>  <i_i_glide_posenum>  (409) 
27

>  <r_i_glide_eff_state_penalty>  (409) 
0

>  <ligand_id>  (409) 
109

>  <original_smiles>  (409) 
C=c1cc2c([nH]1)=C1c3ccccc3C(=O)N1C(C)(C)C2

>  <smiles>  (409) 
[H]C([H])=c1c([H])c2c(n1[H])=C1c3c([H])c([H])c([H])c([H])c3C(=O)N1C(C([H])([H])[H])(C([H])([H])[H])C2([H])[H]

$$$$
110:0:0
     RDKit          3D

 30 36  0  0  1  0  0  0  0  0999 V2000
    6.2137   -2.3106    1.0027 C   0  0  0  0  0  0  0  0  0  0  0  0
    5.9603   -1.3195   -0.1273 C   0  0  1  0  0  0  0  0  0  0  0  0
    6.7863   -2.2564   -1.0977 C   0  0  1  0  0  0  0  0  0  0  0  0
    6.5962   -3.3397   -0.0536 C   0  0  2  0  0  0  0  0  0  0  0  0
    5.5510   -3.9294   -0.9828 C   0  0  2  0  0  0  0  0  0  0  0  0
    6.2254   -3.2602   -2.2180 C   0  0  1  0  0  0  0  0  0  0  0  0
    5.0107   -3.1161   -3.3137 C   0  0  1  0  0  0  0  0  0  0  0  0
    3.9163   -1.9055   -3.7214 C   0  0  0  0  0  0  0  0  0  0  0  0
    3.2355   -1.3055   -2.3344 C   0  0  2  0  0  0  0  0  0  0  0  0
    4.4730   -1.4659   -1.9657 C   0  0  1  0  0  0  0  0  0  0  0  0
    4.5092   -1.0285   -0.5626 C   0  0  1  0  0  0  0  0  0  0  0  0
    3.4379   -2.0527   -0.8148 C   0  0  2  0  0  0  0  0  0  0  0  0
    4.0747   -3.5019   -0.9248 C   0  0  1  0  0  0  0  0  0  0  0  0
    4.0843   -3.0201   -2.2647 C   0  0  2  0  0  0  0  0  0  0  0  0
    5.3234   -2.5880    1.5662 H   0  0  0  0  0  0  0  0  0  0  0  0
    7.0399   -2.0228    1.6528 H   0  0  0  0  0  0  0  0  0  0  0  0
    6.5136   -0.3989    0.0757 H   0  0  0  0  0  0  0  0  0  0  0  0
    7.8541   -2.0195   -1.1853 H   0  0  0  0  0  0  0  0  0  0  0  0
    7.4989   -3.9269    0.0923 H   0  0  0  0  0  0  0  0  0  0  0  0
    5.6699   -5.0130   -1.0232 H   0  0  0  0  0  0  0  0  0  0  0  0
    7.0805   -3.8120   -2.6026 H   0  0  0  0  0  0  0  0  0  0  0  0
    4.8621   -4.0439   -3.8667 H   0  0  0  0  0  0  0  0  0  0  0  0
    4.3842   -1.1326   -4.3527 H   0  0  0  0  0  0  0  0  0  0  0  0
    3.1398   -2.3062   -4.3899 H   0  0  0  0  0  0  0  0  0  0  0  0
    2.9227   -0.2637   -2.3237 H   0  0  0  0  0  0  0  0  0  0  0  0
    5.2511   -0.8424   -2.4745 H   0  0  0  0  0  0  0  0  0  0  0  0
    4.1853   -0.0003   -0.4011 H   0  0  0  0  0  0  0  0  0  0  0  0
    2.6138   -1.9228   -0.1165 H   0  0  0  0  0  0  0  0  0  0  0  0
    3.3769   -4.3306   -0.7635 H   0  0  0  0  0  0  0  0  0  0  0  0
    3.0896   -3.4715   -2.5761 H   0  0  0  0  0  0  0  0  0  0  0  0
  1  4  1  0
  1  2  1  0
  1 15  1  0
  1 16  1  0
  2 11  1  0
  2  3  1  0
  2 17  1  1
  3  6  1  0
  3  4  1  0
  3 18  1  6
  4  5  1  0
  4 19  1  1
  5 13  1  0
  5  6  1  0
  5 20  1  6
  6  7  1  0
  6 21  1  6
  7 14  1  0
  7  8  1  0
  7 22  1  6
  8  9  1  0
  8 23  1  0
  8 24  1  0
  9 12  1  0
  9 10  1  0
  9 25  1  6
 10 14  1  0
 10 11  1  0
 10 26  1  6
 11 12  1  0
 11 27  1  6
 12 13  1  0
 12 28  1  1
 13 14  1  0
 13 29  1  6
 14 30  1  6
M  END
>  <i_m_ct_stereo_status>  (410) 
1

>  <s_m_source_file>  (410) 
/var/tmp/pbs.5076255.sched01/tmpg_ssl3dq/162k0u29fl7.sdf

>  <i_m_source_file_index>  (410) 
33

>  <i_lp_mmshare_version>  (410) 
48012

>  <i_f3d_flags>  (410) 
0

>  <s_epik_input>  (410) 
W0NAQEhdMTJbQ0BIXTNbQ0BASF0oW0NIMl0xKVtDQEBIXTRbQ0BIXTNbQ0BIXTVbQ0BASF02W0NASF03W0NAQEhdKFtDSDJdNSlbQ0BIXShbQ0BASF0yNylbQ0BIXTQ2

>  <s_epik_cmdline>  (410) 
J2VwaWtfcHl0aG9uJywgJy1waHQnLCAnMi4wJywgJy1waCcsICc3LjAnLCAnLXRuJywgJzgnLCAnLW1hJywgJzIwMCcsICctaW1hZScsICc8aW5maWxlLm1hZT4nLCAnLW9tYWUnLCAnPG91dGZpbGUubWFlPic=

>  <r_lp_tautomer_probability>  (410) 
1

>  <r_epik_Ionization_Penalty>  (410) 
0

>  <r_epik_Ionization_Penalty_Charging>  (410) 
0

>  <r_epik_Ionization_Penalty_Neutral>  (410) 
0

>  <r_epik_State_Penalty>  (410) 
-0

>  <r_epik_Charging_Adjusted_Penalty>  (410) 
0

>  <i_epik_Tot_Q>  (410) 
0

>  <i_epik_Tot_abs_Q>  (410) 
0

>  <s_lp_Force_Field>  (410) 
OPLS3e

>  <r_lp_Energy>  (410) 
341.542

>  <b_lp_Chiralities_Consistent>  (410) 
1

>  <s_lp_Variant>  (410) 
110:0-1

>  <s_i_glide_gridfile>  (410) 
pfpi4k_grid

>  <i_i_glide_lignum>  (410) 
33

>  <i_i_glide_rotatable_bonds>  (410) 
0

>  <r_i_docking_score>  (410) 
-3.95615

>  <r_i_glide_ligand_efficiency>  (410) 
-0.282582

>  <r_i_glide_ligand_efficiency_sa>  (410) 
-0.681063

>  <r_i_glide_ligand_efficiency_ln>  (410) 
-1.08714

>  <r_i_glide_gscore>  (410) 
-3.95615

>  <r_i_glide_lipo>  (410) 
-0.828523

>  <r_i_glide_hbond>  (410) 
0

>  <r_i_glide_metal>  (410) 
-0

>  <r_i_glide_rewards>  (410) 
-2.15266

>  <r_i_glide_evdw>  (410) 
-19.4455

>  <r_i_glide_ecoul>  (410) 
-0.0179431

>  <r_i_glide_erotb>  (410) 
0

>  <r_i_glide_esite>  (410) 
0

>  <r_i_glide_emodel>  (410) 
-24.1484

>  <r_i_glide_energy>  (410) 
-19.4635

>  <r_i_glide_einternal>  (410) 
0

>  <r_i_glide_intrahb_reward>  (410) 
-0

>  <i_i_glide_confnum>  (410) 
1

>  <i_i_glide_posenum>  (410) 
2

>  <r_i_glide_eff_state_penalty>  (410) 
0

>  <ligand_id>  (410) 
110

>  <original_smiles>  (410) 
C1C2C3C1C1C3C3CC4C5C2C4C1C35

>  <smiles>  (410) 
[H]C1([H])C2([H])C3([H])C1([H])C1([H])C3([H])C3([H])C([H])([H])C4([H])C5([H])C2([H])C4([H])C1([H])C35[H]

$$$$
110:0:1
     RDKit          3D

 30 36  0  0  1  0  0  0  0  0999 V2000
    4.7745   -1.5467   -2.3544 C   0  0  0  0  0  0  0  0  0  0  0  0
    3.8642   -1.9742   -1.2022 C   0  0  1  0  0  0  0  0  0  0  0  0
    4.6293   -3.3630   -1.1510 C   0  0  1  0  0  0  0  0  0  0  0  0
    5.7227   -2.6686   -1.9568 C   0  0  2  0  0  0  0  0  0  0  0  0
    6.5184   -2.5943   -0.6714 C   0  0  2  0  0  0  0  0  0  0  0  0
    5.7484   -3.8128   -0.0856 C   0  0  1  0  0  0  0  0  0  0  0  0
    5.8216   -3.6457    1.5326 C   0  0  1  0  0  0  0  0  0  0  0  0
    4.8482   -2.9367    2.7190 C   0  0  0  0  0  0  0  0  0  0  0  0
    4.3814   -1.4183    2.2087 C   0  0  2  0  0  0  0  0  0  0  0  0
    4.3068   -2.1138    1.1115 C   0  0  1  0  0  0  0  0  0  0  0  0
    3.8534   -1.1399    0.1031 C   0  0  1  0  0  0  0  0  0  0  0  0
    5.0710   -0.6713    0.8458 C   0  0  2  0  0  0  0  0  0  0  0  0
    6.3821   -1.4109    0.3209 C   0  0  1  0  0  0  0  0  0  0  0  0
    5.9079   -2.2509    1.3670 C   0  0  2  0  0  0  0  0  0  0  0  0
    5.2065   -0.5525   -2.2297 H   0  0  0  0  0  0  0  0  0  0  0  0
    4.3344   -1.6823   -3.3424 H   0  0  0  0  0  0  0  0  0  0  0  0
    2.8469   -2.1352   -1.5779 H   0  0  0  0  0  0  0  0  0  0  0  0
    4.1663   -4.1676   -1.7175 H   0  0  0  0  0  0  0  0  0  0  0  0
    6.1252   -3.3160   -2.7397 H   0  0  0  0  0  0  0  0  0  0  0  0
    7.5608   -2.8744   -0.8541 H   0  0  0  0  0  0  0  0  0  0  0  0
    6.1969   -4.7446   -0.4351 H   0  0  0  0  0  0  0  0  0  0  0  0
    6.7601   -4.0411    1.9356 H   0  0  0  0  0  0  0  0  0  0  0  0
    4.0084   -3.5830    2.9863 H   0  0  0  0  0  0  0  0  0  0  0  0
    5.3943   -2.8739    3.6657 H   0  0  0  0  0  0  0  0  0  0  0  0
    3.4084   -1.0450    2.5264 H   0  0  0  0  0  0  0  0  0  0  0  0
    3.5538   -2.9353    1.0529 H   0  0  0  0  0  0  0  0  0  0  0  0
    2.9147   -0.6502    0.3553 H   0  0  0  0  0  0  0  0  0  0  0  0
    5.1080    0.4224    0.8898 H   0  0  0  0  0  0  0  0  0  0  0  0
    7.3205   -0.9135    0.5482 H   0  0  0  0  0  0  0  0  0  0  0  0
    6.5416   -1.7967    2.1890 H   0  0  0  0  0  0  0  0  0  0  0  0
  1  4  1  0
  1  2  1  0
  1 15  1  0
  1 16  1  0
  2 11  1  0
  2  3  1  0
  2 17  1  6
  3  6  1  0
  3  4  1  0
  3 18  1  6
  4  5  1  0
  4 19  1  6
  5 13  1  0
  5  6  1  0
  5 20  1  6
  6  7  1  0
  6 21  1  1
  7 14  1  0
  7  8  1  0
  7 22  1  1
  8  9  1  0
  8 23  1  0
  8 24  1  0
  9 12  1  0
  9 10  1  0
  9 25  1  1
 10 14  1  0
 10 11  1  0
 10 26  1  1
 11 12  1  0
 11 27  1  1
 12 13  1  0
 12 28  1  1
 13 14  1  0
 13 29  1  1
 14 30  1  1
M  END
>  <i_m_ct_stereo_status>  (411) 
1

>  <s_m_source_file>  (411) 
/var/tmp/pbs.5076255.sched01/tmpg_ssl3dq/162k0u29fl7.sdf

>  <i_m_source_file_index>  (411) 
33

>  <i_lp_mmshare_version>  (411) 
48012

>  <i_f3d_flags>  (411) 
0

>  <s_epik_input>  (411) 
W0NAQEhdMTJbQ0BIXTNbQ0BASF0oW0NIMl0xKVtDQEBIXTRbQ0BIXTNbQ0BIXTVbQ0BASF02W0NASF03W0NAQEhdKFtDSDJdNSlbQ0BIXShbQ0BASF0yNylbQ0BIXTQ2

>  <s_epik_cmdline>  (411) 
J2VwaWtfcHl0aG9uJywgJy1waHQnLCAnMi4wJywgJy1waCcsICc3LjAnLCAnLXRuJywgJzgnLCAnLW1hJywgJzIwMCcsICctaW1hZScsICc8aW5maWxlLm1hZT4nLCAnLW9tYWUnLCAnPG91dGZpbGUubWFlPic=

>  <r_lp_tautomer_probability>  (411) 
1

>  <r_epik_Ionization_Penalty>  (411) 
0

>  <r_epik_Ionization_Penalty_Charging>  (411) 
0

>  <r_epik_Ionization_Penalty_Neutral>  (411) 
0

>  <r_epik_State_Penalty>  (411) 
-0

>  <r_epik_Charging_Adjusted_Penalty>  (411) 
0

>  <i_epik_Tot_Q>  (411) 
0

>  <i_epik_Tot_abs_Q>  (411) 
0

>  <s_lp_Force_Field>  (411) 
OPLS3e

>  <r_lp_Energy>  (411) 
341.542

>  <b_lp_Chiralities_Consistent>  (411) 
1

>  <s_lp_Variant>  (411) 
110:0-1

>  <s_i_glide_gridfile>  (411) 
pfpi4k_grid

>  <i_i_glide_lignum>  (411) 
33

>  <i_i_glide_rotatable_bonds>  (411) 
0

>  <r_i_docking_score>  (411) 
-3.6426

>  <r_i_glide_ligand_efficiency>  (411) 
-0.260186

>  <r_i_glide_ligand_efficiency_sa>  (411) 
-0.627084

>  <r_i_glide_ligand_efficiency_ln>  (411) 
-1.00097

>  <r_i_glide_gscore>  (411) 
-3.6426

>  <r_i_glide_lipo>  (411) 
-0.513218

>  <r_i_glide_hbond>  (411) 
0

>  <r_i_glide_metal>  (411) 
-0

>  <r_i_glide_rewards>  (411) 
-2.15266

>  <r_i_glide_evdw>  (411) 
-18.6543

>  <r_i_glide_ecoul>  (411) 
-0.293379

>  <r_i_glide_erotb>  (411) 
0

>  <r_i_glide_esite>  (411) 
0

>  <r_i_glide_emodel>  (411) 
-23.3242

>  <r_i_glide_energy>  (411) 
-18.9477

>  <r_i_glide_einternal>  (411) 
0

>  <r_i_glide_intrahb_reward>  (411) 
-0

>  <i_i_glide_confnum>  (411) 
1

>  <i_i_glide_posenum>  (411) 
3

>  <r_i_glide_eff_state_penalty>  (411) 
0

>  <ligand_id>  (411) 
110

>  <original_smiles>  (411) 
C1C2C3C1C1C3C3CC4C5C2C4C1C35

>  <smiles>  (411) 
[H]C1([H])C2([H])C3([H])C1([H])C1([H])C3([H])C3([H])C([H])([H])C4([H])C5([H])C2([H])C4([H])C1([H])C35[H]

$$$$
110:0:2
     RDKit          3D

 30 36  0  0  1  0  0  0  0  0999 V2000
    2.8601   -1.7147   -3.1748 C   0  0  0  0  0  0  0  0  0  0  0  0
    3.0627   -3.0974   -2.5651 C   0  0  1  0  0  0  0  0  0  0  0  0
    4.5781   -3.0451   -3.0305 C   0  0  1  0  0  0  0  0  0  0  0  0
    4.3654   -1.5521   -3.1890 C   0  0  2  0  0  0  0  0  0  0  0  0
    5.1310   -1.3903   -1.8861 C   0  0  2  0  0  0  0  0  0  0  0  0
    5.8676   -2.7408   -2.1246 C   0  0  1  0  0  0  0  0  0  0  0  0
    6.2981   -3.2601   -0.6340 C   0  0  1  0  0  0  0  0  0  0  0  0
    5.5974   -4.2711    0.5232 C   0  0  0  0  0  0  0  0  0  0  0  0
    4.0044   -3.8545    0.7247 C   0  0  2  0  0  0  0  0  0  0  0  0
    4.1543   -3.7335   -0.5624 C   0  0  1  0  0  0  0  0  0  0  0  0
    2.8316   -3.3159   -1.0457 C   0  0  1  0  0  0  0  0  0  0  0  0
    3.3460   -2.4342    0.0615 C   0  0  2  0  0  0  0  0  0  0  0  0
    4.4487   -1.4366   -0.5067 C   0  0  1  0  0  0  0  0  0  0  0  0
    5.1945   -2.5737   -0.0904 C   0  0  2  0  0  0  0  0  0  0  0  0
    2.3728   -1.0002   -2.5107 H   0  0  0  0  0  0  0  0  0  0  0  0
    2.4124   -1.7278   -4.1721 H   0  0  0  0  0  0  0  0  0  0  0  0
    2.5277   -3.8382   -3.1631 H   0  0  0  0  0  0  0  0  0  0  0  0
    4.7768   -3.5238   -3.9974 H   0  0  0  0  0  0  0  0  0  0  0  0
    4.8278   -1.1526   -4.0894 H   0  0  0  0  0  0  0  0  0  0  0  0
    5.8128   -0.5528   -1.9839 H   0  0  0  0  0  0  0  0  0  0  0  0
    6.7310   -2.6249   -2.7761 H   0  0  0  0  0  0  0  0  0  0  0  0
    7.2325   -2.8079   -0.3076 H   0  0  0  0  0  0  0  0  0  0  0  0
    5.7469   -5.3316    0.2736 H   0  0  0  0  0  0  0  0  0  0  0  0
    6.1461   -4.1859    1.4718 H   0  0  0  0  0  0  0  0  0  0  0  0
    3.2911   -4.6402    0.9801 H   0  0  0  0  0  0  0  0  0  0  0  0
    4.3770   -4.6579   -1.1548 H   0  0  0  0  0  0  0  0  0  0  0  0
    2.0236   -4.0010   -0.7782 H   0  0  0  0  0  0  0  0  0  0  0  0
    2.5300   -1.9981    0.6307 H   0  0  0  0  0  0  0  0  0  0  0  0
    4.6253   -0.5440    0.1065 H   0  0  0  0  0  0  0  0  0  0  0  0
    5.4408   -2.2088    0.9521 H   0  0  0  0  0  0  0  0  0  0  0  0
  1  4  1  0
  1  2  1  0
  1 15  1  0
  1 16  1  0
  2 11  1  0
  2  3  1  0
  2 17  1  6
  3  6  1  0
  3  4  1  0
  3 18  1  6
  4  5  1  0
  4 19  1  6
  5 13  1  0
  5  6  1  0
  5 20  1  6
  6  7  1  0
  6 21  1  6
  7 14  1  0
  7  8  1  0
  7 22  1  1
  8  9  1  0
  8 23  1  0
  8 24  1  0
  9 12  1  0
  9 10  1  0
  9 25  1  6
 10 14  1  0
 10 11  1  0
 10 26  1  6
 11 12  1  0
 11 27  1  6
 12 13  1  0
 12 28  1  1
 13 14  1  0
 13 29  1  1
 14 30  1  1
M  END
>  <i_m_ct_stereo_status>  (412) 
1

>  <s_m_source_file>  (412) 
/var/tmp/pbs.5076255.sched01/tmpg_ssl3dq/162k0u29fl7.sdf

>  <i_m_source_file_index>  (412) 
33

>  <i_lp_mmshare_version>  (412) 
48012

>  <i_f3d_flags>  (412) 
0

>  <s_epik_input>  (412) 
W0NAQEhdMTJbQ0BIXTNbQ0BASF0oW0NIMl0xKVtDQEBIXTRbQ0BIXTNbQ0BIXTVbQ0BASF02W0NASF03W0NAQEhdKFtDSDJdNSlbQ0BIXShbQ0BASF0yNylbQ0BIXTQ2

>  <s_epik_cmdline>  (412) 
J2VwaWtfcHl0aG9uJywgJy1waHQnLCAnMi4wJywgJy1waCcsICc3LjAnLCAnLXRuJywgJzgnLCAnLW1hJywgJzIwMCcsICctaW1hZScsICc8aW5maWxlLm1hZT4nLCAnLW9tYWUnLCAnPG91dGZpbGUubWFlPic=

>  <r_lp_tautomer_probability>  (412) 
1

>  <r_epik_Ionization_Penalty>  (412) 
0

>  <r_epik_Ionization_Penalty_Charging>  (412) 
0

>  <r_epik_Ionization_Penalty_Neutral>  (412) 
0

>  <r_epik_State_Penalty>  (412) 
-0

>  <r_epik_Charging_Adjusted_Penalty>  (412) 
0

>  <i_epik_Tot_Q>  (412) 
0

>  <i_epik_Tot_abs_Q>  (412) 
0

>  <s_lp_Force_Field>  (412) 
OPLS3e

>  <r_lp_Energy>  (412) 
341.542

>  <b_lp_Chiralities_Consistent>  (412) 
1

>  <s_lp_Variant>  (412) 
110:0-1

>  <s_i_glide_gridfile>  (412) 
pfpi4k_grid

>  <i_i_glide_lignum>  (412) 
33

>  <i_i_glide_rotatable_bonds>  (412) 
0

>  <r_i_docking_score>  (412) 
-3.60717

>  <r_i_glide_ligand_efficiency>  (412) 
-0.257655

>  <r_i_glide_ligand_efficiency_sa>  (412) 
-0.620985

>  <r_i_glide_ligand_efficiency_ln>  (412) 
-0.991236

>  <r_i_glide_gscore>  (412) 
-3.60717

>  <r_i_glide_lipo>  (412) 
-0.466829

>  <r_i_glide_hbond>  (412) 
0

>  <r_i_glide_metal>  (412) 
-0

>  <r_i_glide_rewards>  (412) 
-2.15266

>  <r_i_glide_evdw>  (412) 
-20.4236

>  <r_i_glide_ecoul>  (412) 
0.223326

>  <r_i_glide_erotb>  (412) 
0

>  <r_i_glide_esite>  (412) 
0

>  <r_i_glide_emodel>  (412) 
-24.4899

>  <r_i_glide_energy>  (412) 
-20.2002

>  <r_i_glide_einternal>  (412) 
0

>  <r_i_glide_intrahb_reward>  (412) 
-0

>  <i_i_glide_confnum>  (412) 
2

>  <i_i_glide_posenum>  (412) 
10

>  <r_i_glide_eff_state_penalty>  (412) 
0

>  <ligand_id>  (412) 
110

>  <original_smiles>  (412) 
C1C2C3C1C1C3C3CC4C5C2C4C1C35

>  <smiles>  (412) 
[H]C1([H])C2([H])C3([H])C1([H])C1([H])C3([H])C3([H])C([H])([H])C4([H])C5([H])C2([H])C4([H])C1([H])C35[H]

$$$$
111:0:0
     RDKit          3D

 57 63  0  0  1  0  0  0  0  0999 V2000
    2.1322   -5.8425    4.2170 C   0  0  0  0  0  0  0  0  0  0  0  0
    2.4667   -4.6760    3.4738 O   0  0  0  0  0  0  0  0  0  0  0  0
    3.1097   -4.9015    2.2192 C   0  0  2  0  0  0  0  0  0  0  0  0
    4.6056   -5.6580    2.2766 C   0  0  1  0  0  0  0  0  0  0  0  0
    4.5800   -7.0650    1.6459 C   0  0  0  0  0  0  0  0  0  0  0  0
    5.9028   -4.7748    1.7826 C   0  0  1  0  0  0  0  0  0  0  0  0
    6.6791   -5.0025    0.4312 C   0  0  2  0  0  0  0  0  0  0  0  0
    7.8815   -5.9442    0.6169 C   0  0  0  0  0  0  0  0  0  0  0  0
    8.9609   -5.0699    0.8717 O   0  0  0  0  0  0  0  0  0  0  0  0
    8.7484   -3.8231    0.4630 C   0  0  0  0  0  0  0  0  0  0  0  0
    9.5558   -2.9028    0.5346 O   0  0  0  0  0  0  0  0  0  0  0  0
    7.3621   -3.7121   -0.1534 C   0  0  2  0  0  0  0  0  0  0  0  0
    6.7217   -2.2719    0.0290 C   0  0  1  0  0  0  0  0  0  0  0  0
    5.9148   -1.7509   -1.0445 O   0  0  0  0  0  0  0  0  0  0  0  0
    4.4759   -1.8179   -0.9348 C   0  0  1  0  0  0  0  0  0  0  0  0
    3.9375   -1.1578   -2.2178 C   0  0  0  0  0  0  0  0  0  0  0  0
    4.1899   -3.2736   -0.8925 C   0  0  0  0  0  0  0  0  0  0  0  0
    4.1857   -3.7743    0.5636 C   0  0  2  0  0  0  0  0  0  0  0  0
    2.8997   -3.6440    1.2004 C   0  0  2  0  0  0  0  0  0  0  0  0
    2.8061   -2.0180    1.2542 C   0  0  1  0  0  0  0  0  0  0  0  0
    2.9963   -1.2679    2.5497 C   0  0  0  0  0  0  0  0  0  0  0  0
    4.1715   -0.6198    2.5830 C   0  0  0  0  0  0  0  0  0  0  0  0
    5.0066   -0.8615    1.3367 C   0  0  2  0  0  0  0  0  0  0  0  0
    3.8739   -1.1945    0.3607 C   0  0  1  0  0  0  0  0  0  0  0  0
    6.0183   -2.0843    1.3642 C   0  0  1  0  0  0  0  0  0  0  0  0
    5.2885   -3.4009    1.7315 C   0  0  2  0  0  0  0  0  0  0  0  0
    5.0917   -3.2049    3.3280 C   0  0  0  0  0  0  0  0  0  0  0  0
    1.6213   -5.5463    5.1330 H   0  0  0  0  0  0  0  0  0  0  0  0
    3.0107   -6.4168    4.5088 H   0  0  0  0  0  0  0  0  0  0  0  0
    1.4584   -6.4953    3.6602 H   0  0  0  0  0  0  0  0  0  0  0  0
    2.4729   -5.6607    1.7618 H   0  0  0  0  0  0  0  0  0  0  0  0
    4.7904   -5.8814    3.3269 H   0  0  0  0  0  0  0  0  0  0  0  0
    4.3836   -7.0403    0.5728 H   0  0  0  0  0  0  0  0  0  0  0  0
    3.8036   -7.6779    2.1070 H   0  0  0  0  0  0  0  0  0  0  0  0
    5.5290   -7.5803    1.8009 H   0  0  0  0  0  0  0  0  0  0  0  0
    6.6854   -4.8322    2.5423 H   0  0  0  0  0  0  0  0  0  0  0  0
    6.0401   -5.4573   -0.3199 H   0  0  0  0  0  0  0  0  0  0  0  0
    7.7479   -6.6640    1.4248 H   0  0  0  0  0  0  0  0  0  0  0  0
    8.0964   -6.5011   -0.2964 H   0  0  0  0  0  0  0  0  0  0  0  0
    7.5429   -3.8534   -1.2169 H   0  0  0  0  0  0  0  0  0  0  0  0
    7.5384   -1.5484    0.0219 H   0  0  0  0  0  0  0  0  0  0  0  0
    2.8483   -1.1669   -2.2449 H   0  0  0  0  0  0  0  0  0  0  0  0
    4.2997   -1.6809   -3.1031 H   0  0  0  0  0  0  0  0  0  0  0  0
    4.2647   -0.1196   -2.2937 H   0  0  0  0  0  0  0  0  0  0  0  0
    3.2126   -3.4547   -1.3372 H   0  0  0  0  0  0  0  0  0  0  0  0
    4.8882   -3.8207   -1.5277 H   0  0  0  0  0  0  0  0  0  0  0  0
    4.1711   -4.7988    0.1943 H   0  0  0  0  0  0  0  0  0  0  0  0
    2.1143   -3.9568    0.5130 H   0  0  0  0  0  0  0  0  0  0  0  0
    1.8147   -1.7556    0.9053 H   0  0  0  0  0  0  0  0  0  0  0  0
    2.2575   -1.2580    3.3348 H   0  0  0  0  0  0  0  0  0  0  0  0
    4.5300   -0.0230    3.4102 H   0  0  0  0  0  0  0  0  0  0  0  0
    5.5151    0.0589    1.0425 H   0  0  0  0  0  0  0  0  0  0  0  0
    3.3992   -0.2553    0.0892 H   0  0  0  0  0  0  0  0  0  0  0  0
    6.8062   -1.8688    2.0774 H   0  0  0  0  0  0  0  0  0  0  0  0
    4.0836   -3.0800    3.6858 H   0  0  0  0  0  0  0  0  0  0  0  0
    5.6330   -2.3519    3.7327 H   0  0  0  0  0  0  0  0  0  0  0  0
    5.4792   -3.9870    3.9785 H   0  0  0  0  0  0  0  0  0  0  0  0
  1  2  1  0
  1 28  1  0
  1 29  1  0
  1 30  1  0
  2  3  1  0
  3 19  1  0
  3  4  1  0
  3 31  1  6
  4  5  1  0
  4  6  1  0
  4 32  1  1
  5 33  1  0
  5 34  1  0
  5 35  1  0
  6 26  1  0
  6  7  1  0
  6 36  1  1
  7 12  1  0
  7  8  1  0
  7 37  1  6
  8  9  1  0
  8 38  1  0
  8 39  1  0
  9 10  1  0
 10 11  2  0
 10 12  1  0
 12 13  1  0
 12 40  1  6
 13 25  1  0
 13 14  1  0
 13 41  1  1
 14 15  1  0
 15 24  1  0
 15 16  1  6
 15 17  1  0
 16 42  1  0
 16 43  1  0
 16 44  1  0
 17 18  1  0
 17 45  1  0
 17 46  1  0
 18 26  1  0
 18 19  1  0
 18 47  1  6
 19 20  1  0
 19 48  1  6
 20 24  1  0
 20 21  1  0
 20 49  1  6
 21 22  2  0
 21 50  1  0
 22 23  1  0
 22 51  1  0
 23 24  1  0
 23 25  1  0
 23 52  1  6
 24 53  1  6
 25 26  1  0
 25 54  1  1
 26 27  1  1
 27 55  1  0
 27 56  1  0
 27 57  1  0
M  END
>  <i_m_ct_stereo_status>  (413) 
1

>  <s_m_source_file>  (413) 
/var/tmp/pbs.5076255.sched01/tmpg_ssl3dq/162k0u29fl7.sdf

>  <i_m_source_file_index>  (413) 
34

>  <i_lp_mmshare_version>  (413) 
48012

>  <i_f3d_flags>  (413) 
0

>  <s_epik_input>  (413) 
W0NIXTE9W0NIXVtDQEhdMltDQEBIXTNbQ0BIXShPNClbQ0BASF0oQyg9TylPW0NIMl01KVtDQEBIXTVbQ0BIXShbQ0BIXShbQ0gzXSlbQ0BIXTZPW0NIM10pW0NAXTMoW0NIM10pW0NIXShbQ0gyXTcpW0NIXTZbQ0BASF0xW0NAQEhdMltDQEBdNDdbQ0gzXQ==

>  <s_epik_cmdline>  (413) 
J2VwaWtfcHl0aG9uJywgJy1waHQnLCAnMi4wJywgJy1waCcsICc3LjAnLCAnLXRuJywgJzgnLCAnLW1hJywgJzIwMCcsICctaW1hZScsICc8aW5maWxlLm1hZT4nLCAnLW9tYWUnLCAnPG91dGZpbGUubWFlPic=

>  <r_lp_tautomer_probability>  (413) 
1

>  <r_epik_Ionization_Penalty>  (413) 
5.09821e-11

>  <r_epik_Ionization_Penalty_Charging>  (413) 
0

>  <r_epik_Ionization_Penalty_Neutral>  (413) 
5.09821e-11

>  <r_epik_State_Penalty>  (413) 
-0

>  <r_epik_Charging_Adjusted_Penalty>  (413) 
0

>  <i_epik_Tot_Q>  (413) 
0

>  <i_epik_Tot_abs_Q>  (413) 
0

>  <s_epik_Chemistry_Notes>  (413) 
This compound has an ester and may undergo hydrolysis at high or low pH.

>  <s_lp_Force_Field>  (413) 
OPLS3e

>  <r_lp_Energy>  (413) 
192.57

>  <b_lp_Chiralities_Consistent>  (413) 
1

>  <s_lp_Variant>  (413) 
111:0-1

>  <s_i_glide_gridfile>  (413) 
pfpi4k_grid

>  <i_i_glide_lignum>  (413) 
34

>  <i_i_glide_rotatable_bonds>  (413) 
1

>  <r_i_docking_score>  (413) 
-3.29905

>  <r_i_glide_ligand_efficiency>  (413) 
-0.122187

>  <r_i_glide_ligand_efficiency_sa>  (413) 
-0.366562

>  <r_i_glide_ligand_efficiency_ln>  (413) 
-0.767966

>  <r_i_glide_gscore>  (413) 
-3.29905

>  <r_i_glide_lipo>  (413) 
-0.825144

>  <r_i_glide_hbond>  (413) 
-0.129117

>  <r_i_glide_metal>  (413) 
-0

>  <r_i_glide_rewards>  (413) 
-0.988347

>  <r_i_glide_evdw>  (413) 
-22.5137

>  <r_i_glide_ecoul>  (413) 
-1.53842

>  <r_i_glide_erotb>  (413) 
0

>  <r_i_glide_esite>  (413) 
0

>  <r_i_glide_emodel>  (413) 
-29.2418

>  <r_i_glide_energy>  (413) 
-24.0521

>  <r_i_glide_einternal>  (413) 
0.183257

>  <r_i_glide_intrahb_reward>  (413) 
-0

>  <i_i_glide_confnum>  (413) 
2

>  <i_i_glide_posenum>  (413) 
6

>  <r_i_glide_eff_state_penalty>  (413) 
0

>  <ligand_id>  (413) 
111

>  <original_smiles>  (413) 
COC1C(C)C2C3COC(=O)C3C3OC4(C)CC5C1C1C=CC(C14)C3C52C

>  <smiles>  (413) 
[H]C1=C([H])C2([H])C3([H])C1([H])C1([H])C([H])(OC([H])([H])[H])C([H])(C([H])([H])[H])C4([H])C5([H])C([H])([H])OC(=O)C5([H])C5([H])OC3(C([H])([H])[H])C([H])([H])C1([H])C4(C([H])([H])[H])C52[H]

$$$$
111:0:1
     RDKit          3D

 57 63  0  0  1  0  0  0  0  0999 V2000
    8.2158   -3.3901   -1.0518 C   0  0  0  0  0  0  0  0  0  0  0  0
    7.2902   -4.1336   -0.2699 O   0  0  0  0  0  0  0  0  0  0  0  0
    5.9130   -3.8034   -0.4461 C   0  0  2  0  0  0  0  0  0  0  0  0
    5.4885   -2.2488    0.0243 C   0  0  1  0  0  0  0  0  0  0  0  0
    5.0566   -1.3669   -1.1624 C   0  0  0  0  0  0  0  0  0  0  0  0
    4.4740   -2.1140    1.3132 C   0  0  1  0  0  0  0  0  0  0  0  0
    2.9615   -1.6823    1.2256 C   0  0  2  0  0  0  0  0  0  0  0  0
    2.7873   -0.1670    1.4169 C   0  0  0  0  0  0  0  0  0  0  0  0
    2.5523   -0.0173    2.8034 O   0  0  0  0  0  0  0  0  0  0  0  0
    2.1234   -1.1306    3.3971 C   0  0  0  0  0  0  0  0  0  0  0  0
    1.8187   -1.2441    4.5816 O   0  0  0  0  0  0  0  0  0  0  0  0
    2.0479   -2.2584    2.3690 C   0  0  2  0  0  0  0  0  0  0  0  0
    2.3091   -3.6960    2.9944 C   0  0  1  0  0  0  0  0  0  0  0  0
    1.5683   -4.8176    2.4772 O   0  0  0  0  0  0  0  0  0  0  0  0
    2.1934   -5.7070    1.5274 C   0  0  1  0  0  0  0  0  0  0  0  0
    1.1152   -6.7657    1.2135 C   0  0  0  0  0  0  0  0  0  0  0  0
    2.4981   -4.8486    0.3542 C   0  0  0  0  0  0  0  0  0  0  0  0
    3.8874   -4.2208    0.4825 C   0  0  2  0  0  0  0  0  0  0  0  0
    4.9304   -5.0538   -0.0585 C   0  0  2  0  0  0  0  0  0  0  0  0
    4.8447   -6.2835    1.0140 C   0  0  1  0  0  0  0  0  0  0  0  0
    5.9021   -6.4545    2.0772 C   0  0  0  0  0  0  0  0  0  0  0  0
    5.4436   -6.1246    3.2957 C   0  0  0  0  0  0  0  0  0  0  0  0
    4.0099   -5.6180    3.2671 C   0  0  2  0  0  0  0  0  0  0  0  0
    3.5477   -6.3263    1.9873 C   0  0  1  0  0  0  0  0  0  0  0  0
    3.7834   -4.0515    3.0988 C   0  0  1  0  0  0  0  0  0  0  0  0
    4.5123   -3.5268    1.8342 C   0  0  2  0  0  0  0  0  0  0  0  0
    6.0340   -3.5100    2.3586 C   0  0  0  0  0  0  0  0  0  0  0  0
    9.2156   -3.7901   -0.8880 H   0  0  0  0  0  0  0  0  0  0  0  0
    8.2381   -2.3386   -0.7712 H   0  0  0  0  0  0  0  0  0  0  0  0
    8.0019   -3.4629   -2.1183 H   0  0  0  0  0  0  0  0  0  0  0  0
    5.8035   -3.7733   -1.5326 H   0  0  0  0  0  0  0  0  0  0  0  0
    6.4161   -1.7714    0.3379 H   0  0  0  0  0  0  0  0  0  0  0  0
    4.1288   -1.7138   -1.6192 H   0  0  0  0  0  0  0  0  0  0  0  0
    5.8202   -1.3646   -1.9400 H   0  0  0  0  0  0  0  0  0  0  0  0
    4.9072   -0.3333   -0.8471 H   0  0  0  0  0  0  0  0  0  0  0  0
    4.9005   -1.4099    2.0330 H   0  0  0  0  0  0  0  0  0  0  0  0
    2.5428   -1.9235    0.2549 H   0  0  0  0  0  0  0  0  0  0  0  0
    3.6536    0.4122    1.0926 H   0  0  0  0  0  0  0  0  0  0  0  0
    1.9148    0.1952    0.8750 H   0  0  0  0  0  0  0  0  0  0  0  0
    1.0132   -2.2291    2.0372 H   0  0  0  0  0  0  0  0  0  0  0  0
    1.9278   -3.6752    4.0158 H   0  0  0  0  0  0  0  0  0  0  0  0
    1.4502   -7.4991    0.4868 H   0  0  0  0  0  0  0  0  0  0  0  0
    0.2163   -6.3085    0.8035 H   0  0  0  0  0  0  0  0  0  0  0  0
    0.8291   -7.3115    2.1145 H   0  0  0  0  0  0  0  0  0  0  0  0
    2.4428   -5.4533   -0.5466 H   0  0  0  0  0  0  0  0  0  0  0  0
    1.7629   -4.0710    0.2084 H   0  0  0  0  0  0  0  0  0  0  0  0
    3.6466   -3.5561   -0.3466 H   0  0  0  0  0  0  0  0  0  0  0  0
    4.6163   -5.4804   -1.0135 H   0  0  0  0  0  0  0  0  0  0  0  0
    4.8518   -7.2038    0.4331 H   0  0  0  0  0  0  0  0  0  0  0  0
    6.8991   -6.8049    1.8607 H   0  0  0  0  0  0  0  0  0  0  0  0
    6.0228   -6.1564    4.2080 H   0  0  0  0  0  0  0  0  0  0  0  0
    3.4663   -5.9958    4.1360 H   0  0  0  0  0  0  0  0  0  0  0  0
    3.3713   -7.3699    2.2535 H   0  0  0  0  0  0  0  0  0  0  0  0
    4.1333   -3.5322    3.9939 H   0  0  0  0  0  0  0  0  0  0  0  0
    6.7194   -4.2113    1.9155 H   0  0  0  0  0  0  0  0  0  0  0  0
    6.1098   -3.6977    3.4249 H   0  0  0  0  0  0  0  0  0  0  0  0
    6.5775   -2.5684    2.2868 H   0  0  0  0  0  0  0  0  0  0  0  0
  1  2  1  0
  1 28  1  0
  1 29  1  0
  1 30  1  0
  2  3  1  0
  3 19  1  0
  3  4  1  0
  3 31  1  6
  4  5  1  0
  4  6  1  0
  4 32  1  1
  5 33  1  0
  5 34  1  0
  5 35  1  0
  6 26  1  0
  6  7  1  0
  6 36  1  1
  7 12  1  0
  7  8  1  0
  7 37  1  6
  8  9  1  0
  8 38  1  0
  8 39  1  0
  9 10  1  0
 10 11  2  0
 10 12  1  0
 12 13  1  0
 12 40  1  6
 13 25  1  0
 13 14  1  0
 13 41  1  1
 14 15  1  0
 15 24  1  0
 15 16  1  6
 15 17  1  0
 16 42  1  0
 16 43  1  0
 16 44  1  0
 17 18  1  0
 17 45  1  0
 17 46  1  0
 18 26  1  0
 18 19  1  0
 18 47  1  6
 19 20  1  0
 19 48  1  6
 20 24  1  0
 20 21  1  0
 20 49  1  6
 21 22  2  0
 21 50  1  0
 22 23  1  0
 22 51  1  0
 23 24  1  0
 23 25  1  0
 23 52  1  1
 24 53  1  1
 25 26  1  0
 25 54  1  1
 26 27  1  1
 27 55  1  0
 27 56  1  0
 27 57  1  0
M  END
>  <i_m_ct_stereo_status>  (414) 
1

>  <s_m_source_file>  (414) 
/var/tmp/pbs.5076255.sched01/tmpg_ssl3dq/162k0u29fl7.sdf

>  <i_m_source_file_index>  (414) 
34

>  <i_lp_mmshare_version>  (414) 
48012

>  <i_f3d_flags>  (414) 
0

>  <s_epik_input>  (414) 
W0NIXTE9W0NIXVtDQEhdMltDQEBIXTNbQ0BIXShPNClbQ0BASF0oQyg9TylPW0NIMl01KVtDQEBIXTVbQ0BIXShbQ0BIXShbQ0gzXSlbQ0BIXTZPW0NIM10pW0NAXTMoW0NIM10pW0NIXShbQ0gyXTcpW0NIXTZbQ0BASF0xW0NAQEhdMltDQEBdNDdbQ0gzXQ==

>  <s_epik_cmdline>  (414) 
J2VwaWtfcHl0aG9uJywgJy1waHQnLCAnMi4wJywgJy1waCcsICc3LjAnLCAnLXRuJywgJzgnLCAnLW1hJywgJzIwMCcsICctaW1hZScsICc8aW5maWxlLm1hZT4nLCAnLW9tYWUnLCAnPG91dGZpbGUubWFlPic=

>  <r_lp_tautomer_probability>  (414) 
1

>  <r_epik_Ionization_Penalty>  (414) 
5.09821e-11

>  <r_epik_Ionization_Penalty_Charging>  (414) 
0

>  <r_epik_Ionization_Penalty_Neutral>  (414) 
5.09821e-11

>  <r_epik_State_Penalty>  (414) 
-0

>  <r_epik_Charging_Adjusted_Penalty>  (414) 
0

>  <i_epik_Tot_Q>  (414) 
0

>  <i_epik_Tot_abs_Q>  (414) 
0

>  <s_epik_Chemistry_Notes>  (414) 
This compound has an ester and may undergo hydrolysis at high or low pH.

>  <s_lp_Force_Field>  (414) 
OPLS3e

>  <r_lp_Energy>  (414) 
192.57

>  <b_lp_Chiralities_Consistent>  (414) 
1

>  <s_lp_Variant>  (414) 
111:0-1

>  <s_i_glide_gridfile>  (414) 
pfpi4k_grid

>  <i_i_glide_lignum>  (414) 
34

>  <i_i_glide_rotatable_bonds>  (414) 
1

>  <r_i_docking_score>  (414) 
-2.31456

>  <r_i_glide_ligand_efficiency>  (414) 
-0.0857243

>  <r_i_glide_ligand_efficiency_sa>  (414) 
-0.257173

>  <r_i_glide_ligand_efficiency_ln>  (414) 
-0.538791

>  <r_i_glide_gscore>  (414) 
-2.31456

>  <r_i_glide_lipo>  (414) 
-0.293037

>  <r_i_glide_hbond>  (414) 
-0.00294519

>  <r_i_glide_metal>  (414) 
-0

>  <r_i_glide_rewards>  (414) 
-0.883078

>  <r_i_glide_evdw>  (414) 
-16.965

>  <r_i_glide_ecoul>  (414) 
-1.91311

>  <r_i_glide_erotb>  (414) 
0

>  <r_i_glide_esite>  (414) 
-0.000279499

>  <r_i_glide_emodel>  (414) 
-22.4295

>  <r_i_glide_energy>  (414) 
-18.8781

>  <r_i_glide_einternal>  (414) 
0.18793

>  <r_i_glide_intrahb_reward>  (414) 
-0

>  <i_i_glide_confnum>  (414) 
2

>  <i_i_glide_posenum>  (414) 
2

>  <r_i_glide_eff_state_penalty>  (414) 
0

>  <ligand_id>  (414) 
111

>  <original_smiles>  (414) 
COC1C(C)C2C3COC(=O)C3C3OC4(C)CC5C1C1C=CC(C14)C3C52C

>  <smiles>  (414) 
[H]C1=C([H])C2([H])C3([H])C1([H])C1([H])C([H])(OC([H])([H])[H])C([H])(C([H])([H])[H])C4([H])C5([H])C([H])([H])OC(=O)C5([H])C5([H])OC3(C([H])([H])[H])C([H])([H])C1([H])C4(C([H])([H])[H])C52[H]

$$$$
111:0:2
     RDKit          3D

 57 63  0  0  1  0  0  0  0  0999 V2000
    5.1536   -3.5549   -2.2839 C   0  0  0  0  0  0  0  0  0  0  0  0
    4.9504   -4.2703   -1.0722 O   0  0  0  0  0  0  0  0  0  0  0  0
    4.0415   -3.6751   -0.1462 C   0  0  2  0  0  0  0  0  0  0  0  0
    4.5751   -2.2565    0.5720 C   0  0  1  0  0  0  0  0  0  0  0  0
    3.7494   -1.0277    0.1434 C   0  0  0  0  0  0  0  0  0  0  0  0
    4.8353   -2.2983    2.1980 C   0  0  1  0  0  0  0  0  0  0  0  0
    3.9078   -1.6130    3.2785 C   0  0  2  0  0  0  0  0  0  0  0  0
    4.3950   -0.1969    3.6265 C   0  0  0  0  0  0  0  0  0  0  0  0
    5.2326   -0.3822    4.7500 O   0  0  0  0  0  0  0  0  0  0  0  0
    5.0176   -1.5262    5.3965 C   0  0  0  0  0  0  0  0  0  0  0  0
    5.6069   -1.9041    6.4066 O   0  0  0  0  0  0  0  0  0  0  0  0
    3.9175   -2.3126    4.6871 C   0  0  2  0  0  0  0  0  0  0  0  0
    4.0774   -3.8854    4.8262 C   0  0  1  0  0  0  0  0  0  0  0  0
    2.8797   -4.6747    4.9517 O   0  0  0  0  0  0  0  0  0  0  0  0
    2.3751   -5.3840    3.8030 C   0  0  1  0  0  0  0  0  0  0  0  0
    1.1268   -6.1366    4.3013 C   0  0  0  0  0  0  0  0  0  0  0  0
    2.0259   -4.2994    2.8585 C   0  0  0  0  0  0  0  0  0  0  0  0
    3.2259   -3.9697    1.9529 C   0  0  2  0  0  0  0  0  0  0  0  0
    3.2799   -4.7940    0.7685 C   0  0  2  0  0  0  0  0  0  0  0  0
    3.5852   -6.2339    1.4725 C   0  0  1  0  0  0  0  0  0  0  0  0
    4.9591   -6.8536    1.4003 C   0  0  0  0  0  0  0  0  0  0  0  0
    5.5985   -6.7904    2.5793 C   0  0  0  0  0  0  0  0  0  0  0  0
    4.7939   -6.0659    3.6460 C   0  0  2  0  0  0  0  0  0  0  0  0
    3.3916   -6.3171    3.0790 C   0  0  1  0  0  0  0  0  0  0  0  0
    5.0135   -4.4980    3.7938 C   0  0  1  0  0  0  0  0  0  0  0  0
    4.7919   -3.7851    2.4359 C   0  0  2  0  0  0  0  0  0  0  0  0
    6.1682   -4.1623    1.6679 C   0  0  0  0  0  0  0  0  0  0  0  0
    5.8144   -4.1297   -2.9311 H   0  0  0  0  0  0  0  0  0  0  0  0
    5.6213   -2.5862   -2.1119 H   0  0  0  0  0  0  0  0  0  0  0  0
    4.2211   -3.4062   -2.8302 H   0  0  0  0  0  0  0  0  0  0  0  0
    3.2254   -3.3328   -0.7855 H   0  0  0  0  0  0  0  0  0  0  0  0
    5.5437   -2.0493    0.1169 H   0  0  0  0  0  0  0  0  0  0  0  0
    2.7166   -1.0795    0.4912 H   0  0  0  0  0  0  0  0  0  0  0  0
    3.7178   -0.9438   -0.9441 H   0  0  0  0  0  0  0  0  0  0  0  0
    4.1845   -0.1037    0.5261 H   0  0  0  0  0  0  0  0  0  0  0  0
    5.8276   -1.8934    2.4117 H   0  0  0  0  0  0  0  0  0  0  0  0
    2.8826   -1.5087    2.9331 H   0  0  0  0  0  0  0  0  0  0  0  0
    4.9251    0.2887    2.8070 H   0  0  0  0  0  0  0  0  0  0  0  0
    3.5579    0.4395    3.9130 H   0  0  0  0  0  0  0  0  0  0  0  0
    3.0110   -2.0318    5.2215 H   0  0  0  0  0  0  0  0  0  0  0  0
    4.5320   -4.0800    5.7988 H   0  0  0  0  0  0  0  0  0  0  0  0
    0.6454   -6.6971    3.5012 H   0  0  0  0  0  0  0  0  0  0  0  0
    0.3938   -5.4432    4.7150 H   0  0  0  0  0  0  0  0  0  0  0  0
    1.3880   -6.8428    5.0911 H   0  0  0  0  0  0  0  0  0  0  0  0
    1.1963   -4.6406    2.2454 H   0  0  0  0  0  0  0  0  0  0  0  0
    1.6442   -3.4280    3.3942 H   0  0  0  0  0  0  0  0  0  0  0  0
    2.7033   -3.0780    1.6092 H   0  0  0  0  0  0  0  0  0  0  0  0
    2.2882   -4.8974    0.3246 H   0  0  0  0  0  0  0  0  0  0  0  0
    2.9107   -6.9568    1.0167 H   0  0  0  0  0  0  0  0  0  0  0  0
    5.3541   -7.2971    0.5000 H   0  0  0  0  0  0  0  0  0  0  0  0
    6.5958   -7.1629    2.7672 H   0  0  0  0  0  0  0  0  0  0  0  0
    4.9163   -6.5666    4.6084 H   0  0  0  0  0  0  0  0  0  0  0  0
    3.1377   -7.3498    3.3240 H   0  0  0  0  0  0  0  0  0  0  0  0
    6.0187   -4.3083    4.1722 H   0  0  0  0  0  0  0  0  0  0  0  0
    6.0889   -4.8177    0.8168 H   0  0  0  0  0  0  0  0  0  0  0  0
    6.9082   -4.6444    2.3054 H   0  0  0  0  0  0  0  0  0  0  0  0
    6.7657   -3.3382    1.2816 H   0  0  0  0  0  0  0  0  0  0  0  0
  1  2  1  0
  1 28  1  0
  1 29  1  0
  1 30  1  0
  2  3  1  0
  3 19  1  0
  3  4  1  0
  3 31  1  6
  4  5  1  0
  4  6  1  0
  4 32  1  6
  5 33  1  0
  5 34  1  0
  5 35  1  0
  6 26  1  0
  6  7  1  0
  6 36  1  6
  7 12  1  0
  7  8  1  0
  7 37  1  6
  8  9  1  0
  8 38  1  0
  8 39  1  0
  9 10  1  0
 10 11  2  0
 10 12  1  0
 12 13  1  0
 12 40  1  1
 13 25  1  0
 13 14  1  0
 13 41  1  1
 14 15  1  0
 15 24  1  0
 15 16  1  1
 15 17  1  0
 16 42  1  0
 16 43  1  0
 16 44  1  0
 17 18  1  0
 17 45  1  0
 17 46  1  0
 18 26  1  0
 18 19  1  0
 18 47  1  6
 19 20  1  0
 19 48  1  6
 20 24  1  0
 20 21  1  0
 20 49  1  6
 21 22  2  0
 21 50  1  0
 22 23  1  0
 22 51  1  0
 23 24  1  0
 23 25  1  0
 23 52  1  1
 24 53  1  6
 25 26  1  0
 25 54  1  1
 26 27  1  6
 27 55  1  0
 27 56  1  0
 27 57  1  0
M  END
>  <i_m_ct_stereo_status>  (415) 
1

>  <s_m_source_file>  (415) 
/var/tmp/pbs.5076255.sched01/tmpg_ssl3dq/162k0u29fl7.sdf

>  <i_m_source_file_index>  (415) 
34

>  <i_lp_mmshare_version>  (415) 
48012

>  <i_f3d_flags>  (415) 
0

>  <s_epik_input>  (415) 
W0NIXTE9W0NIXVtDQEhdMltDQEBIXTNbQ0BIXShPNClbQ0BASF0oQyg9TylPW0NIMl01KVtDQEBIXTVbQ0BIXShbQ0BIXShbQ0gzXSlbQ0BIXTZPW0NIM10pW0NAXTMoW0NIM10pW0NIXShbQ0gyXTcpW0NIXTZbQ0BASF0xW0NAQEhdMltDQEBdNDdbQ0gzXQ==

>  <s_epik_cmdline>  (415) 
J2VwaWtfcHl0aG9uJywgJy1waHQnLCAnMi4wJywgJy1waCcsICc3LjAnLCAnLXRuJywgJzgnLCAnLW1hJywgJzIwMCcsICctaW1hZScsICc8aW5maWxlLm1hZT4nLCAnLW9tYWUnLCAnPG91dGZpbGUubWFlPic=

>  <r_lp_tautomer_probability>  (415) 
1

>  <r_epik_Ionization_Penalty>  (415) 
5.09821e-11

>  <r_epik_Ionization_Penalty_Charging>  (415) 
0

>  <r_epik_Ionization_Penalty_Neutral>  (415) 
5.09821e-11

>  <r_epik_State_Penalty>  (415) 
-0

>  <r_epik_Charging_Adjusted_Penalty>  (415) 
0

>  <i_epik_Tot_Q>  (415) 
0

>  <i_epik_Tot_abs_Q>  (415) 
0

>  <s_epik_Chemistry_Notes>  (415) 
This compound has an ester and may undergo hydrolysis at high or low pH.

>  <s_lp_Force_Field>  (415) 
OPLS3e

>  <r_lp_Energy>  (415) 
192.57

>  <b_lp_Chiralities_Consistent>  (415) 
1

>  <s_lp_Variant>  (415) 
111:0-1

>  <s_i_glide_gridfile>  (415) 
pfpi4k_grid

>  <i_i_glide_lignum>  (415) 
34

>  <i_i_glide_rotatable_bonds>  (415) 
1

>  <r_i_docking_score>  (415) 
-2.2536

>  <r_i_glide_ligand_efficiency>  (415) 
-0.0834668

>  <r_i_glide_ligand_efficiency_sa>  (415) 
-0.2504

>  <r_i_glide_ligand_efficiency_ln>  (415) 
-0.524601

>  <r_i_glide_gscore>  (415) 
-2.2536

>  <r_i_glide_lipo>  (415) 
-0.449127

>  <r_i_glide_hbond>  (415) 
0

>  <r_i_glide_metal>  (415) 
-0

>  <r_i_glide_rewards>  (415) 
-0.921461

>  <r_i_glide_evdw>  (415) 
-16.8689

>  <r_i_glide_ecoul>  (415) 
-0.263782

>  <r_i_glide_erotb>  (415) 
0

>  <r_i_glide_esite>  (415) 
0

>  <r_i_glide_emodel>  (415) 
-20.6007

>  <r_i_glide_energy>  (415) 
-17.1327

>  <r_i_glide_einternal>  (415) 
0.269102

>  <r_i_glide_intrahb_reward>  (415) 
-0

>  <i_i_glide_confnum>  (415) 
2

>  <i_i_glide_posenum>  (415) 
40

>  <r_i_glide_eff_state_penalty>  (415) 
0

>  <ligand_id>  (415) 
111

>  <original_smiles>  (415) 
COC1C(C)C2C3COC(=O)C3C3OC4(C)CC5C1C1C=CC(C14)C3C52C

>  <smiles>  (415) 
[H]C1=C([H])C2([H])C3([H])C1([H])C1([H])C([H])(OC([H])([H])[H])C([H])(C([H])([H])[H])C4([H])C5([H])C([H])([H])OC(=O)C5([H])C5([H])OC3(C([H])([H])[H])C([H])([H])C1([H])C4(C([H])([H])[H])C52[H]

$$$$
112:0:0
     RDKit          3D

 41 45  0  0  1  0  0  0  0  0999 V2000
    1.0083   -5.8629    0.1469 O   0  0  0  0  0  0  0  0  0  0  0  0
    1.9266   -6.2528    0.8640 C   0  0  0  0  0  0  0  0  0  0  0  0
    3.1331   -5.6811    0.8865 N   0  0  0  0  0  0  0  0  0  0  0  0
    3.5543   -4.5330    0.0785 C   0  0  2  0  0  0  0  0  0  0  0  0
    5.0689   -4.6325   -0.2289 C   0  0  1  0  0  0  0  0  0  0  0  0
    5.4938   -3.4546   -1.1340 C   0  0  0  0  0  0  0  0  0  0  0  0
    5.2308   -2.1220   -0.4007 C   0  0  2  0  0  0  0  0  0  0  0  0
    6.0198   -2.0759    0.9271 C   0  0  0  0  0  0  0  0  0  0  0  0
    5.5856   -3.2581    1.8177 C   0  0  2  0  0  0  0  0  0  0  0  0
    5.8790   -4.5869    1.0879 C   0  0  0  0  0  0  0  0  0  0  0  0
    4.0764   -3.1421    2.1266 C   0  0  0  0  0  0  0  0  0  0  0  0
    3.2810   -3.1876    0.8020 C   0  0  1  0  0  0  0  0  0  0  0  0
    3.7230   -2.0092   -0.0993 C   0  0  0  0  0  0  0  0  0  0  0  0
    1.7381   -7.4001    1.8011 C   0  0  0  0  0  0  0  0  0  0  0  0
    2.7174   -8.3393    1.8592 N   0  0  0  0  0  0  0  0  0  0  0  0
    2.5004   -9.3975    2.6849 C   0  0  0  0  0  0  0  0  0  0  0  0
    1.4286   -9.6217    3.4832 N   0  0  0  0  0  0  0  0  0  0  0  0
    0.5175   -8.6534    3.3756 N   0  0  0  0  0  0  0  0  0  0  0  0
   -0.6583   -8.6490    4.0931 C   0  0  0  0  0  0  0  0  0  0  0  0
   -1.3151   -7.5116    3.6993 C   0  0  0  0  0  0  0  0  0  0  0  0
   -0.5732   -6.8054    2.7483 N   0  0  0  0  0  0  0  0  0  0  0  0
    0.5500   -7.5124    2.5665 C   0  0  0  0  0  0  0  0  0  0  0  0
    3.7994   -6.0620    1.5430 H   0  0  0  0  0  0  0  0  0  0  0  0
    3.0062   -4.5379   -0.8682 H   0  0  0  0  0  0  0  0  0  0  0  0
    5.2662   -5.5720   -0.7464 H   0  0  0  0  0  0  0  0  0  0  0  0
    6.5456   -3.5404   -1.4029 H   0  0  0  0  0  0  0  0  0  0  0  0
    4.9330   -3.4839   -2.0686 H   0  0  0  0  0  0  0  0  0  0  0  0
    5.5397   -1.2891   -1.0325 H   0  0  0  0  0  0  0  0  0  0  0  0
    7.0948   -2.1123    0.7451 H   0  0  0  0  0  0  0  0  0  0  0  0
    5.8272   -1.1346    1.4436 H   0  0  0  0  0  0  0  0  0  0  0  0
    6.1424   -3.2324    2.7523 H   0  0  0  0  0  0  0  0  0  0  0  0
    5.6275   -5.4310    1.7302 H   0  0  0  0  0  0  0  0  0  0  0  0
    6.9444   -4.6844    0.8809 H   0  0  0  0  0  0  0  0  0  0  0  0
    3.7659   -3.9478    2.7924 H   0  0  0  0  0  0  0  0  0  0  0  0
    3.8650   -2.2159    2.6608 H   0  0  0  0  0  0  0  0  0  0  0  0
    2.2145   -3.0888    1.0072 H   0  0  0  0  0  0  0  0  0  0  0  0
    3.5092   -1.0600    0.3906 H   0  0  0  0  0  0  0  0  0  0  0  0
    3.1520   -2.0026   -1.0285 H   0  0  0  0  0  0  0  0  0  0  0  0
    3.2815  -10.1447    2.7175 H   0  0  0  0  0  0  0  0  0  0  0  0
   -0.8867   -9.4471    4.7874 H   0  0  0  0  0  0  0  0  0  0  0  0
   -2.2748   -7.1448    4.0324 H   0  0  0  0  0  0  0  0  0  0  0  0
  1  2  2  0
  2  3  1  0
  2 14  1  0
  3  4  1  0
  3 23  1  0
  4 12  1  0
  4  5  1  0
  4 24  1  6
  5 10  1  0
  5  6  1  0
  5 25  1  6
  6  7  1  0
  6 26  1  0
  6 27  1  0
  7 13  1  0
  7  8  1  0
  7 28  1  6
  8  9  1  0
  8 29  1  0
  8 30  1  0
  9 10  1  0
  9 11  1  0
  9 31  1  1
 10 32  1  0
 10 33  1  0
 11 12  1  0
 11 34  1  0
 11 35  1  0
 12 13  1  0
 12 36  1  1
 13 37  1  0
 13 38  1  0
 14 22  1  0
 14 15  2  0
 15 16  1  0
 16 17  2  0
 16 39  1  0
 17 18  1  0
 18 22  1  0
 18 19  1  0
 19 20  2  0
 19 40  1  0
 20 21  1  0
 20 41  1  0
 21 22  2  0
M  END
>  <i_m_ct_stereo_status>  (416) 
1

>  <s_m_source_file>  (416) 
/var/tmp/pbs.5076255.sched01/tmpg_ssl3dq/162k0u29fl7.sdf

>  <i_m_source_file_index>  (416) 
35

>  <i_lp_mmshare_version>  (416) 
48012

>  <i_f3d_flags>  (416) 
0

>  <s_epik_input>  (416) 
W2NIXTFbY0hdbmMobjEyKWMobltjSF1uMilDKD1PKVtOSF1bQ0BIXShbQ0BIXTM0KVtDQEBIXTVbQ0gyXVtDQEhdKFtDSDJdNClbQ0gyXVtDQEhdKFtDSDJdMylbQ0gyXTU=

>  <s_epik_cmdline>  (416) 
J2VwaWtfcHl0aG9uJywgJy1waHQnLCAnMi4wJywgJy1waCcsICc3LjAnLCAnLXRuJywgJzgnLCAnLW1hJywgJzIwMCcsICctaW1hZScsICc8aW5maWxlLm1hZT4nLCAnLW9tYWUnLCAnPG91dGZpbGUubWFlPic=

>  <r_lp_tautomer_probability>  (416) 
1

>  <r_epik_Ionization_Penalty>  (416) 
2.4163e-05

>  <r_epik_Ionization_Penalty_Charging>  (416) 
1.28695e-07

>  <r_epik_Ionization_Penalty_Neutral>  (416) 
2.40343e-05

>  <r_epik_State_Penalty>  (416) 
-0

>  <r_epik_Charging_Adjusted_Penalty>  (416) 
1.28695e-07

>  <i_epik_Tot_Q>  (416) 
0

>  <i_epik_Tot_abs_Q>  (416) 
0

>  <s_lp_Force_Field>  (416) 
OPLS3e

>  <r_lp_Energy>  (416) 
17.7696

>  <b_lp_Chiralities_Consistent>  (416) 
1

>  <s_lp_Variant>  (416) 
112:0-1

>  <s_i_glide_gridfile>  (416) 
pfpi4k_grid

>  <i_i_glide_lignum>  (416) 
35

>  <i_i_glide_rotatable_bonds>  (416) 
3

>  <r_i_docking_score>  (416) 
-4.31388

>  <r_i_glide_ligand_efficiency>  (416) 
-0.196085

>  <r_i_glide_ligand_efficiency_sa>  (416) 
-0.549439

>  <r_i_glide_ligand_efficiency_ln>  (416) 
-1.05447

>  <r_i_glide_gscore>  (416) 
-4.31388

>  <r_i_glide_lipo>  (416) 
-0.360271

>  <r_i_glide_hbond>  (416) 
-0.491545

>  <r_i_glide_metal>  (416) 
-0

>  <r_i_glide_rewards>  (416) 
-1.38167

>  <r_i_glide_evdw>  (416) 
-26.2916

>  <r_i_glide_ecoul>  (416) 
-8.45035

>  <r_i_glide_erotb>  (416) 
0.622062

>  <r_i_glide_esite>  (416) 
-0.120321

>  <r_i_glide_emodel>  (416) 
-43.9298

>  <r_i_glide_energy>  (416) 
-34.7419

>  <r_i_glide_einternal>  (416) 
2.25595

>  <r_i_glide_intrahb_reward>  (416) 
-0

>  <i_i_glide_confnum>  (416) 
5

>  <i_i_glide_posenum>  (416) 
18

>  <r_i_glide_eff_state_penalty>  (416) 
0

>  <ligand_id>  (416) 
112

>  <original_smiles>  (416) 
O=C(NC1C2CC3CC(C2)CC1C3)c1ncnn2ccnc12

>  <smiles>  (416) 
[H]c1nc(C(=O)N([H])C2([H])C3([H])C([H])([H])C4([H])C([H])([H])C([H])(C3([H])[H])C([H])([H])C2([H])C4([H])[H])c2nc([H])c([H])n2n1

$$$$
112:0:1
     RDKit          3D

 41 45  0  0  1  0  0  0  0  0999 V2000
    1.0098   -5.8622    0.4030 O   0  0  0  0  0  0  0  0  0  0  0  0
    2.0642   -6.2537    0.8863 C   0  0  0  0  0  0  0  0  0  0  0  0
    3.2251   -5.6121    0.7228 N   0  0  0  0  0  0  0  0  0  0  0  0
    3.4342   -4.3987   -0.0778 C   0  0  2  0  0  0  0  0  0  0  0  0
    4.8636   -4.3790   -0.6780 C   0  0  1  0  0  0  0  0  0  0  0  0
    5.0351   -3.1220   -1.5599 C   0  0  0  0  0  0  0  0  0  0  0  0
    4.8501   -1.8589   -0.6919 C   0  0  2  0  0  0  0  0  0  0  0  0
    5.8827   -1.8399    0.4556 C   0  0  0  0  0  0  0  0  0  0  0  0
    5.7043   -3.1027    1.3215 C   0  0  2  0  0  0  0  0  0  0  0  0
    5.9173   -4.3589    0.4516 C   0  0  0  0  0  0  0  0  0  0  0  0
    4.2829   -3.1114    1.9307 C   0  0  0  0  0  0  0  0  0  0  0  0
    3.2411   -3.1315    0.7882 C   0  0  1  0  0  0  0  0  0  0  0  0
    3.4303   -1.8762   -0.0914 C   0  0  0  0  0  0  0  0  0  0  0  0
    2.1194   -7.5128    1.7115 C   0  0  0  0  0  0  0  0  0  0  0  0
    0.9832   -7.8933    2.3525 N   0  0  0  0  0  0  0  0  0  0  0  0
    1.0370   -9.0617    3.0405 C   0  0  0  0  0  0  0  0  0  0  0  0
    2.0906   -9.9000    3.1868 N   0  0  0  0  0  0  0  0  0  0  0  0
    3.1697   -9.4677    2.5348 N   0  0  0  0  0  0  0  0  0  0  0  0
    4.3704  -10.1428    2.5322 C   0  0  0  0  0  0  0  0  0  0  0  0
    5.1992   -9.3909    1.7379 C   0  0  0  0  0  0  0  0  0  0  0  0
    4.5441   -8.2571    1.2560 N   0  0  0  0  0  0  0  0  0  0  0  0
    3.3071   -8.3119    1.7603 C   0  0  0  0  0  0  0  0  0  0  0  0
    4.0424   -6.0233    1.1546 H   0  0  0  0  0  0  0  0  0  0  0  0
    2.7168   -4.3770   -0.9032 H   0  0  0  0  0  0  0  0  0  0  0  0
    5.0133   -5.2628   -1.2973 H   0  0  0  0  0  0  0  0  0  0  0  0
    6.0157   -3.1168   -2.0364 H   0  0  0  0  0  0  0  0  0  0  0  0
    4.2993   -3.1297   -2.3652 H   0  0  0  0  0  0  0  0  0  0  0  0
    4.9738   -0.9658   -1.3072 H   0  0  0  0  0  0  0  0  0  0  0  0
    6.8995   -1.7925    0.0647 H   0  0  0  0  0  0  0  0  0  0  0  0
    5.7408   -0.9486    1.0675 H   0  0  0  0  0  0  0  0  0  0  0  0
    6.4419   -3.0967    2.1207 H   0  0  0  0  0  0  0  0  0  0  0  0
    5.8488   -5.2571    1.0631 H   0  0  0  0  0  0  0  0  0  0  0  0
    6.9237   -4.3678    0.0334 H   0  0  0  0  0  0  0  0  0  0  0  0
    4.1578   -3.9764    2.5821 H   0  0  0  0  0  0  0  0  0  0  0  0
    4.1288   -2.2367    2.5642 H   0  0  0  0  0  0  0  0  0  0  0  0
    2.2316   -3.1158    1.2030 H   0  0  0  0  0  0  0  0  0  0  0  0
    3.2552   -0.9715    0.4920 H   0  0  0  0  0  0  0  0  0  0  0  0
    2.6976   -1.8743   -0.8975 H   0  0  0  0  0  0  0  0  0  0  0  0
    0.1380   -9.3581    3.5596 H   0  0  0  0  0  0  0  0  0  0  0  0
    4.4724  -11.0755    3.0706 H   0  0  0  0  0  0  0  0  0  0  0  0
    6.2273   -9.5895    1.4716 H   0  0  0  0  0  0  0  0  0  0  0  0
  1  2  2  0
  2  3  1  0
  2 14  1  0
  3  4  1  0
  3 23  1  0
  4 12  1  0
  4  5  1  0
  4 24  1  6
  5 10  1  0
  5  6  1  0
  5 25  1  6
  6  7  1  0
  6 26  1  0
  6 27  1  0
  7 13  1  0
  7  8  1  0
  7 28  1  6
  8  9  1  0
  8 29  1  0
  8 30  1  0
  9 10  1  0
  9 11  1  0
  9 31  1  1
 10 32  1  0
 10 33  1  0
 11 12  1  0
 11 34  1  0
 11 35  1  0
 12 13  1  0
 12 36  1  1
 13 37  1  0
 13 38  1  0
 14 22  1  0
 14 15  2  0
 15 16  1  0
 16 17  2  0
 16 39  1  0
 17 18  1  0
 18 22  1  0
 18 19  1  0
 19 20  2  0
 19 40  1  0
 20 21  1  0
 20 41  1  0
 21 22  2  0
M  END
>  <i_m_ct_stereo_status>  (417) 
1

>  <s_m_source_file>  (417) 
/var/tmp/pbs.5076255.sched01/tmpg_ssl3dq/162k0u29fl7.sdf

>  <i_m_source_file_index>  (417) 
35

>  <i_lp_mmshare_version>  (417) 
48012

>  <i_f3d_flags>  (417) 
0

>  <s_epik_input>  (417) 
W2NIXTFbY0hdbmMobjEyKWMobltjSF1uMilDKD1PKVtOSF1bQ0BIXShbQ0BIXTM0KVtDQEBIXTVbQ0gyXVtDQEhdKFtDSDJdNClbQ0gyXVtDQEhdKFtDSDJdMylbQ0gyXTU=

>  <s_epik_cmdline>  (417) 
J2VwaWtfcHl0aG9uJywgJy1waHQnLCAnMi4wJywgJy1waCcsICc3LjAnLCAnLXRuJywgJzgnLCAnLW1hJywgJzIwMCcsICctaW1hZScsICc8aW5maWxlLm1hZT4nLCAnLW9tYWUnLCAnPG91dGZpbGUubWFlPic=

>  <r_lp_tautomer_probability>  (417) 
1

>  <r_epik_Ionization_Penalty>  (417) 
2.4163e-05

>  <r_epik_Ionization_Penalty_Charging>  (417) 
1.28695e-07

>  <r_epik_Ionization_Penalty_Neutral>  (417) 
2.40343e-05

>  <r_epik_State_Penalty>  (417) 
-0

>  <r_epik_Charging_Adjusted_Penalty>  (417) 
1.28695e-07

>  <i_epik_Tot_Q>  (417) 
0

>  <i_epik_Tot_abs_Q>  (417) 
0

>  <s_lp_Force_Field>  (417) 
OPLS3e

>  <r_lp_Energy>  (417) 
17.7696

>  <b_lp_Chiralities_Consistent>  (417) 
1

>  <s_lp_Variant>  (417) 
112:0-1

>  <s_i_glide_gridfile>  (417) 
pfpi4k_grid

>  <i_i_glide_lignum>  (417) 
35

>  <i_i_glide_rotatable_bonds>  (417) 
3

>  <r_i_docking_score>  (417) 
-3.44618

>  <r_i_glide_ligand_efficiency>  (417) 
-0.156645

>  <r_i_glide_ligand_efficiency_sa>  (417) 
-0.438925

>  <r_i_glide_ligand_efficiency_ln>  (417) 
-0.842373

>  <r_i_glide_gscore>  (417) 
-3.44618

>  <r_i_glide_lipo>  (417) 
-0.315649

>  <r_i_glide_hbond>  (417) 
-0.164691

>  <r_i_glide_metal>  (417) 
-0

>  <r_i_glide_rewards>  (417) 
-1.38167

>  <r_i_glide_evdw>  (417) 
-25.5196

>  <r_i_glide_ecoul>  (417) 
-5.57653

>  <r_i_glide_erotb>  (417) 
0.622062

>  <r_i_glide_esite>  (417) 
-0.0937765

>  <r_i_glide_emodel>  (417) 
-39.2526

>  <r_i_glide_energy>  (417) 
-31.0961

>  <r_i_glide_einternal>  (417) 
0.208736

>  <r_i_glide_intrahb_reward>  (417) 
-0

>  <i_i_glide_confnum>  (417) 
2

>  <i_i_glide_posenum>  (417) 
14

>  <r_i_glide_eff_state_penalty>  (417) 
0

>  <ligand_id>  (417) 
112

>  <original_smiles>  (417) 
O=C(NC1C2CC3CC(C2)CC1C3)c1ncnn2ccnc12

>  <smiles>  (417) 
[H]c1nc(C(=O)N([H])C2([H])C3([H])C([H])([H])C4([H])C([H])([H])C([H])(C3([H])[H])C([H])([H])C2([H])C4([H])[H])c2nc([H])c([H])n2n1

$$$$
112:0:2
     RDKit          3D

 41 45  0  0  1  0  0  0  0  0999 V2000
    1.7249   -4.6371    2.7249 O   0  0  0  0  0  0  0  0  0  0  0  0
    2.2238   -5.3881    1.8888 C   0  0  0  0  0  0  0  0  0  0  0  0
    2.8972   -4.9562    0.8150 N   0  0  0  0  0  0  0  0  0  0  0  0
    3.1966   -3.5588    0.4863 C   0  0  2  0  0  0  0  0  0  0  0  0
    3.7010   -3.4496   -0.9770 C   0  0  1  0  0  0  0  0  0  0  0  0
    3.9528   -1.9667   -1.3301 C   0  0  0  0  0  0  0  0  0  0  0  0
    5.0412   -1.3941   -0.3969 C   0  0  2  0  0  0  0  0  0  0  0  0
    6.3535   -2.1983   -0.5435 C   0  0  0  0  0  0  0  0  0  0  0  0
    6.0906   -3.6758   -0.1908 C   0  0  2  0  0  0  0  0  0  0  0  0
    5.0161   -4.2465   -1.1424 C   0  0  0  0  0  0  0  0  0  0  0  0
    5.6022   -3.7722    1.2705 C   0  0  0  0  0  0  0  0  0  0  0  0
    4.2890   -2.9682    1.4234 C   0  0  1  0  0  0  0  0  0  0  0  0
    4.5490   -1.4875    1.0610 C   0  0  0  0  0  0  0  0  0  0  0  0
    2.0396   -6.8677    1.9810 C   0  0  0  0  0  0  0  0  0  0  0  0
    3.0932   -7.6641    1.6667 N   0  0  0  0  0  0  0  0  0  0  0  0
    2.9056   -9.0043    1.7855 C   0  0  0  0  0  0  0  0  0  0  0  0
    1.7881   -9.6507    2.1972 N   0  0  0  0  0  0  0  0  0  0  0  0
    0.7962   -8.8048    2.4796 N   0  0  0  0  0  0  0  0  0  0  0  0
   -0.4504   -9.2176    2.9062 C   0  0  0  0  0  0  0  0  0  0  0  0
   -1.1669   -8.0653    3.0936 C   0  0  0  0  0  0  0  0  0  0  0  0
   -0.4013   -6.9397    2.7730 N   0  0  0  0  0  0  0  0  0  0  0  0
    0.7992   -7.4078    2.4160 C   0  0  0  0  0  0  0  0  0  0  0  0
    3.2872   -5.6640    0.2067 H   0  0  0  0  0  0  0  0  0  0  0  0
    2.2769   -2.9727    0.5866 H   0  0  0  0  0  0  0  0  0  0  0  0
    2.9440   -3.8527   -1.6515 H   0  0  0  0  0  0  0  0  0  0  0  0
    4.2495   -1.8682   -2.3733 H   0  0  0  0  0  0  0  0  0  0  0  0
    3.0286   -1.3976   -1.2189 H   0  0  0  0  0  0  0  0  0  0  0  0
    5.2233   -0.3496   -0.6519 H   0  0  0  0  0  0  0  0  0  0  0  0
    6.7460   -2.1202   -1.5580 H   0  0  0  0  0  0  0  0  0  0  0  0
    7.1166   -1.7907    0.1219 H   0  0  0  0  0  0  0  0  0  0  0  0
    7.0127   -4.2468   -0.3017 H   0  0  0  0  0  0  0  0  0  0  0  0
    4.8595   -5.3059   -0.9385 H   0  0  0  0  0  0  0  0  0  0  0  0
    5.3574   -4.1980   -2.1763 H   0  0  0  0  0  0  0  0  0  0  0  0
    5.4504   -4.8164    1.5460 H   0  0  0  0  0  0  0  0  0  0  0  0
    6.3606   -3.3902    1.9538 H   0  0  0  0  0  0  0  0  0  0  0  0
    3.9531   -3.0166    2.4598 H   0  0  0  0  0  0  0  0  0  0  0  0
    5.2900   -1.0580    1.7349 H   0  0  0  0  0  0  0  0  0  0  0  0
    3.6406   -0.8979    1.1876 H   0  0  0  0  0  0  0  0  0  0  0  0
    3.7448   -9.6337    1.5247 H   0  0  0  0  0  0  0  0  0  0  0  0
   -0.6845  -10.2630    3.0367 H   0  0  0  0  0  0  0  0  0  0  0  0
   -2.1869   -7.9597    3.4356 H   0  0  0  0  0  0  0  0  0  0  0  0
  1  2  2  0
  2  3  1  0
  2 14  1  0
  3  4  1  0
  3 23  1  0
  4 12  1  0
  4  5  1  0
  4 24  1  6
  5 10  1  0
  5  6  1  0
  5 25  1  6
  6  7  1  0
  6 26  1  0
  6 27  1  0
  7 13  1  0
  7  8  1  0
  7 28  1  6
  8  9  1  0
  8 29  1  0
  8 30  1  0
  9 10  1  0
  9 11  1  0
  9 31  1  1
 10 32  1  0
 10 33  1  0
 11 12  1  0
 11 34  1  0
 11 35  1  0
 12 13  1  0
 12 36  1  1
 13 37  1  0
 13 38  1  0
 14 22  1  0
 14 15  2  0
 15 16  1  0
 16 17  2  0
 16 39  1  0
 17 18  1  0
 18 22  1  0
 18 19  1  0
 19 20  2  0
 19 40  1  0
 20 21  1  0
 20 41  1  0
 21 22  2  0
M  END
>  <i_m_ct_stereo_status>  (418) 
1

>  <s_m_source_file>  (418) 
/var/tmp/pbs.5076255.sched01/tmpg_ssl3dq/162k0u29fl7.sdf

>  <i_m_source_file_index>  (418) 
35

>  <i_lp_mmshare_version>  (418) 
48012

>  <i_f3d_flags>  (418) 
0

>  <s_epik_input>  (418) 
W2NIXTFbY0hdbmMobjEyKWMobltjSF1uMilDKD1PKVtOSF1bQ0BIXShbQ0BIXTM0KVtDQEBIXTVbQ0gyXVtDQEhdKFtDSDJdNClbQ0gyXVtDQEhdKFtDSDJdMylbQ0gyXTU=

>  <s_epik_cmdline>  (418) 
J2VwaWtfcHl0aG9uJywgJy1waHQnLCAnMi4wJywgJy1waCcsICc3LjAnLCAnLXRuJywgJzgnLCAnLW1hJywgJzIwMCcsICctaW1hZScsICc8aW5maWxlLm1hZT4nLCAnLW9tYWUnLCAnPG91dGZpbGUubWFlPic=

>  <r_lp_tautomer_probability>  (418) 
1

>  <r_epik_Ionization_Penalty>  (418) 
2.4163e-05

>  <r_epik_Ionization_Penalty_Charging>  (418) 
1.28695e-07

>  <r_epik_Ionization_Penalty_Neutral>  (418) 
2.40343e-05

>  <r_epik_State_Penalty>  (418) 
-0

>  <r_epik_Charging_Adjusted_Penalty>  (418) 
1.28695e-07

>  <i_epik_Tot_Q>  (418) 
0

>  <i_epik_Tot_abs_Q>  (418) 
0

>  <s_lp_Force_Field>  (418) 
OPLS3e

>  <r_lp_Energy>  (418) 
17.7696

>  <b_lp_Chiralities_Consistent>  (418) 
1

>  <s_lp_Variant>  (418) 
112:0-1

>  <s_i_glide_gridfile>  (418) 
pfpi4k_grid

>  <i_i_glide_lignum>  (418) 
35

>  <i_i_glide_rotatable_bonds>  (418) 
3

>  <r_i_docking_score>  (418) 
-2.98877

>  <r_i_glide_ligand_efficiency>  (418) 
-0.135853

>  <r_i_glide_ligand_efficiency_sa>  (418) 
-0.380666

>  <r_i_glide_ligand_efficiency_ln>  (418) 
-0.730565

>  <r_i_glide_gscore>  (418) 
-2.98877

>  <r_i_glide_lipo>  (418) 
-0.18047

>  <r_i_glide_hbond>  (418) 
-0.139191

>  <r_i_glide_metal>  (418) 
-0

>  <r_i_glide_rewards>  (418) 
-1.38167

>  <r_i_glide_evdw>  (418) 
-29.7911

>  <r_i_glide_ecoul>  (418) 
-1.96537

>  <r_i_glide_erotb>  (418) 
0.622062

>  <r_i_glide_esite>  (418) 
-0.125141

>  <r_i_glide_emodel>  (418) 
-37.9391

>  <r_i_glide_energy>  (418) 
-31.7565

>  <r_i_glide_einternal>  (418) 
1.94111

>  <r_i_glide_intrahb_reward>  (418) 
-0

>  <i_i_glide_confnum>  (418) 
3

>  <i_i_glide_posenum>  (418) 
22

>  <r_i_glide_eff_state_penalty>  (418) 
0

>  <ligand_id>  (418) 
112

>  <original_smiles>  (418) 
O=C(NC1C2CC3CC(C2)CC1C3)c1ncnn2ccnc12

>  <smiles>  (418) 
[H]c1nc(C(=O)N([H])C2([H])C3([H])C([H])([H])C4([H])C([H])([H])C([H])(C3([H])[H])C([H])([H])C2([H])C4([H])[H])c2nc([H])c([H])n2n1

$$$$
113:0:0
     RDKit          3D

 44 47  0  0  1  0  0  0  0  0999 V2000
    6.3584   -6.8428    2.6907 C   0  0  0  0  0  0  0  0  0  0  0  0
    5.9362   -5.7690    1.7037 C   0  0  0  0  0  0  0  0  0  0  0  0
    5.2507   -6.0444    0.5810 C   0  0  0  0  0  0  0  0  0  0  0  0
    4.8735   -4.9811   -0.4395 C   0  0  1  0  0  0  0  0  0  0  0  0
    3.4519   -4.4842   -0.2950 C   0  0  0  0  0  0  0  0  0  0  0  0
    3.0268   -3.4822   -1.0867 C   0  0  0  0  0  0  0  0  0  0  0  0
    3.9573   -2.7475   -2.0483 C   0  0  0  0  0  0  0  0  0  0  0  0
    4.0142   -3.4193   -3.4327 C   0  0  0  0  0  0  0  0  0  0  0  0
    3.4303   -1.3126   -2.1977 C   0  0  0  0  0  0  0  0  0  0  0  0
    5.3775   -2.6835   -1.4089 C   0  0  0  0  0  0  0  0  0  0  0  0
    6.2123   -1.8504   -1.7620 O   0  0  0  0  0  0  0  0  0  0  0  0
    5.7503   -3.7298   -0.3275 C   0  0  1  0  0  0  0  0  0  0  0  0
    5.7139   -3.2280    1.1561 C   0  0  2  0  0  0  0  0  0  0  0  0
    6.5387   -1.9352    1.3074 C   0  0  0  0  0  0  0  0  0  0  0  0
    6.3199   -4.3364    2.0674 C   0  0  0  0  0  0  0  0  0  0  0  0
    4.4307   -2.8134    1.6861 O   0  0  0  0  0  0  0  0  0  0  0  0
    3.4399   -3.7210    2.0014 C   0  0  0  0  0  0  0  0  0  0  0  0
    2.9397   -3.7348    3.3124 C   0  0  0  0  0  0  0  0  0  0  0  0
    1.9232   -4.6349    3.6689 C   0  0  0  0  0  0  0  0  0  0  0  0
    1.4013   -5.5329    2.7183 C   0  0  0  0  0  0  0  0  0  0  0  0
    1.8820   -5.5191    1.3953 C   0  0  0  0  0  0  0  0  0  0  0  0
    2.8802   -4.5933    1.0355 C   0  0  0  0  0  0  0  0  0  0  0  0
    7.4383   -6.8217    2.8407 H   0  0  0  0  0  0  0  0  0  0  0  0
    6.0861   -7.8310    2.3218 H   0  0  0  0  0  0  0  0  0  0  0  0
    5.8711   -6.6869    3.6528 H   0  0  0  0  0  0  0  0  0  0  0  0
    4.9612   -7.0587    0.3447 H   0  0  0  0  0  0  0  0  0  0  0  0
    5.0094   -5.4133   -1.4279 H   0  0  0  0  0  0  0  0  0  0  0  0
    2.0939   -2.9864   -0.8645 H   0  0  0  0  0  0  0  0  0  0  0  0
    4.4168   -4.4301   -3.3730 H   0  0  0  0  0  0  0  0  0  0  0  0
    4.6581   -2.8623   -4.1103 H   0  0  0  0  0  0  0  0  0  0  0  0
    3.0265   -3.4790   -3.8894 H   0  0  0  0  0  0  0  0  0  0  0  0
    3.4000   -0.8270   -1.2182 H   0  0  0  0  0  0  0  0  0  0  0  0
    2.4110   -1.3012   -2.5907 H   0  0  0  0  0  0  0  0  0  0  0  0
    4.0456   -0.6960   -2.8514 H   0  0  0  0  0  0  0  0  0  0  0  0
    6.7782   -4.0195   -0.5451 H   0  0  0  0  0  0  0  0  0  0  0  0
    7.5537   -2.0483    0.9255 H   0  0  0  0  0  0  0  0  0  0  0  0
    6.6093   -1.6612    2.3604 H   0  0  0  0  0  0  0  0  0  0  0  0
    6.0756   -1.0900    0.7980 H   0  0  0  0  0  0  0  0  0  0  0  0
    6.0592   -4.1519    3.1128 H   0  0  0  0  0  0  0  0  0  0  0  0
    7.4077   -4.3090    1.9831 H   0  0  0  0  0  0  0  0  0  0  0  0
    3.3478   -3.0453    4.0378 H   0  0  0  0  0  0  0  0  0  0  0  0
    1.5463   -4.6381    4.6831 H   0  0  0  0  0  0  0  0  0  0  0  0
    0.6117   -6.2172    2.9992 H   0  0  0  0  0  0  0  0  0  0  0  0
    1.4763   -6.1876    0.6476 H   0  0  0  0  0  0  0  0  0  0  0  0
  1  2  1  0
  1 23  1  0
  1 24  1  0
  1 25  1  0
  2 15  1  0
  2  3  2  0
  3  4  1  0
  3 26  1  0
  4 12  1  0
  4  5  1  0
  4 27  1  6
  5 22  1  0
  5  6  2  0
  6  7  1  0
  6 28  1  0
  7  8  1  0
  7  9  1  0
  7 10  1  0
  8 29  1  0
  8 30  1  0
  8 31  1  0
  9 32  1  0
  9 33  1  0
  9 34  1  0
 10 11  2  0
 10 12  1  0
 12 13  1  0
 12 35  1  6
 13 14  1  6
 13 15  1  0
 13 16  1  0
 14 36  1  0
 14 37  1  0
 14 38  1  0
 15 39  1  0
 15 40  1  0
 16 17  1  0
 17 22  2  0
 17 18  1  0
 18 19  2  0
 18 41  1  0
 19 20  1  0
 19 42  1  0
 20 21  2  0
 20 43  1  0
 21 22  1  0
 21 44  1  0
M  END
>  <i_m_ct_stereo_status>  (419) 
1

>  <s_m_source_file>  (419) 
/var/tmp/pbs.5076255.sched01/tmpg_ssl3dq/162k0u29fl7.sdf

>  <i_m_source_file_index>  (419) 
36

>  <i_lp_mmshare_version>  (419) 
48012

>  <i_f3d_flags>  (419) 
0

>  <s_epik_input>  (419) 
W0NIM11DKFtDSDJdMSk9W0NIXVtDQEBIXShbQ0BIXTJbQ0BdMTNbQ0gzXSlDKD1bQ0hdQyhbQ0gzXSkoW0NIM10pQzI9TyljNGMoTzMpW2NIXVtjSF1bY0hdW2NIXTQ=

>  <s_epik_cmdline>  (419) 
J2VwaWtfcHl0aG9uJywgJy1waHQnLCAnMi4wJywgJy1waCcsICc3LjAnLCAnLXRuJywgJzgnLCAnLW1hJywgJzIwMCcsICctaW1hZScsICc8aW5maWxlLm1hZT4nLCAnLW9tYWUnLCAnPG91dGZpbGUubWFlPic=

>  <r_lp_tautomer_probability>  (419) 
1

>  <r_epik_Ionization_Penalty>  (419) 
3.43222e-12

>  <r_epik_Ionization_Penalty_Charging>  (419) 
0

>  <r_epik_Ionization_Penalty_Neutral>  (419) 
3.43222e-12

>  <r_epik_State_Penalty>  (419) 
-0

>  <r_epik_Charging_Adjusted_Penalty>  (419) 
0

>  <i_epik_Tot_Q>  (419) 
0

>  <i_epik_Tot_abs_Q>  (419) 
0

>  <s_lp_Force_Field>  (419) 
OPLS3e

>  <r_lp_Energy>  (419) 
50.7519

>  <b_lp_Chiralities_Consistent>  (419) 
1

>  <s_lp_Variant>  (419) 
113:0-1

>  <s_i_glide_gridfile>  (419) 
pfpi4k_grid

>  <i_i_glide_lignum>  (419) 
36

>  <i_i_glide_rotatable_bonds>  (419) 
0

>  <r_i_docking_score>  (419) 
-3.43911

>  <r_i_glide_ligand_efficiency>  (419) 
-0.156323

>  <r_i_glide_ligand_efficiency_sa>  (419) 
-0.438024

>  <r_i_glide_ligand_efficiency_ln>  (419) 
-0.840645

>  <r_i_glide_gscore>  (419) 
-3.43911

>  <r_i_glide_lipo>  (419) 
-0.645554

>  <r_i_glide_hbond>  (419) 
-0.136296

>  <r_i_glide_metal>  (419) 
-0

>  <r_i_glide_rewards>  (419) 
-1.4019

>  <r_i_glide_evdw>  (419) 
-20.8848

>  <r_i_glide_ecoul>  (419) 
-1.36212

>  <r_i_glide_erotb>  (419) 
0

>  <r_i_glide_esite>  (419) 
-0.00680354

>  <r_i_glide_emodel>  (419) 
-26.8409

>  <r_i_glide_energy>  (419) 
-22.2469

>  <r_i_glide_einternal>  (419) 
0

>  <r_i_glide_intrahb_reward>  (419) 
-0

>  <i_i_glide_confnum>  (419) 
1

>  <i_i_glide_posenum>  (419) 
2

>  <r_i_glide_eff_state_penalty>  (419) 
0

>  <ligand_id>  (419) 
113

>  <original_smiles>  (419) 
CC1=CC2C3=CC(C)(C)C(=O)C2C(C)(C1)Oc1ccccc13

>  <smiles>  (419) 
[H]C1=C(C([H])([H])[H])C([H])([H])C2(C([H])([H])[H])Oc3c([H])c([H])c([H])c([H])c3C3=C([H])C(C([H])([H])[H])(C([H])([H])[H])C(=O)C2([H])C13[H]

$$$$
113:0:1
     RDKit          3D

 44 47  0  0  1  0  0  0  0  0999 V2000
    8.0977   -3.4494   -1.1344 C   0  0  0  0  0  0  0  0  0  0  0  0
    6.9110   -3.0854   -0.2782 C   0  0  0  0  0  0  0  0  0  0  0  0
    6.6984   -1.8241    0.1232 C   0  0  0  0  0  0  0  0  0  0  0  0
    5.5589   -1.3964    1.0206 C   0  0  1  0  0  0  0  0  0  0  0  0
    4.3686   -0.8398    0.2674 C   0  0  0  0  0  0  0  0  0  0  0  0
    3.2676   -0.5101    0.9654 C   0  0  0  0  0  0  0  0  0  0  0  0
    3.0970   -0.8143    2.4484 C   0  0  0  0  0  0  0  0  0  0  0  0
    3.6094    0.3533    3.3125 C   0  0  0  0  0  0  0  0  0  0  0  0
    1.5957   -1.0635    2.7200 C   0  0  0  0  0  0  0  0  0  0  0  0
    3.8721   -2.1184    2.7674 C   0  0  0  0  0  0  0  0  0  0  0  0
    3.6237   -2.7592    3.7876 O   0  0  0  0  0  0  0  0  0  0  0  0
    5.0125   -2.5748    1.8271 C   0  0  1  0  0  0  0  0  0  0  0  0
    4.6744   -3.7602    0.8531 C   0  0  2  0  0  0  0  0  0  0  0  0
    4.0899   -4.9722    1.6047 C   0  0  0  0  0  0  0  0  0  0  0  0
    5.9803   -4.2189    0.1366 C   0  0  0  0  0  0  0  0  0  0  0  0
    3.6268   -3.5050   -0.1158 O   0  0  0  0  0  0  0  0  0  0  0  0
    3.8409   -2.6856   -1.2126 C   0  0  0  0  0  0  0  0  0  0  0  0
    3.6413   -3.2195   -2.4963 C   0  0  0  0  0  0  0  0  0  0  0  0
    3.8076   -2.4407   -3.6519 C   0  0  0  0  0  0  0  0  0  0  0  0
    4.1740   -1.0924   -3.5307 C   0  0  0  0  0  0  0  0  0  0  0  0
    4.3740   -0.5428   -2.2575 C   0  0  0  0  0  0  0  0  0  0  0  0
    4.1897   -1.3206   -1.1006 C   0  0  0  0  0  0  0  0  0  0  0  0
    8.7032   -4.2240   -0.6527 H   0  0  0  0  0  0  0  0  0  0  0  0
    8.7364   -2.5946   -1.3427 H   0  0  0  0  0  0  0  0  0  0  0  0
    7.7570   -3.8356   -2.1026 H   0  0  0  0  0  0  0  0  0  0  0  0
    7.3797   -1.0479   -0.1654 H   0  0  0  0  0  0  0  0  0  0  0  0
    5.9386   -0.6373    1.7010 H   0  0  0  0  0  0  0  0  0  0  0  0
    2.3401   -0.2836    0.4585 H   0  0  0  0  0  0  0  0  0  0  0  0
    4.6601    0.5397    3.1293 H   0  0  0  0  0  0  0  0  0  0  0  0
    3.5033    0.1408    4.3775 H   0  0  0  0  0  0  0  0  0  0  0  0
    3.0740    1.2783    3.0923 H   0  0  0  0  0  0  0  0  0  0  0  0
    1.2346   -1.9091    2.1283 H   0  0  0  0  0  0  0  0  0  0  0  0
    0.9773   -0.2048    2.4453 H   0  0  0  0  0  0  0  0  0  0  0  0
    1.3938   -1.3004    3.7694 H   0  0  0  0  0  0  0  0  0  0  0  0
    5.8130   -2.9119    2.4885 H   0  0  0  0  0  0  0  0  0  0  0  0
    4.7302   -5.2886    2.4304 H   0  0  0  0  0  0  0  0  0  0  0  0
    3.9722   -5.8241    0.9312 H   0  0  0  0  0  0  0  0  0  0  0  0
    3.0995   -4.7566    2.0094 H   0  0  0  0  0  0  0  0  0  0  0  0
    5.7365   -4.8388   -0.7283 H   0  0  0  0  0  0  0  0  0  0  0  0
    6.5613   -4.8361    0.8215 H   0  0  0  0  0  0  0  0  0  0  0  0
    3.3760   -4.2527   -2.5792 H   0  0  0  0  0  0  0  0  0  0  0  0
    3.6570   -2.8841   -4.6218 H   0  0  0  0  0  0  0  0  0  0  0  0
    4.2979   -0.4669   -4.4037 H   0  0  0  0  0  0  0  0  0  0  0  0
    4.6180    0.5028   -2.1914 H   0  0  0  0  0  0  0  0  0  0  0  0
  1  2  1  0
  1 23  1  0
  1 24  1  0
  1 25  1  0
  2 15  1  0
  2  3  2  0
  3  4  1  0
  3 26  1  0
  4 12  1  0
  4  5  1  0
  4 27  1  1
  5 22  1  0
  5  6  2  0
  6  7  1  0
  6 28  1  0
  7  8  1  0
  7  9  1  0
  7 10  1  0
  8 29  1  0
  8 30  1  0
  8 31  1  0
  9 32  1  0
  9 33  1  0
  9 34  1  0
 10 11  2  0
 10 12  1  0
 12 13  1  0
 12 35  1  1
 13 14  1  1
 13 15  1  0
 13 16  1  0
 14 36  1  0
 14 37  1  0
 14 38  1  0
 15 39  1  0
 15 40  1  0
 16 17  1  0
 17 22  2  0
 17 18  1  0
 18 19  2  0
 18 41  1  0
 19 20  1  0
 19 42  1  0
 20 21  2  0
 20 43  1  0
 21 22  1  0
 21 44  1  0
M  END
>  <i_m_ct_stereo_status>  (420) 
1

>  <s_m_source_file>  (420) 
/var/tmp/pbs.5076255.sched01/tmpg_ssl3dq/162k0u29fl7.sdf

>  <i_m_source_file_index>  (420) 
36

>  <i_lp_mmshare_version>  (420) 
48012

>  <i_f3d_flags>  (420) 
0

>  <s_epik_input>  (420) 
W0NIM11DKFtDSDJdMSk9W0NIXVtDQEBIXShbQ0BIXTJbQ0BdMTNbQ0gzXSlDKD1bQ0hdQyhbQ0gzXSkoW0NIM10pQzI9TyljNGMoTzMpW2NIXVtjSF1bY0hdW2NIXTQ=

>  <s_epik_cmdline>  (420) 
J2VwaWtfcHl0aG9uJywgJy1waHQnLCAnMi4wJywgJy1waCcsICc3LjAnLCAnLXRuJywgJzgnLCAnLW1hJywgJzIwMCcsICctaW1hZScsICc8aW5maWxlLm1hZT4nLCAnLW9tYWUnLCAnPG91dGZpbGUubWFlPic=

>  <r_lp_tautomer_probability>  (420) 
1

>  <r_epik_Ionization_Penalty>  (420) 
3.43222e-12

>  <r_epik_Ionization_Penalty_Charging>  (420) 
0

>  <r_epik_Ionization_Penalty_Neutral>  (420) 
3.43222e-12

>  <r_epik_State_Penalty>  (420) 
-0

>  <r_epik_Charging_Adjusted_Penalty>  (420) 
0

>  <i_epik_Tot_Q>  (420) 
0

>  <i_epik_Tot_abs_Q>  (420) 
0

>  <s_lp_Force_Field>  (420) 
OPLS3e

>  <r_lp_Energy>  (420) 
50.7519

>  <b_lp_Chiralities_Consistent>  (420) 
1

>  <s_lp_Variant>  (420) 
113:0-1

>  <s_i_glide_gridfile>  (420) 
pfpi4k_grid

>  <i_i_glide_lignum>  (420) 
36

>  <i_i_glide_rotatable_bonds>  (420) 
0

>  <r_i_docking_score>  (420) 
-3.41041

>  <r_i_glide_ligand_efficiency>  (420) 
-0.155019

>  <r_i_glide_ligand_efficiency_sa>  (420) 
-0.434368

>  <r_i_glide_ligand_efficiency_ln>  (420) 
-0.833629

>  <r_i_glide_gscore>  (420) 
-3.41041

>  <r_i_glide_lipo>  (420) 
-0.826136

>  <r_i_glide_hbond>  (420) 
0

>  <r_i_glide_metal>  (420) 
-0

>  <r_i_glide_rewards>  (420) 
-1.4019

>  <r_i_glide_evdw>  (420) 
-22.9451

>  <r_i_glide_ecoul>  (420) 
-0.233874

>  <r_i_glide_erotb>  (420) 
0

>  <r_i_glide_esite>  (420) 
-3.4558e-05

>  <r_i_glide_emodel>  (420) 
-27.6662

>  <r_i_glide_energy>  (420) 
-23.179

>  <r_i_glide_einternal>  (420) 
0

>  <r_i_glide_intrahb_reward>  (420) 
-0

>  <i_i_glide_confnum>  (420) 
2

>  <i_i_glide_posenum>  (420) 
17

>  <r_i_glide_eff_state_penalty>  (420) 
0

>  <ligand_id>  (420) 
113

>  <original_smiles>  (420) 
CC1=CC2C3=CC(C)(C)C(=O)C2C(C)(C1)Oc1ccccc13

>  <smiles>  (420) 
[H]C1=C(C([H])([H])[H])C([H])([H])C2(C([H])([H])[H])Oc3c([H])c([H])c([H])c([H])c3C3=C([H])C(C([H])([H])[H])(C([H])([H])[H])C(=O)C2([H])C13[H]

$$$$
113:0:2
     RDKit          3D

 44 47  0  0  1  0  0  0  0  0999 V2000
    8.1166   -3.7354   -0.4226 C   0  0  0  0  0  0  0  0  0  0  0  0
    6.8740   -3.7116    0.4459 C   0  0  0  0  0  0  0  0  0  0  0  0
    6.5855   -2.6654    1.2365 C   0  0  0  0  0  0  0  0  0  0  0  0
    5.3872   -2.6287    2.1691 C   0  0  1  0  0  0  0  0  0  0  0  0
    4.2158   -1.8574    1.5984 C   0  0  0  0  0  0  0  0  0  0  0  0
    3.0623   -1.8150    2.2854 C   0  0  0  0  0  0  0  0  0  0  0  0
    2.8395   -2.6306    3.5558 C   0  0  0  0  0  0  0  0  0  0  0  0
    3.2632   -1.8518    4.8127 C   0  0  0  0  0  0  0  0  0  0  0  0
    1.3369   -2.9835    3.6441 C   0  0  0  0  0  0  0  0  0  0  0  0
    3.6382   -3.9616    3.4381 C   0  0  0  0  0  0  0  0  0  0  0  0
    3.3546   -4.9337    4.1386 O   0  0  0  0  0  0  0  0  0  0  0  0
    4.8423   -4.0292    2.4658 C   0  0  1  0  0  0  0  0  0  0  0  0
    4.5961   -4.7831    1.1080 C   0  0  2  0  0  0  0  0  0  0  0  0
    4.0196   -6.1962    1.3342 C   0  0  0  0  0  0  0  0  0  0  0  0
    5.9579   -4.9337    0.3658 C   0  0  0  0  0  0  0  0  0  0  0  0
    3.5995   -4.2117    0.2277 O   0  0  0  0  0  0  0  0  0  0  0  0
    3.8386   -3.0496   -0.4836 C   0  0  0  0  0  0  0  0  0  0  0  0
    3.7292   -3.0836   -1.8837 C   0  0  0  0  0  0  0  0  0  0  0  0
    3.9514   -1.9237   -2.6471 C   0  0  0  0  0  0  0  0  0  0  0  0
    4.2755   -0.7101   -2.0061 C   0  0  0  0  0  0  0  0  0  0  0  0
    4.3715   -0.6632   -0.5990 C   0  0  0  0  0  0  0  0  0  0  0  0
    4.1315   -1.8201    0.1553 C   0  0  0  0  0  0  0  0  0  0  0  0
    8.7114   -4.6230   -0.2063 H   0  0  0  0  0  0  0  0  0  0  0  0
    8.7384   -2.8548   -0.2569 H   0  0  0  0  0  0  0  0  0  0  0  0
    7.8397   -3.7544   -1.4767 H   0  0  0  0  0  0  0  0  0  0  0  0
    7.2319   -1.7990    1.2615 H   0  0  0  0  0  0  0  0  0  0  0  0
    5.7083   -2.1701    3.1025 H   0  0  0  0  0  0  0  0  0  0  0  0
    2.1679   -1.4463    1.7999 H   0  0  0  0  0  0  0  0  0  0  0  0
    4.3218   -1.5957    4.7805 H   0  0  0  0  0  0  0  0  0  0  0  0
    3.1042   -2.4406    5.7185 H   0  0  0  0  0  0  0  0  0  0  0  0
    2.7058   -0.9214    4.9163 H   0  0  0  0  0  0  0  0  0  0  0  0
    1.0384   -3.5694    2.7720 H   0  0  0  0  0  0  0  0  0  0  0  0
    0.7059   -2.0921    3.6586 H   0  0  0  0  0  0  0  0  0  0  0  0
    1.0932   -3.5833    4.5246 H   0  0  0  0  0  0  0  0  0  0  0  0
    5.6167   -4.5763    3.0016 H   0  0  0  0  0  0  0  0  0  0  0  0
    4.6235   -6.7826    2.0294 H   0  0  0  0  0  0  0  0  0  0  0  0
    3.9645   -6.7448    0.3904 H   0  0  0  0  0  0  0  0  0  0  0  0
    3.0026   -6.1530    1.7294 H   0  0  0  0  0  0  0  0  0  0  0  0
    5.7746   -5.1922   -0.6801 H   0  0  0  0  0  0  0  0  0  0  0  0
    6.5204   -5.7576    0.8086 H   0  0  0  0  0  0  0  0  0  0  0  0
    3.4792   -4.0072   -2.3734 H   0  0  0  0  0  0  0  0  0  0  0  0
    3.8605   -1.9700   -3.7223 H   0  0  0  0  0  0  0  0  0  0  0  0
    4.4141    0.1823   -2.5934 H   0  0  0  0  0  0  0  0  0  0  0  0
    4.5821    0.2566   -0.0780 H   0  0  0  0  0  0  0  0  0  0  0  0
  1  2  1  0
  1 23  1  0
  1 24  1  0
  1 25  1  0
  2 15  1  0
  2  3  2  0
  3  4  1  0
  3 26  1  0
  4 12  1  0
  4  5  1  0
  4 27  1  1
  5 22  1  0
  5  6  2  0
  6  7  1  0
  6 28  1  0
  7  8  1  0
  7  9  1  0
  7 10  1  0
  8 29  1  0
  8 30  1  0
  8 31  1  0
  9 32  1  0
  9 33  1  0
  9 34  1  0
 10 11  2  0
 10 12  1  0
 12 13  1  0
 12 35  1  1
 13 14  1  1
 13 15  1  0
 13 16  1  0
 14 36  1  0
 14 37  1  0
 14 38  1  0
 15 39  1  0
 15 40  1  0
 16 17  1  0
 17 22  2  0
 17 18  1  0
 18 19  2  0
 18 41  1  0
 19 20  1  0
 19 42  1  0
 20 21  2  0
 20 43  1  0
 21 22  1  0
 21 44  1  0
M  END
>  <i_m_ct_stereo_status>  (421) 
1

>  <s_m_source_file>  (421) 
/var/tmp/pbs.5076255.sched01/tmpg_ssl3dq/162k0u29fl7.sdf

>  <i_m_source_file_index>  (421) 
36

>  <i_lp_mmshare_version>  (421) 
48012

>  <i_f3d_flags>  (421) 
0

>  <s_epik_input>  (421) 
W0NIM11DKFtDSDJdMSk9W0NIXVtDQEBIXShbQ0BIXTJbQ0BdMTNbQ0gzXSlDKD1bQ0hdQyhbQ0gzXSkoW0NIM10pQzI9TyljNGMoTzMpW2NIXVtjSF1bY0hdW2NIXTQ=

>  <s_epik_cmdline>  (421) 
J2VwaWtfcHl0aG9uJywgJy1waHQnLCAnMi4wJywgJy1waCcsICc3LjAnLCAnLXRuJywgJzgnLCAnLW1hJywgJzIwMCcsICctaW1hZScsICc8aW5maWxlLm1hZT4nLCAnLW9tYWUnLCAnPG91dGZpbGUubWFlPic=

>  <r_lp_tautomer_probability>  (421) 
1

>  <r_epik_Ionization_Penalty>  (421) 
3.43222e-12

>  <r_epik_Ionization_Penalty_Charging>  (421) 
0

>  <r_epik_Ionization_Penalty_Neutral>  (421) 
3.43222e-12

>  <r_epik_State_Penalty>  (421) 
-0

>  <r_epik_Charging_Adjusted_Penalty>  (421) 
0

>  <i_epik_Tot_Q>  (421) 
0

>  <i_epik_Tot_abs_Q>  (421) 
0

>  <s_lp_Force_Field>  (421) 
OPLS3e

>  <r_lp_Energy>  (421) 
50.7519

>  <b_lp_Chiralities_Consistent>  (421) 
1

>  <s_lp_Variant>  (421) 
113:0-1

>  <s_i_glide_gridfile>  (421) 
pfpi4k_grid

>  <i_i_glide_lignum>  (421) 
36

>  <i_i_glide_rotatable_bonds>  (421) 
0

>  <r_i_docking_score>  (421) 
-3.18871

>  <r_i_glide_ligand_efficiency>  (421) 
-0.144941

>  <r_i_glide_ligand_efficiency_sa>  (421) 
-0.406131

>  <r_i_glide_ligand_efficiency_ln>  (421) 
-0.779436

>  <r_i_glide_gscore>  (421) 
-3.18871

>  <r_i_glide_lipo>  (421) 
-0.673931

>  <r_i_glide_hbond>  (421) 
0

>  <r_i_glide_metal>  (421) 
-0

>  <r_i_glide_rewards>  (421) 
-1.4019

>  <r_i_glide_evdw>  (421) 
-20.0346

>  <r_i_glide_ecoul>  (421) 
-0.740942

>  <r_i_glide_erotb>  (421) 
0

>  <r_i_glide_esite>  (421) 
0

>  <r_i_glide_emodel>  (421) 
-25.044

>  <r_i_glide_energy>  (421) 
-20.7756

>  <r_i_glide_einternal>  (421) 
0

>  <r_i_glide_intrahb_reward>  (421) 
-0

>  <i_i_glide_confnum>  (421) 
1

>  <i_i_glide_posenum>  (421) 
23

>  <r_i_glide_eff_state_penalty>  (421) 
0

>  <ligand_id>  (421) 
113

>  <original_smiles>  (421) 
CC1=CC2C3=CC(C)(C)C(=O)C2C(C)(C1)Oc1ccccc13

>  <smiles>  (421) 
[H]C1=C(C([H])([H])[H])C([H])([H])C2(C([H])([H])[H])Oc3c([H])c([H])c([H])c([H])c3C3=C([H])C(C([H])([H])[H])(C([H])([H])[H])C(=O)C2([H])C13[H]

$$$$
113:1:0
     RDKit          3D

 44 47  0  0  1  0  0  0  0  0999 V2000
   -1.5913    3.8962    3.4980 C   0  0  0  0  0  0  0  0  0  0  0  0
   -0.7413    2.7103    3.9073 C   0  0  0  0  0  0  0  0  0  0  0  0
    0.4924    2.8541    4.5166 C   0  0  0  0  0  0  0  0  0  0  0  0
    1.1886    1.6351    5.1716 C   0  0  2  0  0  0  0  0  0  0  0  0
    2.5202    0.8641    5.0221 C   0  0  0  0  0  0  0  0  0  0  0  0
    2.6999    0.0241    6.0915 C   0  0  0  0  0  0  0  0  0  0  0  0
    1.4779   -0.5084    6.9391 C   0  0  0  0  0  0  0  0  0  0  0  0
    1.6687   -2.0277    7.1506 C   0  0  0  0  0  0  0  0  0  0  0  0
    1.4001    0.1856    8.3152 C   0  0  0  0  0  0  0  0  0  0  0  0
    0.1259   -0.3278    6.1252 C   0  0  0  0  0  0  0  0  0  0  0  0
   -0.9670   -0.7823    6.4703 O   0  0  0  0  0  0  0  0  0  0  0  0
    0.3500    0.5013    4.8581 C   0  0  1  0  0  0  0  0  0  0  0  0
    0.0569    0.4939    3.3095 C   0  0  2  0  0  0  0  0  0  0  0  0
    0.7332    1.3442    2.1106 C   0  0  0  0  0  0  0  0  0  0  0  0
   -1.2569    1.2870    3.4431 C   0  0  0  0  0  0  0  0  0  0  0  0
    0.6368   -0.7615    2.9023 O   0  0  0  0  0  0  0  0  0  0  0  0
    2.0653   -0.7402    2.9244 C   0  0  0  0  0  0  0  0  0  0  0  0
    2.6681   -1.5535    1.9439 C   0  0  0  0  0  0  0  0  0  0  0  0
    4.0525   -1.5163    1.7107 C   0  0  0  0  0  0  0  0  0  0  0  0
    4.8732   -0.6610    2.4621 C   0  0  0  0  0  0  0  0  0  0  0  0
    4.3142    0.1405    3.4716 C   0  0  0  0  0  0  0  0  0  0  0  0
    2.9310    0.1183    3.7536 C   0  0  0  0  0  0  0  0  0  0  0  0
   -1.7505    3.8946    2.4181 H   0  0  0  0  0  0  0  0  0  0  0  0
   -1.0929    4.8313    3.7599 H   0  0  0  0  0  0  0  0  0  0  0  0
   -2.5655    3.8626    3.9886 H   0  0  0  0  0  0  0  0  0  0  0  0
    0.8820    3.8307    4.7581 H   0  0  0  0  0  0  0  0  0  0  0  0
    1.1293    1.9496    6.2114 H   0  0  0  0  0  0  0  0  0  0  0  0
    3.4913   -0.7083    6.0334 H   0  0  0  0  0  0  0  0  0  0  0  0
    1.7158   -2.5479    6.1906 H   0  0  0  0  0  0  0  0  0  0  0  0
    0.8483   -2.4728    7.7166 H   0  0  0  0  0  0  0  0  0  0  0  0
    2.5955   -2.2534    7.6825 H   0  0  0  0  0  0  0  0  0  0  0  0
    1.2660    1.2634    8.2311 H   0  0  0  0  0  0  0  0  0  0  0  0
    2.3136    0.0300    8.8904 H   0  0  0  0  0  0  0  0  0  0  0  0
    0.5682   -0.1894    8.9131 H   0  0  0  0  0  0  0  0  0  0  0  0
    0.8397   -0.4562    4.8085 H   0  0  0  0  0  0  0  0  0  0  0  0
    0.1256    2.1424    1.6801 H   0  0  0  0  0  0  0  0  0  0  0  0
    0.9058    0.7337    1.2213 H   0  0  0  0  0  0  0  0  0  0  0  0
    1.6792    1.8258    2.3598 H   0  0  0  0  0  0  0  0  0  0  0  0
   -1.9597    0.8723    4.1694 H   0  0  0  0  0  0  0  0  0  0  0  0
   -1.7818    1.3524    2.4873 H   0  0  0  0  0  0  0  0  0  0  0  0
    2.0441   -2.1773    1.3226 H   0  0  0  0  0  0  0  0  0  0  0  0
    4.4825   -2.1363    0.9361 H   0  0  0  0  0  0  0  0  0  0  0  0
    5.9381   -0.6353    2.2751 H   0  0  0  0  0  0  0  0  0  0  0  0
    4.9708    0.7491    4.0774 H   0  0  0  0  0  0  0  0  0  0  0  0
  1  2  1  0
  1 23  1  0
  1 24  1  0
  1 25  1  0
  2 15  1  0
  2  3  2  0
  3  4  1  0
  3 26  1  0
  4 12  1  0
  4  5  1  0
  4 27  1  1
  5 22  1  0
  5  6  2  0
  6  7  1  0
  6 28  1  0
  7  8  1  0
  7  9  1  0
  7 10  1  0
  8 29  1  0
  8 30  1  0
  8 31  1  0
  9 32  1  0
  9 33  1  0
  9 34  1  0
 10 11  2  0
 10 12  1  0
 12 13  1  0
 12 35  1  1
 13 14  1  6
 13 15  1  0
 13 16  1  0
 14 36  1  0
 14 37  1  0
 14 38  1  0
 15 39  1  0
 15 40  1  0
 16 17  1  0
 17 22  2  0
 17 18  1  0
 18 19  2  0
 18 41  1  0
 19 20  1  0
 19 42  1  0
 20 21  2  0
 20 43  1  0
 21 22  1  0
 21 44  1  0
M  END
>  <i_m_ct_stereo_status>  (422) 
1

>  <s_m_source_file>  (422) 
/var/tmp/pbs.5076255.sched01/tmpg_ssl3dq/162k0u29fl7.sdf

>  <i_m_source_file_index>  (422) 
37

>  <i_lp_mmshare_version>  (422) 
48012

>  <i_f3d_flags>  (422) 
0

>  <s_epik_input>  (422) 
W0NIM11DKFtDSDJdMSk9W0NIXVtDQEBIXShbQ0BIXTJbQ0BdMTNbQ0gzXSlDKD1bQ0hdQyhbQ0gzXSkoW0NIM10pQzI9TyljNGMoTzMpW2NIXVtjSF1bY0hdW2NIXTQ=

>  <s_epik_cmdline>  (422) 
J2VwaWtfcHl0aG9uJywgJy1waHQnLCAnMi4wJywgJy1waCcsICc3LjAnLCAnLXRuJywgJzgnLCAnLW1hJywgJzIwMCcsICctaW1hZScsICc8aW5maWxlLm1hZT4nLCAnLW9tYWUnLCAnPG91dGZpbGUubWFlPic=

>  <r_lp_tautomer_probability>  (422) 
1

>  <r_epik_Ionization_Penalty>  (422) 
3.43222e-12

>  <r_epik_Ionization_Penalty_Charging>  (422) 
0

>  <r_epik_Ionization_Penalty_Neutral>  (422) 
3.43222e-12

>  <r_epik_State_Penalty>  (422) 
-0

>  <r_epik_Charging_Adjusted_Penalty>  (422) 
0

>  <i_epik_Tot_Q>  (422) 
0

>  <i_epik_Tot_abs_Q>  (422) 
0

>  <s_lp_Force_Field>  (422) 
OPLS3e

>  <r_lp_Energy>  (422) 
230.543

>  <b_lp_Chiralities_Consistent>  (422) 
1

>  <s_lp_Variant>  (422) 
113:0-2

>  <s_i_glide_gridfile>  (422) 
pfpi4k_grid

>  <i_i_glide_lignum>  (422) 
37

>  <i_i_glide_rotatable_bonds>  (422) 
0

>  <r_i_docking_score>  (422) 
-2.82073

>  <r_i_glide_ligand_efficiency>  (422) 
-0.128215

>  <r_i_glide_ligand_efficiency_sa>  (422) 
-0.359263

>  <r_i_glide_ligand_efficiency_ln>  (422) 
-0.689489

>  <r_i_glide_gscore>  (422) 
-2.82073

>  <r_i_glide_lipo>  (422) 
-0.122721

>  <r_i_glide_hbond>  (422) 
-0.0603583

>  <r_i_glide_metal>  (422) 
-0

>  <r_i_glide_rewards>  (422) 
-1.4019

>  <r_i_glide_evdw>  (422) 
-19.0971

>  <r_i_glide_ecoul>  (422) 
-1.73873

>  <r_i_glide_erotb>  (422) 
0

>  <r_i_glide_esite>  (422) 
-0.0200803

>  <r_i_glide_emodel>  (422) 
-25.0054

>  <r_i_glide_energy>  (422) 
-20.8359

>  <r_i_glide_einternal>  (422) 
0

>  <r_i_glide_intrahb_reward>  (422) 
-0

>  <i_i_glide_confnum>  (422) 
1

>  <i_i_glide_posenum>  (422) 
3

>  <r_i_glide_eff_state_penalty>  (422) 
0

>  <ligand_id>  (422) 
113

>  <original_smiles>  (422) 
CC1=CC2C3=CC(C)(C)C(=O)C2C(C)(C1)Oc1ccccc13

>  <smiles>  (422) 
[H]C1=C(C([H])([H])[H])C([H])([H])C2(C([H])([H])[H])Oc3c([H])c([H])c([H])c([H])c3C3=C([H])C(C([H])([H])[H])(C([H])([H])[H])C(=O)C2([H])C13[H]

$$$$
113:1:1
     RDKit          3D

 44 47  0  0  1  0  0  0  0  0999 V2000
   -0.2761    1.1472    2.4644 C   0  0  0  0  0  0  0  0  0  0  0  0
   -0.2469    2.0574    3.6762 C   0  0  0  0  0  0  0  0  0  0  0  0
    0.7634    2.0031    4.6192 C   0  0  0  0  0  0  0  0  0  0  0  0
    0.9105    3.1222    5.6805 C   0  0  2  0  0  0  0  0  0  0  0  0
    0.9000    3.2453    7.2232 C   0  0  0  0  0  0  0  0  0  0  0  0
    1.3651    4.4797    7.5987 C   0  0  0  0  0  0  0  0  0  0  0  0
    1.2863    5.7225    6.6275 C   0  0  0  0  0  0  0  0  0  0  0  0
    0.7396    6.9273    7.4292 C   0  0  0  0  0  0  0  0  0  0  0  0
    2.6735    6.0855    6.0550 C   0  0  0  0  0  0  0  0  0  0  0  0
    0.2377    5.4397    5.4708 C   0  0  0  0  0  0  0  0  0  0  0  0
   -0.1798    6.2838    4.6835 O   0  0  0  0  0  0  0  0  0  0  0  0
   -0.2286    3.9845    5.4795 C   0  0  1  0  0  0  0  0  0  0  0  0
   -1.5401    3.1112    5.4399 C   0  0  2  0  0  0  0  0  0  0  0  0
   -1.7670    1.5586    5.8413 C   0  0  0  0  0  0  0  0  0  0  0  0
   -1.5299    2.9595    3.9042 C   0  0  0  0  0  0  0  0  0  0  0  0
   -2.2835    3.6310    6.5606 O   0  0  0  0  0  0  0  0  0  0  0  0
   -1.7162    3.2540    7.8174 C   0  0  0  0  0  0  0  0  0  0  0  0
   -2.6628    3.0885    8.8469 C   0  0  0  0  0  0  0  0  0  0  0  0
   -2.3006    2.5494   10.0902 C   0  0  0  0  0  0  0  0  0  0  0  0
   -0.9759    2.1598   10.3370 C   0  0  0  0  0  0  0  0  0  0  0  0
    0.0054    2.3373    9.3482 C   0  0  0  0  0  0  0  0  0  0  0  0
   -0.3084    2.9023    8.0925 C   0  0  0  0  0  0  0  0  0  0  0  0
   -1.1731    0.5273    2.4757 H   0  0  0  0  0  0  0  0  0  0  0  0
    0.5964    0.4923    2.4459 H   0  0  0  0  0  0  0  0  0  0  0  0
   -0.2766    1.7343    1.5446 H   0  0  0  0  0  0  0  0  0  0  0  0
    1.6005    1.3336    4.4950 H   0  0  0  0  0  0  0  0  0  0  0  0
    1.8521    3.5498    5.3424 H   0  0  0  0  0  0  0  0  0  0  0  0
    1.2441    4.7802    8.6297 H   0  0  0  0  0  0  0  0  0  0  0  0
   -0.2497    6.7050    7.8362 H   0  0  0  0  0  0  0  0  0  0  0  0
    0.6402    7.8251    6.8148 H   0  0  0  0  0  0  0  0  0  0  0  0
    1.3838    7.1810    8.2738 H   0  0  0  0  0  0  0  0  0  0  0  0
    3.1084    5.2752    5.4722 H   0  0  0  0  0  0  0  0  0  0  0  0
    3.3845    6.3155    6.8506 H   0  0  0  0  0  0  0  0  0  0  0  0
    2.6250    6.9542    5.3950 H   0  0  0  0  0  0  0  0  0  0  0  0
   -0.5749    4.5331    6.3383 H   0  0  0  0  0  0  0  0  0  0  0  0
   -1.9254    0.8669    5.0128 H   0  0  0  0  0  0  0  0  0  0  0  0
   -2.6846    1.4144    6.4137 H   0  0  0  0  0  0  0  0  0  0  0  0
   -0.9630    1.1159    6.4273 H   0  0  0  0  0  0  0  0  0  0  0  0
   -1.4358    3.9030    3.3597 H   0  0  0  0  0  0  0  0  0  0  0  0
   -2.4323    2.4646    3.5363 H   0  0  0  0  0  0  0  0  0  0  0  0
   -3.6973    3.3412    8.6658 H   0  0  0  0  0  0  0  0  0  0  0  0
   -3.0404    2.4182   10.8680 H   0  0  0  0  0  0  0  0  0  0  0  0
   -0.7170    1.7473   11.3023 H   0  0  0  0  0  0  0  0  0  0  0  0
    1.0320    2.0935    9.5829 H   0  0  0  0  0  0  0  0  0  0  0  0
  1  2  1  0
  1 23  1  0
  1 24  1  0
  1 25  1  0
  2 15  1  0
  2  3  2  0
  3  4  1  0
  3 26  1  0
  4 12  1  0
  4  5  1  0
  4 27  1  6
  5 22  1  0
  5  6  2  0
  6  7  1  0
  6 28  1  0
  7  8  1  0
  7  9  1  0
  7 10  1  0
  8 29  1  0
  8 30  1  0
  8 31  1  0
  9 32  1  0
  9 33  1  0
  9 34  1  0
 10 11  2  0
 10 12  1  0
 12 13  1  0
 12 35  1  6
 13 14  1  1
 13 15  1  0
 13 16  1  0
 14 36  1  0
 14 37  1  0
 14 38  1  0
 15 39  1  0
 15 40  1  0
 16 17  1  0
 17 22  2  0
 17 18  1  0
 18 19  2  0
 18 41  1  0
 19 20  1  0
 19 42  1  0
 20 21  2  0
 20 43  1  0
 21 22  1  0
 21 44  1  0
M  END
>  <i_m_ct_stereo_status>  (423) 
1

>  <s_m_source_file>  (423) 
/var/tmp/pbs.5076255.sched01/tmpg_ssl3dq/162k0u29fl7.sdf

>  <i_m_source_file_index>  (423) 
37

>  <i_lp_mmshare_version>  (423) 
48012

>  <i_f3d_flags>  (423) 
0

>  <s_epik_input>  (423) 
W0NIM11DKFtDSDJdMSk9W0NIXVtDQEBIXShbQ0BIXTJbQ0BdMTNbQ0gzXSlDKD1bQ0hdQyhbQ0gzXSkoW0NIM10pQzI9TyljNGMoTzMpW2NIXVtjSF1bY0hdW2NIXTQ=

>  <s_epik_cmdline>  (423) 
J2VwaWtfcHl0aG9uJywgJy1waHQnLCAnMi4wJywgJy1waCcsICc3LjAnLCAnLXRuJywgJzgnLCAnLW1hJywgJzIwMCcsICctaW1hZScsICc8aW5maWxlLm1hZT4nLCAnLW9tYWUnLCAnPG91dGZpbGUubWFlPic=

>  <r_lp_tautomer_probability>  (423) 
1

>  <r_epik_Ionization_Penalty>  (423) 
3.43222e-12

>  <r_epik_Ionization_Penalty_Charging>  (423) 
0

>  <r_epik_Ionization_Penalty_Neutral>  (423) 
3.43222e-12

>  <r_epik_State_Penalty>  (423) 
-0

>  <r_epik_Charging_Adjusted_Penalty>  (423) 
0

>  <i_epik_Tot_Q>  (423) 
0

>  <i_epik_Tot_abs_Q>  (423) 
0

>  <s_lp_Force_Field>  (423) 
OPLS3e

>  <r_lp_Energy>  (423) 
230.543

>  <b_lp_Chiralities_Consistent>  (423) 
1

>  <s_lp_Variant>  (423) 
113:0-2

>  <s_i_glide_gridfile>  (423) 
pfpi4k_grid

>  <i_i_glide_lignum>  (423) 
37

>  <i_i_glide_rotatable_bonds>  (423) 
0

>  <r_i_docking_score>  (423) 
-2.79303

>  <r_i_glide_ligand_efficiency>  (423) 
-0.126956

>  <r_i_glide_ligand_efficiency_sa>  (423) 
-0.355735

>  <r_i_glide_ligand_efficiency_ln>  (423) 
-0.682718

>  <r_i_glide_gscore>  (423) 
-2.79303

>  <r_i_glide_lipo>  (423) 
-0.0109377

>  <r_i_glide_hbond>  (423) 
-0.0138632

>  <r_i_glide_metal>  (423) 
-0

>  <r_i_glide_rewards>  (423) 
-1.4019

>  <r_i_glide_evdw>  (423) 
-19.2486

>  <r_i_glide_ecoul>  (423) 
-2.52296

>  <r_i_glide_erotb>  (423) 
0

>  <r_i_glide_esite>  (423) 
-0.0254501

>  <r_i_glide_emodel>  (423) 
-25.8979

>  <r_i_glide_energy>  (423) 
-21.7715

>  <r_i_glide_einternal>  (423) 
0

>  <r_i_glide_intrahb_reward>  (423) 
-0

>  <i_i_glide_confnum>  (423) 
2

>  <i_i_glide_posenum>  (423) 
28

>  <r_i_glide_eff_state_penalty>  (423) 
0

>  <ligand_id>  (423) 
113

>  <original_smiles>  (423) 
CC1=CC2C3=CC(C)(C)C(=O)C2C(C)(C1)Oc1ccccc13

>  <smiles>  (423) 
[H]C1=C(C([H])([H])[H])C([H])([H])C2(C([H])([H])[H])Oc3c([H])c([H])c([H])c([H])c3C3=C([H])C(C([H])([H])[H])(C([H])([H])[H])C(=O)C2([H])C13[H]

$$$$
113:1:2
     RDKit          3D

 44 47  0  0  1  0  0  0  0  0999 V2000
    2.6745   -0.4398    1.8093 C   0  0  0  0  0  0  0  0  0  0  0  0
    2.2530    0.7166    2.6961 C   0  0  0  0  0  0  0  0  0  0  0  0
    2.6200    0.8046    4.0254 C   0  0  0  0  0  0  0  0  0  0  0  0
    2.4113    2.1236    4.8095 C   0  0  2  0  0  0  0  0  0  0  0  0
    1.6487    2.5927    6.0707 C   0  0  0  0  0  0  0  0  0  0  0  0
    2.0749    3.8416    6.4396 C   0  0  0  0  0  0  0  0  0  0  0  0
    2.7254    4.8350    5.3979 C   0  0  0  0  0  0  0  0  0  0  0  0
    2.0794    6.2256    5.5947 C   0  0  0  0  0  0  0  0  0  0  0  0
    4.2497    4.9522    5.6063 C   0  0  0  0  0  0  0  0  0  0  0  0
    2.3803    4.3814    3.9158 C   0  0  0  0  0  0  0  0  0  0  0  0
    2.6281    5.0446    2.9109 O   0  0  0  0  0  0  0  0  0  0  0  0
    1.7102    3.0032    3.9022 C   0  0  1  0  0  0  0  0  0  0  0  0
    0.4601    2.2404    3.3149 C   0  0  2  0  0  0  0  0  0  0  0  0
   -0.2170    0.8376    3.7598 C   0  0  0  0  0  0  0  0  0  0  0  0
    1.2180    1.7404    2.0709 C   0  0  0  0  0  0  0  0  0  0  0  0
   -0.6391    3.0509    3.7796 O   0  0  0  0  0  0  0  0  0  0  0  0
   -0.8583    2.9242    5.1848 C   0  0  0  0  0  0  0  0  0  0  0  0
   -2.2056    3.0658    5.5677 C   0  0  0  0  0  0  0  0  0  0  0  0
   -2.6277    2.7976    6.8793 C   0  0  0  0  0  0  0  0  0  0  0  0
   -1.7019    2.3783    7.8474 C   0  0  0  0  0  0  0  0  0  0  0  0
   -0.3428    2.2550    7.5131 C   0  0  0  0  0  0  0  0  0  0  0  0
    0.1282    2.5414    6.2123 C   0  0  0  0  0  0  0  0  0  0  0  0
    1.8013   -0.9811    1.4401 H   0  0  0  0  0  0  0  0  0  0  0  0
    3.3018   -1.1437    2.3591 H   0  0  0  0  0  0  0  0  0  0  0  0
    3.2378   -0.0769    0.9493 H   0  0  0  0  0  0  0  0  0  0  0  0
    3.2665    0.0639    4.4716 H   0  0  0  0  0  0  0  0  0  0  0  0
    3.4543    2.3921    4.9620 H   0  0  0  0  0  0  0  0  0  0  0  0
    1.5096    4.3731    7.1916 H   0  0  0  0  0  0  0  0  0  0  0  0
    0.9986    6.1744    5.4408 H   0  0  0  0  0  0  0  0  0  0  0  0
    2.4670    6.9648    4.8905 H   0  0  0  0  0  0  0  0  0  0  0  0
    2.2440    6.6142    6.6022 H   0  0  0  0  0  0  0  0  0  0  0  0
    4.7619    3.9999    5.4766 H   0  0  0  0  0  0  0  0  0  0  0  0
    4.4897    5.3022    6.6118 H   0  0  0  0  0  0  0  0  0  0  0  0
    4.7009    5.6491    4.8972 H   0  0  0  0  0  0  0  0  0  0  0  0
    1.0826    3.7548    4.3497 H   0  0  0  0  0  0  0  0  0  0  0  0
   -0.0499   -0.0121    3.0969 H   0  0  0  0  0  0  0  0  0  0  0  0
   -1.3082    0.8886    3.7439 H   0  0  0  0  0  0  0  0  0  0  0  0
    0.0749    0.4803    4.7472 H   0  0  0  0  0  0  0  0  0  0  0  0
    1.7367    2.5335    1.5272 H   0  0  0  0  0  0  0  0  0  0  0  0
    0.5531    1.2479    1.3559 H   0  0  0  0  0  0  0  0  0  0  0  0
   -2.9372    3.3387    4.8222 H   0  0  0  0  0  0  0  0  0  0  0  0
   -3.6713    2.8990    7.1398 H   0  0  0  0  0  0  0  0  0  0  0  0
   -2.0336    2.1767    8.8566 H   0  0  0  0  0  0  0  0  0  0  0  0
    0.3628    1.9966    8.2900 H   0  0  0  0  0  0  0  0  0  0  0  0
  1  2  1  0
  1 23  1  0
  1 24  1  0
  1 25  1  0
  2 15  1  0
  2  3  2  0
  3  4  1  0
  3 26  1  0
  4 12  1  0
  4  5  1  0
  4 27  1  1
  5 22  1  0
  5  6  2  0
  6  7  1  0
  6 28  1  0
  7  8  1  0
  7  9  1  0
  7 10  1  0
  8 29  1  0
  8 30  1  0
  8 31  1  0
  9 32  1  0
  9 33  1  0
  9 34  1  0
 10 11  2  0
 10 12  1  0
 12 13  1  0
 12 35  1  6
 13 14  1  1
 13 15  1  0
 13 16  1  0
 14 36  1  0
 14 37  1  0
 14 38  1  0
 15 39  1  0
 15 40  1  0
 16 17  1  0
 17 22  2  0
 17 18  1  0
 18 19  2  0
 18 41  1  0
 19 20  1  0
 19 42  1  0
 20 21  2  0
 20 43  1  0
 21 22  1  0
 21 44  1  0
M  END
>  <i_m_ct_stereo_status>  (424) 
1

>  <s_m_source_file>  (424) 
/var/tmp/pbs.5076255.sched01/tmpg_ssl3dq/162k0u29fl7.sdf

>  <i_m_source_file_index>  (424) 
37

>  <i_lp_mmshare_version>  (424) 
48012

>  <i_f3d_flags>  (424) 
0

>  <s_epik_input>  (424) 
W0NIM11DKFtDSDJdMSk9W0NIXVtDQEBIXShbQ0BIXTJbQ0BdMTNbQ0gzXSlDKD1bQ0hdQyhbQ0gzXSkoW0NIM10pQzI9TyljNGMoTzMpW2NIXVtjSF1bY0hdW2NIXTQ=

>  <s_epik_cmdline>  (424) 
J2VwaWtfcHl0aG9uJywgJy1waHQnLCAnMi4wJywgJy1waCcsICc3LjAnLCAnLXRuJywgJzgnLCAnLW1hJywgJzIwMCcsICctaW1hZScsICc8aW5maWxlLm1hZT4nLCAnLW9tYWUnLCAnPG91dGZpbGUubWFlPic=

>  <r_lp_tautomer_probability>  (424) 
1

>  <r_epik_Ionization_Penalty>  (424) 
3.43222e-12

>  <r_epik_Ionization_Penalty_Charging>  (424) 
0

>  <r_epik_Ionization_Penalty_Neutral>  (424) 
3.43222e-12

>  <r_epik_State_Penalty>  (424) 
-0

>  <r_epik_Charging_Adjusted_Penalty>  (424) 
0

>  <i_epik_Tot_Q>  (424) 
0

>  <i_epik_Tot_abs_Q>  (424) 
0

>  <s_lp_Force_Field>  (424) 
OPLS3e

>  <r_lp_Energy>  (424) 
230.543

>  <b_lp_Chiralities_Consistent>  (424) 
1

>  <s_lp_Variant>  (424) 
113:0-2

>  <s_i_glide_gridfile>  (424) 
pfpi4k_grid

>  <i_i_glide_lignum>  (424) 
37

>  <i_i_glide_rotatable_bonds>  (424) 
0

>  <r_i_docking_score>  (424) 
-2.66679

>  <r_i_glide_ligand_efficiency>  (424) 
-0.121218

>  <r_i_glide_ligand_efficiency_sa>  (424) 
-0.339657

>  <r_i_glide_ligand_efficiency_ln>  (424) 
-0.651862

>  <r_i_glide_gscore>  (424) 
-2.66679

>  <r_i_glide_lipo>  (424) 
-0.172887

>  <r_i_glide_hbond>  (424) 
0

>  <r_i_glide_metal>  (424) 
-0

>  <r_i_glide_rewards>  (424) 
-1.4019

>  <r_i_glide_evdw>  (424) 
-22.9317

>  <r_i_glide_ecoul>  (424) 
0.500699

>  <r_i_glide_erotb>  (424) 
0

>  <r_i_glide_esite>  (424) 
-0.0205239

>  <r_i_glide_emodel>  (424) 
-26.3668

>  <r_i_glide_energy>  (424) 
-22.431

>  <r_i_glide_einternal>  (424) 
0

>  <r_i_glide_intrahb_reward>  (424) 
-0

>  <i_i_glide_confnum>  (424) 
2

>  <i_i_glide_posenum>  (424) 
39

>  <r_i_glide_eff_state_penalty>  (424) 
0

>  <ligand_id>  (424) 
113

>  <original_smiles>  (424) 
CC1=CC2C3=CC(C)(C)C(=O)C2C(C)(C1)Oc1ccccc13

>  <smiles>  (424) 
[H]C1=C(C([H])([H])[H])C([H])([H])C2(C([H])([H])[H])Oc3c([H])c([H])c([H])c([H])c3C3=C([H])C(C([H])([H])[H])(C([H])([H])[H])C(=O)C2([H])C13[H]

$$$$
113:2:0
     RDKit          3D

 44 47  0  0  1  0  0  0  0  0999 V2000
    6.7521   -6.8412    2.3207 C   0  0  0  0  0  0  0  0  0  0  0  0
    6.2058   -5.7031    1.4810 C   0  0  0  0  0  0  0  0  0  0  0  0
    5.4179   -5.8730    0.4110 C   0  0  0  0  0  0  0  0  0  0  0  0
    4.9473   -4.7246   -0.4530 C   0  0  1  0  0  0  0  0  0  0  0  0
    3.4886   -4.4297   -0.3861 C   0  0  0  0  0  0  0  0  0  0  0  0
    2.9815   -3.4898   -1.2203 C   0  0  0  0  0  0  0  0  0  0  0  0
    3.9319   -2.5924   -2.0589 C   0  0  0  0  0  0  0  0  0  0  0  0
    4.2067   -3.1282   -3.4677 C   0  0  0  0  0  0  0  0  0  0  0  0
    3.2727   -1.2209   -2.2084 C   0  0  0  0  0  0  0  0  0  0  0  0
    5.2676   -2.3759   -1.2595 C   0  0  0  0  0  0  0  0  0  0  0  0
    6.0773   -1.5025   -1.5373 O   0  0  0  0  0  0  0  0  0  0  0  0
    5.5139   -3.3630   -0.0985 C   0  0  2  0  0  0  0  0  0  0  0  0
    5.6260   -3.1872    1.4165 C   0  0  2  0  0  0  0  0  0  0  0  0
    6.2029   -1.7909    1.7398 C   0  0  0  0  0  0  0  0  0  0  0  0
    6.5310   -4.3113    1.9628 C   0  0  0  0  0  0  0  0  0  0  0  0
    4.3691   -3.2048    2.1607 O   0  0  0  0  0  0  0  0  0  0  0  0
    3.3607   -4.1690    2.0706 C   0  0  0  0  0  0  0  0  0  0  0  0
    2.7041   -4.4705    3.2807 C   0  0  0  0  0  0  0  0  0  0  0  0
    1.6277   -5.3690    3.3116 C   0  0  0  0  0  0  0  0  0  0  0  0
    1.1802   -6.0100    2.1335 C   0  0  0  0  0  0  0  0  0  0  0  0
    1.8226   -5.7294    0.9093 C   0  0  0  0  0  0  0  0  0  0  0  0
    2.8705   -4.7890    0.8760 C   0  0  0  0  0  0  0  0  0  0  0  0
    7.8422   -6.7667    2.4105 H   0  0  0  0  0  0  0  0  0  0  0  0
    6.5195   -7.8060    1.8591 H   0  0  0  0  0  0  0  0  0  0  0  0
    6.3267   -6.8248    3.3145 H   0  0  0  0  0  0  0  0  0  0  0  0
    5.1369   -6.8681    0.0815 H   0  0  0  0  0  0  0  0  0  0  0  0
    5.2347   -4.9636   -1.4769 H   0  0  0  0  0  0  0  0  0  0  0  0
    1.9664   -3.1417   -1.1288 H   0  0  0  0  0  0  0  0  0  0  0  0
    4.7116   -4.0997   -3.4415 H   0  0  0  0  0  0  0  0  0  0  0  0
    4.8612   -2.4458   -4.0001 H   0  0  0  0  0  0  0  0  0  0  0  0
    3.2947   -3.2465   -4.0500 H   0  0  0  0  0  0  0  0  0  0  0  0
    3.0735   -0.8426   -1.2028 H   0  0  0  0  0  0  0  0  0  0  0  0
    2.2997   -1.3035   -2.7034 H   0  0  0  0  0  0  0  0  0  0  0  0
    3.8717   -0.4790   -2.7301 H   0  0  0  0  0  0  0  0  0  0  0  0
    4.6834   -2.7205    0.1848 H   0  0  0  0  0  0  0  0  0  0  0  0
    7.1712   -1.6298    1.2699 H   0  0  0  0  0  0  0  0  0  0  0  0
    6.2988   -1.6822    2.8168 H   0  0  0  0  0  0  0  0  0  0  0  0
    5.5327   -0.9925    1.4185 H   0  0  0  0  0  0  0  0  0  0  0  0
    6.4091   -4.3535    3.0407 H   0  0  0  0  0  0  0  0  0  0  0  0
    7.5800   -4.1219    1.6883 H   0  0  0  0  0  0  0  0  0  0  0  0
    3.0378   -3.9758    4.1798 H   0  0  0  0  0  0  0  0  0  0  0  0
    1.1242   -5.5671    4.2507 H   0  0  0  0  0  0  0  0  0  0  0  0
    0.3312   -6.6729    2.1564 H   0  0  0  0  0  0  0  0  0  0  0  0
    1.4759   -6.1612   -0.0171 H   0  0  0  0  0  0  0  0  0  0  0  0
  1  2  1  0
  1 23  1  0
  1 24  1  0
  1 25  1  0
  2 15  1  0
  2  3  2  0
  3  4  1  0
  3 26  1  0
  4 12  1  0
  4  5  1  0
  4 27  1  6
  5 22  1  0
  5  6  2  0
  6  7  1  0
  6 28  1  0
  7  8  1  0
  7  9  1  0
  7 10  1  0
  8 29  1  0
  8 30  1  0
  8 31  1  0
  9 32  1  0
  9 33  1  0
  9 34  1  0
 10 11  2  0
 10 12  1  0
 12 13  1  0
 12 35  1  6
 13 14  1  6
 13 15  1  0
 13 16  1  0
 14 36  1  0
 14 37  1  0
 14 38  1  0
 15 39  1  0
 15 40  1  0
 16 17  1  0
 17 22  2  0
 17 18  1  0
 18 19  2  0
 18 41  1  0
 19 20  1  0
 19 42  1  0
 20 21  2  0
 20 43  1  0
 21 22  1  0
 21 44  1  0
M  END
>  <i_m_ct_stereo_status>  (425) 
1

>  <s_m_source_file>  (425) 
/var/tmp/pbs.5076255.sched01/tmpg_ssl3dq/162k0u29fl7.sdf

>  <i_m_source_file_index>  (425) 
38

>  <i_lp_mmshare_version>  (425) 
48012

>  <i_f3d_flags>  (425) 
0

>  <s_epik_input>  (425) 
W0NIM11DKFtDSDJdMSk9W0NIXVtDQEBIXShbQ0BIXTJbQ0BdMTNbQ0gzXSlDKD1bQ0hdQyhbQ0gzXSkoW0NIM10pQzI9TyljNGMoTzMpW2NIXVtjSF1bY0hdW2NIXTQ=

>  <s_epik_cmdline>  (425) 
J2VwaWtfcHl0aG9uJywgJy1waHQnLCAnMi4wJywgJy1waCcsICc3LjAnLCAnLXRuJywgJzgnLCAnLW1hJywgJzIwMCcsICctaW1hZScsICc8aW5maWxlLm1hZT4nLCAnLW9tYWUnLCAnPG91dGZpbGUubWFlPic=

>  <r_lp_tautomer_probability>  (425) 
1

>  <r_epik_Ionization_Penalty>  (425) 
3.43222e-12

>  <r_epik_Ionization_Penalty_Charging>  (425) 
0

>  <r_epik_Ionization_Penalty_Neutral>  (425) 
3.43222e-12

>  <r_epik_State_Penalty>  (425) 
-0

>  <r_epik_Charging_Adjusted_Penalty>  (425) 
0

>  <i_epik_Tot_Q>  (425) 
0

>  <i_epik_Tot_abs_Q>  (425) 
0

>  <s_lp_Force_Field>  (425) 
OPLS3e

>  <r_lp_Energy>  (425) 
96.2317

>  <b_lp_Chiralities_Consistent>  (425) 
1

>  <s_lp_Variant>  (425) 
113:0-3

>  <s_i_glide_gridfile>  (425) 
pfpi4k_grid

>  <i_i_glide_lignum>  (425) 
38

>  <i_i_glide_rotatable_bonds>  (425) 
0

>  <r_i_docking_score>  (425) 
-3.48058

>  <r_i_glide_ligand_efficiency>  (425) 
-0.158208

>  <r_i_glide_ligand_efficiency_sa>  (425) 
-0.443306

>  <r_i_glide_ligand_efficiency_ln>  (425) 
-0.850782

>  <r_i_glide_gscore>  (425) 
-3.48058

>  <r_i_glide_lipo>  (425) 
-0.769454

>  <r_i_glide_hbond>  (425) 
-0.110567

>  <r_i_glide_metal>  (425) 
-0

>  <r_i_glide_rewards>  (425) 
-1.4019

>  <r_i_glide_evdw>  (425) 
-18.0619

>  <r_i_glide_ecoul>  (425) 
-1.83394

>  <r_i_glide_erotb>  (425) 
0

>  <r_i_glide_esite>  (425) 
-0.0204752

>  <r_i_glide_emodel>  (425) 
-23.73

>  <r_i_glide_energy>  (425) 
-19.8958

>  <r_i_glide_einternal>  (425) 
0

>  <r_i_glide_intrahb_reward>  (425) 
-0

>  <i_i_glide_confnum>  (425) 
2

>  <i_i_glide_posenum>  (425) 
2

>  <r_i_glide_eff_state_penalty>  (425) 
0

>  <ligand_id>  (425) 
113

>  <original_smiles>  (425) 
CC1=CC2C3=CC(C)(C)C(=O)C2C(C)(C1)Oc1ccccc13

>  <smiles>  (425) 
[H]C1=C(C([H])([H])[H])C([H])([H])C2(C([H])([H])[H])Oc3c([H])c([H])c([H])c([H])c3C3=C([H])C(C([H])([H])[H])(C([H])([H])[H])C(=O)C2([H])C13[H]

$$$$
113:2:1
     RDKit          3D

 44 47  0  0  1  0  0  0  0  0999 V2000
    7.1241   -5.5318    2.3521 C   0  0  0  0  0  0  0  0  0  0  0  0
    6.3904   -4.6293    1.3731 C   0  0  0  0  0  0  0  0  0  0  0  0
    5.6929   -5.1021    0.3302 C   0  0  0  0  0  0  0  0  0  0  0  0
    5.0382   -4.1887   -0.6988 C   0  0  1  0  0  0  0  0  0  0  0  0
    3.5476   -4.1828   -0.6631 C   0  0  0  0  0  0  0  0  0  0  0  0
    2.8941   -3.4491   -1.6131 C   0  0  0  0  0  0  0  0  0  0  0  0
    3.6982   -2.5091   -2.5419 C   0  0  0  0  0  0  0  0  0  0  0  0
    4.0870   -3.1670   -3.8682 C   0  0  0  0  0  0  0  0  0  0  0  0
    2.8451   -1.3256   -2.9066 C   0  0  0  0  0  0  0  0  0  0  0  0
    4.9045   -1.9083   -1.7518 C   0  0  0  0  0  0  0  0  0  0  0  0
    5.4041   -0.8080   -2.0100 O   0  0  0  0  0  0  0  0  0  0  0  0
    5.3243   -2.7031   -0.5107 C   0  0  2  0  0  0  0  0  0  0  0  0
    5.3744   -2.2946    0.9669 C   0  0  2  0  0  0  0  0  0  0  0  0
    5.7148   -0.7966    1.1352 C   0  0  0  0  0  0  0  0  0  0  0  0
    6.4458   -3.1332    1.6517 C   0  0  0  0  0  0  0  0  0  0  0  0
    4.1231   -2.4535    1.7086 O   0  0  0  0  0  0  0  0  0  0  0  0
    3.3097   -3.5805    1.7387 C   0  0  0  0  0  0  0  0  0  0  0  0
    2.7014   -3.8308    2.9853 C   0  0  0  0  0  0  0  0  0  0  0  0
    1.8033   -4.8967    3.1525 C   0  0  0  0  0  0  0  0  0  0  0  0
    1.4855   -5.7451    2.0750 C   0  0  0  0  0  0  0  0  0  0  0  0
    2.0717   -5.5135    0.8157 C   0  0  0  0  0  0  0  0  0  0  0  0
    2.9613   -4.4318    0.6349 C   0  0  0  0  0  0  0  0  0  0  0  0
    8.1740   -5.2487    2.4288 H   0  0  0  0  0  0  0  0  0  0  0  0
    7.0794   -6.5703    2.0278 H   0  0  0  0  0  0  0  0  0  0  0  0
    6.6780   -5.4603    3.3429 H   0  0  0  0  0  0  0  0  0  0  0  0
    5.6340   -6.1658    0.1327 H   0  0  0  0  0  0  0  0  0  0  0  0
    5.4008   -4.5021   -1.6746 H   0  0  0  0  0  0  0  0  0  0  0  0
    1.8377   -3.2458   -1.5263 H   0  0  0  0  0  0  0  0  0  0  0  0
    4.7873   -3.9952   -3.7405 H   0  0  0  0  0  0  0  0  0  0  0  0
    4.5468   -2.4142   -4.5044 H   0  0  0  0  0  0  0  0  0  0  0  0
    3.2052   -3.5396   -4.3919 H   0  0  0  0  0  0  0  0  0  0  0  0
    2.6327   -0.7677   -1.9969 H   0  0  0  0  0  0  0  0  0  0  0  0
    1.9582   -1.7625   -3.3483 H   0  0  0  0  0  0  0  0  0  0  0  0
    3.2916   -0.6123   -3.5976 H   0  0  0  0  0  0  0  0  0  0  0  0
    4.3829   -2.2231   -0.3038 H   0  0  0  0  0  0  0  0  0  0  0  0
    6.6415   -0.5286    0.6392 H   0  0  0  0  0  0  0  0  0  0  0  0
    5.8147   -0.5411    2.1856 H   0  0  0  0  0  0  0  0  0  0  0  0
    4.9276   -0.1670    0.7266 H   0  0  0  0  0  0  0  0  0  0  0  0
    6.2981   -2.9343    2.7100 H   0  0  0  0  0  0  0  0  0  0  0  0
    7.4225   -2.8047    1.2920 H   0  0  0  0  0  0  0  0  0  0  0  0
    2.9231   -3.1715    3.8095 H   0  0  0  0  0  0  0  0  0  0  0  0
    1.3321   -5.0533    4.1187 H   0  0  0  0  0  0  0  0  0  0  0  0
    0.7649   -6.5553    2.1955 H   0  0  0  0  0  0  0  0  0  0  0  0
    1.8164   -6.1235   -0.0420 H   0  0  0  0  0  0  0  0  0  0  0  0
  1  2  1  0
  1 23  1  0
  1 24  1  0
  1 25  1  0
  2 15  1  0
  2  3  2  0
  3  4  1  0
  3 26  1  0
  4 12  1  0
  4  5  1  0
  4 27  1  6
  5 22  1  0
  5  6  2  0
  6  7  1  0
  6 28  1  0
  7  8  1  0
  7  9  1  0
  7 10  1  0
  8 29  1  0
  8 30  1  0
  8 31  1  0
  9 32  1  0
  9 33  1  0
  9 34  1  0
 10 11  2  0
 10 12  1  0
 12 13  1  0
 12 35  1  6
 13 14  1  6
 13 15  1  0
 13 16  1  0
 14 36  1  0
 14 37  1  0
 14 38  1  0
 15 39  1  0
 15 40  1  0
 16 17  1  0
 17 22  2  0
 17 18  1  0
 18 19  2  0
 18 41  1  0
 19 20  1  0
 19 42  1  0
 20 21  2  0
 20 43  1  0
 21 22  1  0
 21 44  1  0
M  END
>  <i_m_ct_stereo_status>  (426) 
1

>  <s_m_source_file>  (426) 
/var/tmp/pbs.5076255.sched01/tmpg_ssl3dq/162k0u29fl7.sdf

>  <i_m_source_file_index>  (426) 
38

>  <i_lp_mmshare_version>  (426) 
48012

>  <i_f3d_flags>  (426) 
0

>  <s_epik_input>  (426) 
W0NIM11DKFtDSDJdMSk9W0NIXVtDQEBIXShbQ0BIXTJbQ0BdMTNbQ0gzXSlDKD1bQ0hdQyhbQ0gzXSkoW0NIM10pQzI9TyljNGMoTzMpW2NIXVtjSF1bY0hdW2NIXTQ=

>  <s_epik_cmdline>  (426) 
J2VwaWtfcHl0aG9uJywgJy1waHQnLCAnMi4wJywgJy1waCcsICc3LjAnLCAnLXRuJywgJzgnLCAnLW1hJywgJzIwMCcsICctaW1hZScsICc8aW5maWxlLm1hZT4nLCAnLW9tYWUnLCAnPG91dGZpbGUubWFlPic=

>  <r_lp_tautomer_probability>  (426) 
1

>  <r_epik_Ionization_Penalty>  (426) 
3.43222e-12

>  <r_epik_Ionization_Penalty_Charging>  (426) 
0

>  <r_epik_Ionization_Penalty_Neutral>  (426) 
3.43222e-12

>  <r_epik_State_Penalty>  (426) 
-0

>  <r_epik_Charging_Adjusted_Penalty>  (426) 
0

>  <i_epik_Tot_Q>  (426) 
0

>  <i_epik_Tot_abs_Q>  (426) 
0

>  <s_lp_Force_Field>  (426) 
OPLS3e

>  <r_lp_Energy>  (426) 
96.2317

>  <b_lp_Chiralities_Consistent>  (426) 
1

>  <s_lp_Variant>  (426) 
113:0-3

>  <s_i_glide_gridfile>  (426) 
pfpi4k_grid

>  <i_i_glide_lignum>  (426) 
38

>  <i_i_glide_rotatable_bonds>  (426) 
0

>  <r_i_docking_score>  (426) 
-3.12497

>  <r_i_glide_ligand_efficiency>  (426) 
-0.142044

>  <r_i_glide_ligand_efficiency_sa>  (426) 
-0.398013

>  <r_i_glide_ligand_efficiency_ln>  (426) 
-0.763857

>  <r_i_glide_gscore>  (426) 
-3.12497

>  <r_i_glide_lipo>  (426) 
-0.703869

>  <r_i_glide_hbond>  (426) 
-0.00579957

>  <r_i_glide_metal>  (426) 
-0

>  <r_i_glide_rewards>  (426) 
-1.4019

>  <r_i_glide_evdw>  (426) 
-19.2155

>  <r_i_glide_ecoul>  (426) 
-0.161589

>  <r_i_glide_erotb>  (426) 
0

>  <r_i_glide_esite>  (426) 
-0.0283884

>  <r_i_glide_emodel>  (426) 
-21.8141

>  <r_i_glide_energy>  (426) 
-19.3771

>  <r_i_glide_einternal>  (426) 
0

>  <r_i_glide_intrahb_reward>  (426) 
-0

>  <i_i_glide_confnum>  (426) 
1

>  <i_i_glide_posenum>  (426) 
10

>  <r_i_glide_eff_state_penalty>  (426) 
0

>  <ligand_id>  (426) 
113

>  <original_smiles>  (426) 
CC1=CC2C3=CC(C)(C)C(=O)C2C(C)(C1)Oc1ccccc13

>  <smiles>  (426) 
[H]C1=C(C([H])([H])[H])C([H])([H])C2(C([H])([H])[H])Oc3c([H])c([H])c([H])c([H])c3C3=C([H])C(C([H])([H])[H])(C([H])([H])[H])C(=O)C2([H])C13[H]

$$$$
113:2:2
     RDKit          3D

 44 47  0  0  1  0  0  0  0  0999 V2000
   -0.1232    0.8336    7.9738 C   0  0  0  0  0  0  0  0  0  0  0  0
    0.7614    0.6570    6.7566 C   0  0  0  0  0  0  0  0  0  0  0  0
    0.4467   -0.1712    5.7460 C   0  0  0  0  0  0  0  0  0  0  0  0
    1.3534   -0.4281    4.5526 C   0  0  1  0  0  0  0  0  0  0  0  0
    0.8581    0.1123    3.2401 C   0  0  0  0  0  0  0  0  0  0  0  0
    1.5847   -0.1523    2.1275 C   0  0  0  0  0  0  0  0  0  0  0  0
    2.9997   -0.7803    2.2250 C   0  0  0  0  0  0  0  0  0  0  0  0
    2.9424   -2.3131    2.0866 C   0  0  0  0  0  0  0  0  0  0  0  0
    3.8641   -0.1871    1.0923 C   0  0  0  0  0  0  0  0  0  0  0  0
    3.6753   -0.3662    3.5855 C   0  0  0  0  0  0  0  0  0  0  0  0
    4.8762   -0.5243    3.8097 O   0  0  0  0  0  0  0  0  0  0  0  0
    2.7200    0.2432    4.6309 C   0  0  2  0  0  0  0  0  0  0  0  0
    2.6649    1.6216    5.3315 C   0  0  2  0  0  0  0  0  0  0  0  0
    4.0675    2.2425    5.4618 C   0  0  0  0  0  0  0  0  0  0  0  0
    2.0456    1.4736    6.7413 C   0  0  0  0  0  0  0  0  0  0  0  0
    1.9181    2.6317    4.5850 O   0  0  0  0  0  0  0  0  0  0  0  0
    0.6381    2.4891    4.0362 C   0  0  0  0  0  0  0  0  0  0  0  0
   -0.1480    3.6549    4.1162 C   0  0  0  0  0  0  0  0  0  0  0  0
   -1.4399    3.7007    3.5637 C   0  0  0  0  0  0  0  0  0  0  0  0
   -1.9656    2.5836    2.8927 C   0  0  0  0  0  0  0  0  0  0  0  0
   -1.1978    1.4152    2.7816 C   0  0  0  0  0  0  0  0  0  0  0  0
    0.0927    1.3527    3.3483 C   0  0  0  0  0  0  0  0  0  0  0  0
    0.4373    0.6212    8.8855 H   0  0  0  0  0  0  0  0  0  0  0  0
   -0.9752    0.1572    7.9324 H   0  0  0  0  0  0  0  0  0  0  0  0
   -0.4982    1.8549    8.0277 H   0  0  0  0  0  0  0  0  0  0  0  0
   -0.4708   -0.7391    5.7674 H   0  0  0  0  0  0  0  0  0  0  0  0
    1.4816   -1.5068    4.4789 H   0  0  0  0  0  0  0  0  0  0  0  0
    1.3638    0.3700    1.2071 H   0  0  0  0  0  0  0  0  0  0  0  0
    2.3364   -2.7646    2.8704 H   0  0  0  0  0  0  0  0  0  0  0  0
    3.9345   -2.7616    2.1536 H   0  0  0  0  0  0  0  0  0  0  0  0
    2.5077   -2.6094    1.1316 H   0  0  0  0  0  0  0  0  0  0  0  0
    3.9180    0.8996    1.1898 H   0  0  0  0  0  0  0  0  0  0  0  0
    3.4437   -0.3992    0.1066 H   0  0  0  0  0  0  0  0  0  0  0  0
    4.8880   -0.5652    1.1069 H   0  0  0  0  0  0  0  0  0  0  0  0
    2.7857    0.9449    3.8062 H   0  0  0  0  0  0  0  0  0  0  0  0
    4.7575    1.5934    6.0015 H   0  0  0  0  0  0  0  0  0  0  0  0
    4.0253    3.2003    5.9818 H   0  0  0  0  0  0  0  0  0  0  0  0
    4.4937    2.4334    4.4782 H   0  0  0  0  0  0  0  0  0  0  0  0
    1.8662    2.4603    7.1736 H   0  0  0  0  0  0  0  0  0  0  0  0
    2.7475    0.9555    7.3957 H   0  0  0  0  0  0  0  0  0  0  0  0
    0.2613    4.5299    4.5974 H   0  0  0  0  0  0  0  0  0  0  0  0
   -2.0261    4.6022    3.6298 H   0  0  0  0  0  0  0  0  0  0  0  0
   -2.9484    2.6254    2.4496 H   0  0  0  0  0  0  0  0  0  0  0  0
   -1.5944    0.5654    2.2474 H   0  0  0  0  0  0  0  0  0  0  0  0
  1  2  1  0
  1 23  1  0
  1 24  1  0
  1 25  1  0
  2 15  1  0
  2  3  2  0
  3  4  1  0
  3 26  1  0
  4 12  1  0
  4  5  1  0
  4 27  1  6
  5 22  1  0
  5  6  2  0
  6  7  1  0
  6 28  1  0
  7  8  1  0
  7  9  1  0
  7 10  1  0
  8 29  1  0
  8 30  1  0
  8 31  1  0
  9 32  1  0
  9 33  1  0
  9 34  1  0
 10 11  2  0
 10 12  1  0
 12 13  1  0
 12 35  1  1
 13 14  1  1
 13 15  1  0
 13 16  1  0
 14 36  1  0
 14 37  1  0
 14 38  1  0
 15 39  1  0
 15 40  1  0
 16 17  1  0
 17 22  2  0
 17 18  1  0
 18 19  2  0
 18 41  1  0
 19 20  1  0
 19 42  1  0
 20 21  2  0
 20 43  1  0
 21 22  1  0
 21 44  1  0
M  END
>  <i_m_ct_stereo_status>  (427) 
1

>  <s_m_source_file>  (427) 
/var/tmp/pbs.5076255.sched01/tmpg_ssl3dq/162k0u29fl7.sdf

>  <i_m_source_file_index>  (427) 
38

>  <i_lp_mmshare_version>  (427) 
48012

>  <i_f3d_flags>  (427) 
0

>  <s_epik_input>  (427) 
W0NIM11DKFtDSDJdMSk9W0NIXVtDQEBIXShbQ0BIXTJbQ0BdMTNbQ0gzXSlDKD1bQ0hdQyhbQ0gzXSkoW0NIM10pQzI9TyljNGMoTzMpW2NIXVtjSF1bY0hdW2NIXTQ=

>  <s_epik_cmdline>  (427) 
J2VwaWtfcHl0aG9uJywgJy1waHQnLCAnMi4wJywgJy1waCcsICc3LjAnLCAnLXRuJywgJzgnLCAnLW1hJywgJzIwMCcsICctaW1hZScsICc8aW5maWxlLm1hZT4nLCAnLW9tYWUnLCAnPG91dGZpbGUubWFlPic=

>  <r_lp_tautomer_probability>  (427) 
1

>  <r_epik_Ionization_Penalty>  (427) 
3.43222e-12

>  <r_epik_Ionization_Penalty_Charging>  (427) 
0

>  <r_epik_Ionization_Penalty_Neutral>  (427) 
3.43222e-12

>  <r_epik_State_Penalty>  (427) 
-0

>  <r_epik_Charging_Adjusted_Penalty>  (427) 
0

>  <i_epik_Tot_Q>  (427) 
0

>  <i_epik_Tot_abs_Q>  (427) 
0

>  <s_lp_Force_Field>  (427) 
OPLS3e

>  <r_lp_Energy>  (427) 
96.2317

>  <b_lp_Chiralities_Consistent>  (427) 
1

>  <s_lp_Variant>  (427) 
113:0-3

>  <s_i_glide_gridfile>  (427) 
pfpi4k_grid

>  <i_i_glide_lignum>  (427) 
38

>  <i_i_glide_rotatable_bonds>  (427) 
0

>  <r_i_docking_score>  (427) 
-2.40599

>  <r_i_glide_ligand_efficiency>  (427) 
-0.109363

>  <r_i_glide_ligand_efficiency_sa>  (427) 
-0.30644

>  <r_i_glide_ligand_efficiency_ln>  (427) 
-0.588112

>  <r_i_glide_gscore>  (427) 
-2.40599

>  <r_i_glide_lipo>  (427) 
-0.040179

>  <r_i_glide_hbond>  (427) 
0

>  <r_i_glide_metal>  (427) 
-0

>  <r_i_glide_rewards>  (427) 
-1.41947

>  <r_i_glide_evdw>  (427) 
-20.2243

>  <r_i_glide_ecoul>  (427) 
0.432452

>  <r_i_glide_erotb>  (427) 
0

>  <r_i_glide_esite>  (427) 
0

>  <r_i_glide_emodel>  (427) 
-22.473

>  <r_i_glide_energy>  (427) 
-19.7918

>  <r_i_glide_einternal>  (427) 
0

>  <r_i_glide_intrahb_reward>  (427) 
-0

>  <i_i_glide_confnum>  (427) 
2

>  <i_i_glide_posenum>  (427) 
12

>  <r_i_glide_eff_state_penalty>  (427) 
0

>  <ligand_id>  (427) 
113

>  <original_smiles>  (427) 
CC1=CC2C3=CC(C)(C)C(=O)C2C(C)(C1)Oc1ccccc13

>  <smiles>  (427) 
[H]C1=C(C([H])([H])[H])C([H])([H])C2(C([H])([H])[H])Oc3c([H])c([H])c([H])c([H])c3C3=C([H])C(C([H])([H])[H])(C([H])([H])[H])C(=O)C2([H])C13[H]

$$$$
113:3:0
     RDKit          3D

 44 47  0  0  1  0  0  0  0  0999 V2000
    1.3297   -0.4210    2.3490 C   0  0  0  0  0  0  0  0  0  0  0  0
    0.9262    0.7942    3.1577 C   0  0  0  0  0  0  0  0  0  0  0  0
    1.7070    1.2959    4.1832 C   0  0  0  0  0  0  0  0  0  0  0  0
    1.3924    2.6813    4.8186 C   0  0  2  0  0  0  0  0  0  0  0  0
    1.0048    3.0980    6.2684 C   0  0  0  0  0  0  0  0  0  0  0  0
    1.2146    4.4203    6.4766 C   0  0  0  0  0  0  0  0  0  0  0  0
    0.9307    5.4353    5.3465 C   0  0  0  0  0  0  0  0  0  0  0  0
    0.1287    6.6162    5.9414 C   0  0  0  0  0  0  0  0  0  0  0  0
    2.2175    5.9940    4.7118 C   0  0  0  0  0  0  0  0  0  0  0  0
    0.0297    4.7337    4.2820 C   0  0  0  0  0  0  0  0  0  0  0  0
   -0.8524    5.3357    3.6732 O   0  0  0  0  0  0  0  0  0  0  0  0
    0.2835    3.2180    4.0384 C   0  0  2  0  0  0  0  0  0  0  0  0
   -0.8403    2.0887    4.2133 C   0  0  2  0  0  0  0  0  0  0  0  0
   -0.9344    0.7189    5.0958 C   0  0  0  0  0  0  0  0  0  0  0  0
   -0.5188    1.3833    2.8717 C   0  0  0  0  0  0  0  0  0  0  0  0
   -1.8729    2.8211    4.8682 O   0  0  0  0  0  0  0  0  0  0  0  0
   -1.6380    2.9338    6.2572 C   0  0  0  0  0  0  0  0  0  0  0  0
   -2.8067    2.9580    7.0442 C   0  0  0  0  0  0  0  0  0  0  0  0
   -2.7471    2.8225    8.4409 C   0  0  0  0  0  0  0  0  0  0  0  0
   -1.5116    2.6360    9.0778 C   0  0  0  0  0  0  0  0  0  0  0  0
   -0.3249    2.6478    8.3261 C   0  0  0  0  0  0  0  0  0  0  0  0
   -0.3402    2.8371    6.9217 C   0  0  0  0  0  0  0  0  0  0  0  0
    0.6100   -1.2296    2.4714 H   0  0  0  0  0  0  0  0  0  0  0  0
    2.3096   -0.7893    2.6594 H   0  0  0  0  0  0  0  0  0  0  0  0
    1.3818   -0.1622    1.2878 H   0  0  0  0  0  0  0  0  0  0  0  0
    2.6624    0.8543    4.4260 H   0  0  0  0  0  0  0  0  0  0  0  0
    2.3192    3.2025    4.5887 H   0  0  0  0  0  0  0  0  0  0  0  0
    0.8808    4.8366    7.4163 H   0  0  0  0  0  0  0  0  0  0  0  0
   -0.8150    6.2653    6.3690 H   0  0  0  0  0  0  0  0  0  0  0  0
   -0.1196    7.3670    5.1882 H   0  0  0  0  0  0  0  0  0  0  0  0
    0.6672    7.1259    6.7408 H   0  0  0  0  0  0  0  0  0  0  0  0
    2.7816    5.2345    4.1708 H   0  0  0  0  0  0  0  0  0  0  0  0
    2.8778    6.4159    5.4699 H   0  0  0  0  0  0  0  0  0  0  0  0
    1.9914    6.7833    3.9910 H   0  0  0  0  0  0  0  0  0  0  0  0
    0.6470    3.2855    3.0124 H   0  0  0  0  0  0  0  0  0  0  0  0
   -0.8632   -0.2233    4.5503 H   0  0  0  0  0  0  0  0  0  0  0  0
   -1.9192    0.5925    5.5522 H   0  0  0  0  0  0  0  0  0  0  0  0
   -0.1919    0.6105    5.8868 H   0  0  0  0  0  0  0  0  0  0  0  0
   -0.5193    2.0358    1.9939 H   0  0  0  0  0  0  0  0  0  0  0  0
   -1.2376    0.5961    2.6322 H   0  0  0  0  0  0  0  0  0  0  0  0
   -3.7656    3.0236    6.5550 H   0  0  0  0  0  0  0  0  0  0  0  0
   -3.6574    2.8300    9.0256 H   0  0  0  0  0  0  0  0  0  0  0  0
   -1.4736    2.5105   10.1537 H   0  0  0  0  0  0  0  0  0  0  0  0
    0.6227    2.5741    8.8428 H   0  0  0  0  0  0  0  0  0  0  0  0
  1  2  1  0
  1 23  1  0
  1 24  1  0
  1 25  1  0
  2 15  1  0
  2  3  2  0
  3  4  1  0
  3 26  1  0
  4 12  1  0
  4  5  1  0
  4 27  1  6
  5 22  1  0
  5  6  2  0
  6  7  1  0
  6 28  1  0
  7  8  1  0
  7  9  1  0
  7 10  1  0
  8 29  1  0
  8 30  1  0
  8 31  1  0
  9 32  1  0
  9 33  1  0
  9 34  1  0
 10 11  2  0
 10 12  1  0
 12 13  1  0
 12 35  1  6
 13 14  1  1
 13 15  1  0
 13 16  1  0
 14 36  1  0
 14 37  1  0
 14 38  1  0
 15 39  1  0
 15 40  1  0
 16 17  1  0
 17 22  2  0
 17 18  1  0
 18 19  2  0
 18 41  1  0
 19 20  1  0
 19 42  1  0
 20 21  2  0
 20 43  1  0
 21 22  1  0
 21 44  1  0
M  END
>  <i_m_ct_stereo_status>  (428) 
1

>  <s_m_source_file>  (428) 
/var/tmp/pbs.5076255.sched01/tmpg_ssl3dq/162k0u29fl7.sdf

>  <i_m_source_file_index>  (428) 
39

>  <i_lp_mmshare_version>  (428) 
48012

>  <i_f3d_flags>  (428) 
0

>  <s_epik_input>  (428) 
W0NIM11DKFtDSDJdMSk9W0NIXVtDQEBIXShbQ0BIXTJbQ0BdMTNbQ0gzXSlDKD1bQ0hdQyhbQ0gzXSkoW0NIM10pQzI9TyljNGMoTzMpW2NIXVtjSF1bY0hdW2NIXTQ=

>  <s_epik_cmdline>  (428) 
J2VwaWtfcHl0aG9uJywgJy1waHQnLCAnMi4wJywgJy1waCcsICc3LjAnLCAnLXRuJywgJzgnLCAnLW1hJywgJzIwMCcsICctaW1hZScsICc8aW5maWxlLm1hZT4nLCAnLW9tYWUnLCAnPG91dGZpbGUubWFlPic=

>  <r_lp_tautomer_probability>  (428) 
1

>  <r_epik_Ionization_Penalty>  (428) 
3.43222e-12

>  <r_epik_Ionization_Penalty_Charging>  (428) 
0

>  <r_epik_Ionization_Penalty_Neutral>  (428) 
3.43222e-12

>  <r_epik_State_Penalty>  (428) 
-0

>  <r_epik_Charging_Adjusted_Penalty>  (428) 
0

>  <i_epik_Tot_Q>  (428) 
0

>  <i_epik_Tot_abs_Q>  (428) 
0

>  <s_lp_Force_Field>  (428) 
OPLS3e

>  <r_lp_Energy>  (428) 
188.648

>  <b_lp_Chiralities_Consistent>  (428) 
1

>  <s_lp_Variant>  (428) 
113:0-4

>  <s_i_glide_gridfile>  (428) 
pfpi4k_grid

>  <i_i_glide_lignum>  (428) 
39

>  <i_i_glide_rotatable_bonds>  (428) 
0

>  <r_i_docking_score>  (428) 
-3.465

>  <r_i_glide_ligand_efficiency>  (428) 
-0.1575

>  <r_i_glide_ligand_efficiency_sa>  (428) 
-0.441321

>  <r_i_glide_ligand_efficiency_ln>  (428) 
-0.846972

>  <r_i_glide_gscore>  (428) 
-3.465

>  <r_i_glide_lipo>  (428) 
-0.293595

>  <r_i_glide_hbond>  (428) 
-0.120615

>  <r_i_glide_metal>  (428) 
-0

>  <r_i_glide_rewards>  (428) 
-1.4019

>  <r_i_glide_evdw>  (428) 
-20.9692

>  <r_i_glide_ecoul>  (428) 
-3.58178

>  <r_i_glide_erotb>  (428) 
0

>  <r_i_glide_esite>  (428) 
-0.063156

>  <r_i_glide_emodel>  (428) 
-30.1009

>  <r_i_glide_energy>  (428) 
-24.551

>  <r_i_glide_einternal>  (428) 
0

>  <r_i_glide_intrahb_reward>  (428) 
-0

>  <i_i_glide_confnum>  (428) 
1

>  <i_i_glide_posenum>  (428) 
1

>  <r_i_glide_eff_state_penalty>  (428) 
0

>  <ligand_id>  (428) 
113

>  <original_smiles>  (428) 
CC1=CC2C3=CC(C)(C)C(=O)C2C(C)(C1)Oc1ccccc13

>  <smiles>  (428) 
[H]C1=C(C([H])([H])[H])C([H])([H])C2(C([H])([H])[H])Oc3c([H])c([H])c([H])c([H])c3C3=C([H])C(C([H])([H])[H])(C([H])([H])[H])C(=O)C2([H])C13[H]

$$$$
113:3:1
     RDKit          3D

 44 47  0  0  1  0  0  0  0  0999 V2000
   -0.1575    1.0409    2.0934 C   0  0  0  0  0  0  0  0  0  0  0  0
   -0.0375    1.9333    3.3090 C   0  0  0  0  0  0  0  0  0  0  0  0
    0.9884    1.8107    4.2292 C   0  0  0  0  0  0  0  0  0  0  0  0
    1.2210    2.9000    5.3178 C   0  0  2  0  0  0  0  0  0  0  0  0
    1.1729    2.8528    6.8751 C   0  0  0  0  0  0  0  0  0  0  0  0
    1.8195    3.9115    7.4230 C   0  0  0  0  0  0  0  0  0  0  0  0
    1.7300    5.3025    6.7545 C   0  0  0  0  0  0  0  0  0  0  0  0
    1.4243    6.3529    7.8503 C   0  0  0  0  0  0  0  0  0  0  0  0
    3.0414    5.6953    6.0448 C   0  0  0  0  0  0  0  0  0  0  0  0
    0.5286    5.2878    5.7568 C   0  0  0  0  0  0  0  0  0  0  0  0
   -0.1717    6.2794    5.5459 O   0  0  0  0  0  0  0  0  0  0  0  0
    0.2525    3.9474    5.0167 C   0  0  2  0  0  0  0  0  0  0  0  0
   -1.1422    3.1603    5.0879 C   0  0  2  0  0  0  0  0  0  0  0  0
   -1.5572    1.6403    5.5080 C   0  0  0  0  0  0  0  0  0  0  0  0
   -1.2399    2.9347    3.5589 C   0  0  0  0  0  0  0  0  0  0  0  0
   -1.7906    3.8445    6.1538 O   0  0  0  0  0  0  0  0  0  0  0  0
   -1.3599    3.3921    7.4221 C   0  0  0  0  0  0  0  0  0  0  0  0
   -2.3482    3.4423    8.4271 C   0  0  0  0  0  0  0  0  0  0  0  0
   -2.1631    2.7896    9.6585 C   0  0  0  0  0  0  0  0  0  0  0  0
   -0.9822    2.0759    9.9045 C   0  0  0  0  0  0  0  0  0  0  0  0
    0.0418    2.0500    8.9425 C   0  0  0  0  0  0  0  0  0  0  0  0
   -0.0911    2.7286    7.7067 C   0  0  0  0  0  0  0  0  0  0  0  0
   -1.0912    0.4795    2.1298 H   0  0  0  0  0  0  0  0  0  0  0  0
    0.6751    0.3364    2.0356 H   0  0  0  0  0  0  0  0  0  0  0  0
   -0.1586    1.6433    1.1822 H   0  0  0  0  0  0  0  0  0  0  0  0
    1.7720    1.0808    4.0944 H   0  0  0  0  0  0  0  0  0  0  0  0
    2.2282    3.2140    5.0518 H   0  0  0  0  0  0  0  0  0  0  0  0
    1.7645    4.0276    8.4958 H   0  0  0  0  0  0  0  0  0  0  0  0
    0.4777    6.1318    8.3525 H   0  0  0  0  0  0  0  0  0  0  0  0
    1.3376    7.3632    7.4456 H   0  0  0  0  0  0  0  0  0  0  0  0
    2.1961    6.3801    8.6218 H   0  0  0  0  0  0  0  0  0  0  0  0
    3.2591    5.0640    5.1836 H   0  0  0  0  0  0  0  0  0  0  0  0
    3.8949    5.6264    6.7206 H   0  0  0  0  0  0  0  0  0  0  0  0
    2.9988    6.7205    5.6711 H   0  0  0  0  0  0  0  0  0  0  0  0
    0.4888    4.2838    4.0062 H   0  0  0  0  0  0  0  0  0  0  0  0
   -1.8686    0.9774    4.6993 H   0  0  0  0  0  0  0  0  0  0  0  0
   -2.4608    1.6188    6.1209 H   0  0  0  0  0  0  0  0  0  0  0  0
   -0.7938    1.0672    6.0329 H   0  0  0  0  0  0  0  0  0  0  0  0
   -1.1383    3.8344    2.9462 H   0  0  0  0  0  0  0  0  0  0  0  0
   -2.1964    2.4992    3.2599 H   0  0  0  0  0  0  0  0  0  0  0  0
   -3.2857    3.9365    8.2275 H   0  0  0  0  0  0  0  0  0  0  0  0
   -2.9405    2.8131   10.4109 H   0  0  0  0  0  0  0  0  0  0  0  0
   -0.8547    1.5660   10.8517 H   0  0  0  0  0  0  0  0  0  0  0  0
    0.9722    1.5535    9.1797 H   0  0  0  0  0  0  0  0  0  0  0  0
  1  2  1  0
  1 23  1  0
  1 24  1  0
  1 25  1  0
  2 15  1  0
  2  3  2  0
  3  4  1  0
  3 26  1  0
  4 12  1  0
  4  5  1  0
  4 27  1  1
  5 22  1  0
  5  6  2  0
  6  7  1  0
  6 28  1  0
  7  8  1  0
  7  9  1  0
  7 10  1  0
  8 29  1  0
  8 30  1  0
  8 31  1  0
  9 32  1  0
  9 33  1  0
  9 34  1  0
 10 11  2  0
 10 12  1  0
 12 13  1  0
 12 35  1  6
 13 14  1  1
 13 15  1  0
 13 16  1  0
 14 36  1  0
 14 37  1  0
 14 38  1  0
 15 39  1  0
 15 40  1  0
 16 17  1  0
 17 22  2  0
 17 18  1  0
 18 19  2  0
 18 41  1  0
 19 20  1  0
 19 42  1  0
 20 21  2  0
 20 43  1  0
 21 22  1  0
 21 44  1  0
M  END
>  <i_m_ct_stereo_status>  (429) 
1

>  <s_m_source_file>  (429) 
/var/tmp/pbs.5076255.sched01/tmpg_ssl3dq/162k0u29fl7.sdf

>  <i_m_source_file_index>  (429) 
39

>  <i_lp_mmshare_version>  (429) 
48012

>  <i_f3d_flags>  (429) 
0

>  <s_epik_input>  (429) 
W0NIM11DKFtDSDJdMSk9W0NIXVtDQEBIXShbQ0BIXTJbQ0BdMTNbQ0gzXSlDKD1bQ0hdQyhbQ0gzXSkoW0NIM10pQzI9TyljNGMoTzMpW2NIXVtjSF1bY0hdW2NIXTQ=

>  <s_epik_cmdline>  (429) 
J2VwaWtfcHl0aG9uJywgJy1waHQnLCAnMi4wJywgJy1waCcsICc3LjAnLCAnLXRuJywgJzgnLCAnLW1hJywgJzIwMCcsICctaW1hZScsICc8aW5maWxlLm1hZT4nLCAnLW9tYWUnLCAnPG91dGZpbGUubWFlPic=

>  <r_lp_tautomer_probability>  (429) 
1

>  <r_epik_Ionization_Penalty>  (429) 
3.43222e-12

>  <r_epik_Ionization_Penalty_Charging>  (429) 
0

>  <r_epik_Ionization_Penalty_Neutral>  (429) 
3.43222e-12

>  <r_epik_State_Penalty>  (429) 
-0

>  <r_epik_Charging_Adjusted_Penalty>  (429) 
0

>  <i_epik_Tot_Q>  (429) 
0

>  <i_epik_Tot_abs_Q>  (429) 
0

>  <s_lp_Force_Field>  (429) 
OPLS3e

>  <r_lp_Energy>  (429) 
188.648

>  <b_lp_Chiralities_Consistent>  (429) 
1

>  <s_lp_Variant>  (429) 
113:0-4

>  <s_i_glide_gridfile>  (429) 
pfpi4k_grid

>  <i_i_glide_lignum>  (429) 
39

>  <i_i_glide_rotatable_bonds>  (429) 
0

>  <r_i_docking_score>  (429) 
-2.89691

>  <r_i_glide_ligand_efficiency>  (429) 
-0.131678

>  <r_i_glide_ligand_efficiency_sa>  (429) 
-0.368966

>  <r_i_glide_ligand_efficiency_ln>  (429) 
-0.708111

>  <r_i_glide_gscore>  (429) 
-2.89691

>  <r_i_glide_lipo>  (429) 
-0.0599467

>  <r_i_glide_hbond>  (429) 
-0.00939151

>  <r_i_glide_metal>  (429) 
-0

>  <r_i_glide_rewards>  (429) 
-1.4019

>  <r_i_glide_evdw>  (429) 
-18.9591

>  <r_i_glide_ecoul>  (429) 
-3.09837

>  <r_i_glide_erotb>  (429) 
0

>  <r_i_glide_esite>  (429) 
-0.0129575

>  <r_i_glide_emodel>  (429) 
-26.6825

>  <r_i_glide_energy>  (429) 
-22.0575

>  <r_i_glide_einternal>  (429) 
0

>  <r_i_glide_intrahb_reward>  (429) 
-0

>  <i_i_glide_confnum>  (429) 
1

>  <i_i_glide_posenum>  (429) 
21

>  <r_i_glide_eff_state_penalty>  (429) 
0

>  <ligand_id>  (429) 
113

>  <original_smiles>  (429) 
CC1=CC2C3=CC(C)(C)C(=O)C2C(C)(C1)Oc1ccccc13

>  <smiles>  (429) 
[H]C1=C(C([H])([H])[H])C([H])([H])C2(C([H])([H])[H])Oc3c([H])c([H])c([H])c([H])c3C3=C([H])C(C([H])([H])[H])(C([H])([H])[H])C(=O)C2([H])C13[H]

$$$$
113:3:2
     RDKit          3D

 44 47  0  0  1  0  0  0  0  0999 V2000
    2.8779    1.3839    3.8458 C   0  0  0  0  0  0  0  0  0  0  0  0
    2.1639    2.3840    4.7357 C   0  0  0  0  0  0  0  0  0  0  0  0
    2.6273    2.7273    5.9930 C   0  0  0  0  0  0  0  0  0  0  0  0
    2.0174    3.9315    6.7709 C   0  0  2  0  0  0  0  0  0  0  0  0
    1.2630    4.0260    8.1328 C   0  0  0  0  0  0  0  0  0  0  0  0
    1.2590    5.2934    8.6105 C   0  0  0  0  0  0  0  0  0  0  0  0
    1.1168    6.4883    7.6394 C   0  0  0  0  0  0  0  0  0  0  0  0
    0.0561    7.4634    8.2096 C   0  0  0  0  0  0  0  0  0  0  0  0
    2.4438    7.2507    7.4513 C   0  0  0  0  0  0  0  0  0  0  0  0
    0.5820    5.9488    6.2772 C   0  0  0  0  0  0  0  0  0  0  0  0
   -0.1762    6.6076    5.5642 O   0  0  0  0  0  0  0  0  0  0  0  0
    1.0586    4.5306    5.8491 C   0  0  2  0  0  0  0  0  0  0  0  0
    0.0656    3.3126    5.5377 C   0  0  2  0  0  0  0  0  0  0  0  0
   -0.0670    1.7928    6.1172 C   0  0  0  0  0  0  0  0  0  0  0  0
    0.7665    2.9152    4.2118 C   0  0  0  0  0  0  0  0  0  0  0  0
   -1.1641    3.8300    6.0389 O   0  0  0  0  0  0  0  0  0  0  0  0
   -1.2636    3.6819    7.4400 C   0  0  0  0  0  0  0  0  0  0  0  0
   -2.5759    3.4643    7.9042 C   0  0  0  0  0  0  0  0  0  0  0  0
   -2.8283    3.0511    9.2231 C   0  0  0  0  0  0  0  0  0  0  0  0
   -1.7587    2.8340   10.1057 C   0  0  0  0  0  0  0  0  0  0  0  0
   -0.4400    3.0794    9.6853 C   0  0  0  0  0  0  0  0  0  0  0  0
   -0.1531    3.5423    8.3785 C   0  0  0  0  0  0  0  0  0  0  0  0
    2.2426    0.5192    3.6454 H   0  0  0  0  0  0  0  0  0  0  0  0
    3.7977    1.0327    4.3164 H   0  0  0  0  0  0  0  0  0  0  0  0
    3.1388    1.8479    2.8948 H   0  0  0  0  0  0  0  0  0  0  0  0
    3.5453    2.3122    6.3803 H   0  0  0  0  0  0  0  0  0  0  0  0
    2.9015    4.5544    6.8731 H   0  0  0  0  0  0  0  0  0  0  0  0
    0.6753    5.4899    9.5002 H   0  0  0  0  0  0  0  0  0  0  0  0
   -0.9140    6.9695    8.3188 H   0  0  0  0  0  0  0  0  0  0  0  0
   -0.1006    8.3310    7.5663 H   0  0  0  0  0  0  0  0  0  0  0  0
    0.3360    7.8422    9.1946 H   0  0  0  0  0  0  0  0  0  0  0  0
    3.2001    6.6564    6.9428 H   0  0  0  0  0  0  0  0  0  0  0  0
    2.8639    7.5581    8.4108 H   0  0  0  0  0  0  0  0  0  0  0  0
    2.3037    8.1510    6.8489 H   0  0  0  0  0  0  0  0  0  0  0  0
    1.6385    4.8251    4.9746 H   0  0  0  0  0  0  0  0  0  0  0  0
    0.2357    0.9860    5.4482 H   0  0  0  0  0  0  0  0  0  0  0  0
   -1.1070    1.5096    6.2914 H   0  0  0  0  0  0  0  0  0  0  0  0
    0.4840    1.5838    7.0334 H   0  0  0  0  0  0  0  0  0  0  0  0
    0.8863    3.7279    3.4894 H   0  0  0  0  0  0  0  0  0  0  0  0
    0.2198    2.1405    3.6680 H   0  0  0  0  0  0  0  0  0  0  0  0
   -3.3868    3.5596    7.1999 H   0  0  0  0  0  0  0  0  0  0  0  0
   -3.8413    2.8726    9.5543 H   0  0  0  0  0  0  0  0  0  0  0  0
   -1.9533    2.4980   11.1164 H   0  0  0  0  0  0  0  0  0  0  0  0
    0.3639    2.9704   10.3990 H   0  0  0  0  0  0  0  0  0  0  0  0
  1  2  1  0
  1 23  1  0
  1 24  1  0
  1 25  1  0
  2 15  1  0
  2  3  2  0
  3  4  1  0
  3 26  1  0
  4 12  1  0
  4  5  1  0
  4 27  1  1
  5 22  1  0
  5  6  2  0
  6  7  1  0
  6 28  1  0
  7  8  1  0
  7  9  1  0
  7 10  1  0
  8 29  1  0
  8 30  1  0
  8 31  1  0
  9 32  1  0
  9 33  1  0
  9 34  1  0
 10 11  2  0
 10 12  1  0
 12 13  1  0
 12 35  1  6
 13 14  1  1
 13 15  1  0
 13 16  1  0
 14 36  1  0
 14 37  1  0
 14 38  1  0
 15 39  1  0
 15 40  1  0
 16 17  1  0
 17 22  2  0
 17 18  1  0
 18 19  2  0
 18 41  1  0
 19 20  1  0
 19 42  1  0
 20 21  2  0
 20 43  1  0
 21 22  1  0
 21 44  1  0
M  END
>  <i_m_ct_stereo_status>  (430) 
1

>  <s_m_source_file>  (430) 
/var/tmp/pbs.5076255.sched01/tmpg_ssl3dq/162k0u29fl7.sdf

>  <i_m_source_file_index>  (430) 
39

>  <i_lp_mmshare_version>  (430) 
48012

>  <i_f3d_flags>  (430) 
0

>  <s_epik_input>  (430) 
W0NIM11DKFtDSDJdMSk9W0NIXVtDQEBIXShbQ0BIXTJbQ0BdMTNbQ0gzXSlDKD1bQ0hdQyhbQ0gzXSkoW0NIM10pQzI9TyljNGMoTzMpW2NIXVtjSF1bY0hdW2NIXTQ=

>  <s_epik_cmdline>  (430) 
J2VwaWtfcHl0aG9uJywgJy1waHQnLCAnMi4wJywgJy1waCcsICc3LjAnLCAnLXRuJywgJzgnLCAnLW1hJywgJzIwMCcsICctaW1hZScsICc8aW5maWxlLm1hZT4nLCAnLW9tYWUnLCAnPG91dGZpbGUubWFlPic=

>  <r_lp_tautomer_probability>  (430) 
1

>  <r_epik_Ionization_Penalty>  (430) 
3.43222e-12

>  <r_epik_Ionization_Penalty_Charging>  (430) 
0

>  <r_epik_Ionization_Penalty_Neutral>  (430) 
3.43222e-12

>  <r_epik_State_Penalty>  (430) 
-0

>  <r_epik_Charging_Adjusted_Penalty>  (430) 
0

>  <i_epik_Tot_Q>  (430) 
0

>  <i_epik_Tot_abs_Q>  (430) 
0

>  <s_lp_Force_Field>  (430) 
OPLS3e

>  <r_lp_Energy>  (430) 
188.648

>  <b_lp_Chiralities_Consistent>  (430) 
1

>  <s_lp_Variant>  (430) 
113:0-4

>  <s_i_glide_gridfile>  (430) 
pfpi4k_grid

>  <i_i_glide_lignum>  (430) 
39

>  <i_i_glide_rotatable_bonds>  (430) 
0

>  <r_i_docking_score>  (430) 
-2.77664

>  <r_i_glide_ligand_efficiency>  (430) 
-0.126211

>  <r_i_glide_ligand_efficiency_sa>  (430) 
-0.353648

>  <r_i_glide_ligand_efficiency_ln>  (430) 
-0.678712

>  <r_i_glide_gscore>  (430) 
-2.77664

>  <r_i_glide_lipo>  (430) 
-0.116314

>  <r_i_glide_hbond>  (430) 
-0.0427983

>  <r_i_glide_metal>  (430) 
-0

>  <r_i_glide_rewards>  (430) 
-1.4019

>  <r_i_glide_evdw>  (430) 
-15.1626

>  <r_i_glide_ecoul>  (430) 
-2.98748

>  <r_i_glide_erotb>  (430) 
0

>  <r_i_glide_esite>  (430) 
-0.0093721

>  <r_i_glide_emodel>  (430) 
-22.5799

>  <r_i_glide_energy>  (430) 
-18.15

>  <r_i_glide_einternal>  (430) 
0

>  <r_i_glide_intrahb_reward>  (430) 
-0

>  <i_i_glide_confnum>  (430) 
2

>  <i_i_glide_posenum>  (430) 
27

>  <r_i_glide_eff_state_penalty>  (430) 
0

>  <ligand_id>  (430) 
113

>  <original_smiles>  (430) 
CC1=CC2C3=CC(C)(C)C(=O)C2C(C)(C1)Oc1ccccc13

>  <smiles>  (430) 
[H]C1=C(C([H])([H])[H])C([H])([H])C2(C([H])([H])[H])Oc3c([H])c([H])c([H])c([H])c3C3=C([H])C(C([H])([H])[H])(C([H])([H])[H])C(=O)C2([H])C13[H]

$$$$
114:0:0
     RDKit          3D

 65 70  0  0  1  0  0  0  0  0999 V2000
    7.4002   -8.2159    2.1140 C   0  0  0  0  0  0  0  0  0  0  0  0
    6.3751   -7.4391    1.7241 C   0  0  0  0  0  0  0  0  0  0  0  0
    6.5499   -6.1396    1.0712 C   0  0  0  0  0  0  0  0  0  0  0  0
    7.6179   -5.5746    0.8317 O   0  0  0  0  0  0  0  0  0  0  0  0
    5.3392   -5.6523    0.7751 O   0  0  0  0  0  0  0  0  0  0  0  0
    4.2745   -6.5435    1.0703 C   0  0  1  0  0  0  0  0  0  0  0  0
    4.9011   -7.7478    1.7865 C   0  0  2  0  0  0  0  0  0  0  0  0
    4.2853   -8.1038    3.1765 C   0  0  1  0  0  0  0  0  0  0  0  0
    4.8516   -7.4016    4.4210 C   0  0  0  0  0  0  0  0  0  0  0  0
    4.7561   -5.8929    4.5983 C   0  0  1  0  0  0  0  0  0  0  0  0
    5.3880   -5.1803    3.5330 O   0  0  0  0  0  0  0  0  0  0  0  0
    4.0846   -4.7160    3.8557 C   0  0  2  0  0  0  0  0  0  0  0  0
    4.1708   -3.3053    4.4848 C   0  0  1  0  0  0  0  0  0  0  0  0
    4.8408   -3.2320    5.7306 O   0  0  0  0  0  0  0  0  0  0  0  0
    4.7910   -2.2839    3.5161 C   0  0  0  0  0  0  0  0  0  0  0  0
    4.5558   -2.6721    2.0364 C   0  0  2  0  0  0  0  0  0  0  0  0
    5.0981   -1.6522    0.9689 C   0  0  0  0  0  0  0  0  0  0  0  0
    4.4135   -0.2626    0.9950 C   0  0  0  0  0  0  0  0  0  0  0  0
    6.6151   -1.4472    1.1893 C   0  0  0  0  0  0  0  0  0  0  0  0
    4.8858   -2.2471   -0.4385 C   0  0  0  0  0  0  0  0  0  0  0  0
    5.7095   -2.0338   -1.3328 O   0  0  0  0  0  0  0  0  0  0  0  0
    3.6551   -3.0028   -0.6815 C   0  0  0  0  0  0  0  0  0  0  0  0
    2.8779   -3.4419    0.3245 C   0  0  0  0  0  0  0  0  0  0  0  0
    3.1288   -3.2966    1.8336 C   0  0  2  0  0  0  0  0  0  0  0  0
    2.0526   -2.2423    2.2522 C   0  0  0  0  0  0  0  0  0  0  0  0
    3.0087   -4.7024    2.6885 C   0  0  2  0  0  0  0  0  0  0  0  0
    1.6347   -4.7530    3.4358 C   0  0  0  0  0  0  0  0  0  0  0  0
    2.9820   -5.9959    1.7232 C   0  0  2  0  0  0  0  0  0  0  0  0
    2.1368   -7.2450    2.0956 C   0  0  0  0  0  0  0  0  0  0  0  0
    2.7348   -8.1060    3.2086 C   0  0  1  0  0  0  0  0  0  0  0  0
    2.1387   -9.5277    3.1957 C   0  0  0  0  0  0  0  0  0  0  0  0
    7.2337   -9.1868    2.5540 H   0  0  0  0  0  0  0  0  0  0  0  0
    8.4244   -7.8953    1.9755 H   0  0  0  0  0  0  0  0  0  0  0  0
    3.9699   -6.9138    0.0899 H   0  0  0  0  0  0  0  0  0  0  0  0
    4.7411   -8.6150    1.1455 H   0  0  0  0  0  0  0  0  0  0  0  0
    4.5863   -9.1409    3.3380 H   0  0  0  0  0  0  0  0  0  0  0  0
    4.3660   -7.8409    5.2946 H   0  0  0  0  0  0  0  0  0  0  0  0
    5.8994   -7.6721    4.5381 H   0  0  0  0  0  0  0  0  0  0  0  0
    5.1613   -5.6462    5.5745 H   0  0  0  0  0  0  0  0  0  0  0  0
    3.1731   -2.9729    4.7481 H   0  0  0  0  0  0  0  0  0  0  0  0
    4.4097   -3.8118    6.3443 H   0  0  0  0  0  0  0  0  0  0  0  0
    4.4263   -1.2824    3.7492 H   0  0  0  0  0  0  0  0  0  0  0  0
    5.8606   -2.2561    3.6925 H   0  0  0  0  0  0  0  0  0  0  0  0
    5.2401   -3.4964    1.8774 H   0  0  0  0  0  0  0  0  0  0  0  0
    4.2373    0.1056    2.0059 H   0  0  0  0  0  0  0  0  0  0  0  0
    3.4590   -0.2599    0.4655 H   0  0  0  0  0  0  0  0  0  0  0  0
    5.0251    0.4838    0.4844 H   0  0  0  0  0  0  0  0  0  0  0  0
    6.8225   -0.9336    2.1287 H   0  0  0  0  0  0  0  0  0  0  0  0
    7.0709   -0.8324    0.4098 H   0  0  0  0  0  0  0  0  0  0  0  0
    7.1498   -2.4006    1.1992 H   0  0  0  0  0  0  0  0  0  0  0  0
    3.3512   -3.1508   -1.7061 H   0  0  0  0  0  0  0  0  0  0  0  0
    1.9397   -3.8959    0.0449 H   0  0  0  0  0  0  0  0  0  0  0  0
    2.1076   -1.8959    3.2793 H   0  0  0  0  0  0  0  0  0  0  0  0
    1.0445   -2.6151    2.1075 H   0  0  0  0  0  0  0  0  0  0  0  0
    2.0807   -1.3481    1.6384 H   0  0  0  0  0  0  0  0  0  0  0  0
    0.7986   -4.8031    2.7383 H   0  0  0  0  0  0  0  0  0  0  0  0
    1.4360   -3.9123    4.0977 H   0  0  0  0  0  0  0  0  0  0  0  0
    1.5696   -5.6192    4.0922 H   0  0  0  0  0  0  0  0  0  0  0  0
    2.3831   -5.7109    0.8697 H   0  0  0  0  0  0  0  0  0  0  0  0
    1.0944   -7.0080    2.3052 H   0  0  0  0  0  0  0  0  0  0  0  0
    2.0711   -7.8712    1.2033 H   0  0  0  0  0  0  0  0  0  0  0  0
    2.4069   -7.6701    4.1508 H   0  0  0  0  0  0  0  0  0  0  0  0
    2.4067  -10.0783    2.2929 H   0  0  0  0  0  0  0  0  0  0  0  0
    1.0496   -9.4986    3.2551 H   0  0  0  0  0  0  0  0  0  0  0  0
    2.4903  -10.1053    4.0514 H   0  0  0  0  0  0  0  0  0  0  0  0
  1  2  2  0
  1 32  1  0
  1 33  1  0
  2  7  1  0
  2  3  1  0
  3  4  2  0
  3  5  1  0
  5  6  1  0
  6 28  1  0
  6  7  1  0
  6 34  1  6
  7  8  1  0
  7 35  1  6
  8 30  1  0
  8  9  1  0
  8 36  1  1
  9 10  1  0
  9 37  1  0
  9 38  1  0
 10 12  1  0
 10 11  1  0
 10 39  1  1
 12 11  1  6
 12 26  1  0
 12 13  1  0
 13 14  1  0
 13 15  1  0
 13 40  1  1
 14 41  1  0
 15 16  1  0
 15 42  1  0
 15 43  1  0
 16 24  1  0
 16 17  1  0
 16 44  1  6
 17 18  1  0
 17 19  1  0
 17 20  1  0
 18 45  1  0
 18 46  1  0
 18 47  1  0
 19 48  1  0
 19 49  1  0
 19 50  1  0
 20 21  2  0
 20 22  1  0
 22 23  2  0
 22 51  1  0
 23 24  1  0
 23 52  1  0
 24 25  1  1
 24 26  1  0
 25 53  1  0
 25 54  1  0
 25 55  1  0
 26 27  1  1
 26 28  1  0
 27 56  1  0
 27 57  1  0
 27 58  1  0
 28 29  1  0
 28 59  1  6
 29 30  1  0
 29 60  1  0
 29 61  1  0
 30 31  1  0
 30 62  1  1
 31 63  1  0
 31 64  1  0
 31 65  1  0
M  END
>  <i_m_ct_stereo_status>  (431) 
1

>  <s_m_source_file>  (431) 
/var/tmp/pbs.5076255.sched01/tmpg_ssl3dq/162k0u29fl7.sdf

>  <i_m_source_file_index>  (431) 
40

>  <i_lp_mmshare_version>  (431) 
48012

>  <i_f3d_flags>  (431) 
0

>  <s_epik_input>  (431) 
TzFbQ0BASF0oW0NAXTEyMylbQ0gyXVtDQEBIXTRbQ0BIXTVbQ0BIXShPQyg9TylDNT1bQ0gyXSlbQ0BASF0oW0NIMl1bQ0BIXTRbQ0gzXSlbQ0BdMyhbQ0gzXSlbQ0BAXTYoW0NIM10pW0NASF0oW0NIMl1bQ0BASF0yW09IXSlDKFtDSDNdKShbQ0gzXSlDKD1PKVtDSF09W0NIXTY=

>  <s_epik_cmdline>  (431) 
J2VwaWtfcHl0aG9uJywgJy1waHQnLCAnMi4wJywgJy1waCcsICc3LjAnLCAnLXRuJywgJzgnLCAnLW1hJywgJzIwMCcsICctaW1hZScsICc8aW5maWxlLm1hZT4nLCAnLW9tYWUnLCAnPG91dGZpbGUubWFlPic=

>  <r_lp_tautomer_probability>  (431) 
1

>  <r_epik_Ionization_Penalty>  (431) 
6.09229e-08

>  <r_epik_Ionization_Penalty_Charging>  (431) 
0

>  <r_epik_Ionization_Penalty_Neutral>  (431) 
6.09229e-08

>  <r_epik_State_Penalty>  (431) 
-0

>  <r_epik_Charging_Adjusted_Penalty>  (431) 
0

>  <i_epik_Tot_Q>  (431) 
0

>  <i_epik_Tot_abs_Q>  (431) 
0

>  <s_epik_Chemistry_Notes>  (431) 
This compound has an ester and may undergo hydrolysis at high or low pH.

>  <s_lp_Force_Field>  (431) 
OPLS3e

>  <r_lp_Energy>  (431) 
95.8765

>  <b_lp_Chiralities_Consistent>  (431) 
1

>  <s_lp_Variant>  (431) 
114:0-1

>  <s_i_glide_gridfile>  (431) 
pfpi4k_grid

>  <i_i_glide_lignum>  (431) 
40

>  <i_i_glide_rotatable_bonds>  (431) 
1

>  <r_i_docking_score>  (431) 
-2.9826

>  <r_i_glide_ligand_efficiency>  (431) 
-0.0962129

>  <r_i_glide_ligand_efficiency_sa>  (431) 
-0.302241

>  <r_i_glide_ligand_efficiency_ln>  (431) 
-0.672668

>  <r_i_glide_gscore>  (431) 
-2.9826

>  <r_i_glide_lipo>  (431) 
-0.581253

>  <r_i_glide_hbond>  (431) 
0

>  <r_i_glide_metal>  (431) 
-0

>  <r_i_glide_rewards>  (431) 
-0.60166

>  <r_i_glide_evdw>  (431) 
-28.4945

>  <r_i_glide_ecoul>  (431) 
-2.41713

>  <r_i_glide_erotb>  (431) 
0

>  <r_i_glide_esite>  (431) 
-0.012395

>  <r_i_glide_emodel>  (431) 
-36.2519

>  <r_i_glide_energy>  (431) 
-30.9116

>  <r_i_glide_einternal>  (431) 
0.327335

>  <r_i_glide_intrahb_reward>  (431) 
-0

>  <i_i_glide_confnum>  (431) 
1

>  <i_i_glide_posenum>  (431) 
36

>  <r_i_glide_eff_state_penalty>  (431) 
0

>  <ligand_id>  (431) 
114

>  <original_smiles>  (431) 
C=C1C(=O)OC2C1C1CC3OC34C(O)CC3C(C)(C)C(=O)C=CC3(C)C4(C)C2CC1C

>  <smiles>  (431) 
[H]OC1([H])C([H])([H])C2([H])C(C([H])([H])[H])(C([H])([H])[H])C(=O)C([H])=C([H])C2(C([H])([H])[H])C2(C([H])([H])[H])C3([H])C([H])([H])C([H])(C([H])([H])[H])C([H])(C([H])([H])C4([H])OC412)C1([H])C(=C([H])[H])C(=O)OC13[H]

$$$$
114:0:1
     RDKit          3D

 65 70  0  0  1  0  0  0  0  0999 V2000
    8.3821   -8.1067    3.2817 C   0  0  0  0  0  0  0  0  0  0  0  0
    7.4077   -7.5438    2.5480 C   0  0  0  0  0  0  0  0  0  0  0  0
    7.6181   -6.4041    1.6462 C   0  0  0  0  0  0  0  0  0  0  0  0
    8.6647   -5.7799    1.4666 O   0  0  0  0  0  0  0  0  0  0  0  0
    6.4547   -6.1242    1.0466 O   0  0  0  0  0  0  0  0  0  0  0  0
    5.4140   -7.0352    1.3599 C   0  0  1  0  0  0  0  0  0  0  0  0
    5.9715   -7.9871    2.4235 C   0  0  2  0  0  0  0  0  0  0  0  0
    5.1233   -8.1092    3.7278 C   0  0  1  0  0  0  0  0  0  0  0  0
    5.3879   -7.1050    4.8594 C   0  0  0  0  0  0  0  0  0  0  0  0
    5.1532   -5.6124    4.6726 C   0  0  1  0  0  0  0  0  0  0  0  0
    5.9350   -5.0717    3.6045 O   0  0  0  0  0  0  0  0  0  0  0  0
    4.5662   -4.6942    3.5783 C   0  0  2  0  0  0  0  0  0  0  0  0
    4.4453   -3.1814    3.8739 C   0  0  1  0  0  0  0  0  0  0  0  0
    4.8421   -2.7883    5.1730 O   0  0  0  0  0  0  0  0  0  0  0  0
    5.1754   -2.3220    2.8248 C   0  0  0  0  0  0  0  0  0  0  0  0
    5.2569   -3.0419    1.4570 C   0  0  2  0  0  0  0  0  0  0  0  0
    5.9174   -2.2130    0.2962 C   0  0  0  0  0  0  0  0  0  0  0  0
    5.1463   -0.9403   -0.1170 C   0  0  0  0  0  0  0  0  0  0  0  0
    7.3480   -1.7918    0.7100 C   0  0  0  0  0  0  0  0  0  0  0  0
    6.0162   -3.1056   -0.9524 C   0  0  0  0  0  0  0  0  0  0  0  0
    6.9729   -2.9808   -1.7182 O   0  0  0  0  0  0  0  0  0  0  0  0
    4.9119   -4.0231   -1.2320 C   0  0  0  0  0  0  0  0  0  0  0  0
    3.9858   -4.3202   -0.3021 C   0  0  0  0  0  0  0  0  0  0  0  0
    3.9381   -3.8388    1.1531 C   0  0  2  0  0  0  0  0  0  0  0  0
    2.7324   -2.8557    1.1166 C   0  0  0  0  0  0  0  0  0  0  0  0
    3.7417   -5.0390    2.2666 C   0  0  2  0  0  0  0  0  0  0  0  0
    2.2552   -5.0824    2.7478 C   0  0  0  0  0  0  0  0  0  0  0  0
    3.9879   -6.5016    1.6302 C   0  0  2  0  0  0  0  0  0  0  0  0
    3.1750   -7.7342    2.1178 C   0  0  0  0  0  0  0  0  0  0  0  0
    3.5998   -8.2716    3.4856 C   0  0  1  0  0  0  0  0  0  0  0  0
    3.1144   -9.7198    3.6924 C   0  0  0  0  0  0  0  0  0  0  0  0
    8.1989   -8.9696    3.9029 H   0  0  0  0  0  0  0  0  0  0  0  0
    9.3915   -7.7180    3.2528 H   0  0  0  0  0  0  0  0  0  0  0  0
    5.3263   -7.6415    0.4598 H   0  0  0  0  0  0  0  0  0  0  0  0
    5.9962   -8.9819    1.9762 H   0  0  0  0  0  0  0  0  0  0  0  0
    5.4569   -9.0498    4.1695 H   0  0  0  0  0  0  0  0  0  0  0  0
    4.7723   -7.4007    5.7105 H   0  0  0  0  0  0  0  0  0  0  0  0
    6.4095   -7.2277    5.2169 H   0  0  0  0  0  0  0  0  0  0  0  0
    5.3403   -5.1252    5.6241 H   0  0  0  0  0  0  0  0  0  0  0  0
    3.3960   -2.9078    3.8795 H   0  0  0  0  0  0  0  0  0  0  0  0
    5.7569   -3.0125    5.2873 H   0  0  0  0  0  0  0  0  0  0  0  0
    4.6940   -1.3436    2.7536 H   0  0  0  0  0  0  0  0  0  0  0  0
    6.1921   -2.1264    3.1656 H   0  0  0  0  0  0  0  0  0  0  0  0
    6.0155   -3.8044    1.6082 H   0  0  0  0  0  0  0  0  0  0  0  0
    4.7587   -0.3796    0.7335 H   0  0  0  0  0  0  0  0  0  0  0  0
    4.3137   -1.1493   -0.7908 H   0  0  0  0  0  0  0  0  0  0  0  0
    5.8006   -0.2700   -0.6740 H   0  0  0  0  0  0  0  0  0  0  0  0
    7.3402   -1.0682    1.5277 H   0  0  0  0  0  0  0  0  0  0  0  0
    7.9208   -1.3316   -0.0938 H   0  0  0  0  0  0  0  0  0  0  0  0
    7.9210   -2.6679    1.0187 H   0  0  0  0  0  0  0  0  0  0  0  0
    4.8221   -4.4128   -2.2365 H   0  0  0  0  0  0  0  0  0  0  0  0
    3.1489   -4.9186   -0.6263 H   0  0  0  0  0  0  0  0  0  0  0  0
    2.5474   -2.3087    2.0344 H   0  0  0  0  0  0  0  0  0  0  0  0
    1.8192   -3.3809    0.8544 H   0  0  0  0  0  0  0  0  0  0  0  0
    2.8245   -2.1013    0.3452 H   0  0  0  0  0  0  0  0  0  0  0  0
    1.5770   -5.3707    1.9442 H   0  0  0  0  0  0  0  0  0  0  0  0
    1.8754   -4.1504    3.1590 H   0  0  0  0  0  0  0  0  0  0  0  0
    2.1187   -5.7935    3.5610 H   0  0  0  0  0  0  0  0  0  0  0  0
    3.5503   -6.4689    0.6424 H   0  0  0  0  0  0  0  0  0  0  0  0
    2.0987   -7.5736    2.0818 H   0  0  0  0  0  0  0  0  0  0  0  0
    3.3268   -8.5350    1.3883 H   0  0  0  0  0  0  0  0  0  0  0  0
    3.0660   -7.6851    4.2324 H   0  0  0  0  0  0  0  0  0  0  0  0
    3.5855  -10.4172    2.9980 H   0  0  0  0  0  0  0  0  0  0  0  0
    2.0352   -9.7965    3.5539 H   0  0  0  0  0  0  0  0  0  0  0  0
    3.3300  -10.0641    4.7044 H   0  0  0  0  0  0  0  0  0  0  0  0
  1  2  2  0
  1 32  1  0
  1 33  1  0
  2  7  1  0
  2  3  1  0
  3  4  2  0
  3  5  1  0
  5  6  1  0
  6 28  1  0
  6  7  1  0
  6 34  1  6
  7  8  1  0
  7 35  1  6
  8 30  1  0
  8  9  1  0
  8 36  1  1
  9 10  1  0
  9 37  1  0
  9 38  1  0
 10 12  1  0
 10 11  1  0
 10 39  1  1
 12 11  1  6
 12 26  1  0
 12 13  1  0
 13 14  1  0
 13 15  1  0
 13 40  1  1
 14 41  1  0
 15 16  1  0
 15 42  1  0
 15 43  1  0
 16 24  1  0
 16 17  1  0
 16 44  1  1
 17 18  1  0
 17 19  1  0
 17 20  1  0
 18 45  1  0
 18 46  1  0
 18 47  1  0
 19 48  1  0
 19 49  1  0
 19 50  1  0
 20 21  2  0
 20 22  1  0
 22 23  2  0
 22 51  1  0
 23 24  1  0
 23 52  1  0
 24 25  1  6
 24 26  1  0
 25 53  1  0
 25 54  1  0
 25 55  1  0
 26 27  1  1
 26 28  1  0
 27 56  1  0
 27 57  1  0
 27 58  1  0
 28 29  1  0
 28 59  1  6
 29 30  1  0
 29 60  1  0
 29 61  1  0
 30 31  1  0
 30 62  1  1
 31 63  1  0
 31 64  1  0
 31 65  1  0
M  END
>  <i_m_ct_stereo_status>  (432) 
1

>  <s_m_source_file>  (432) 
/var/tmp/pbs.5076255.sched01/tmpg_ssl3dq/162k0u29fl7.sdf

>  <i_m_source_file_index>  (432) 
40

>  <i_lp_mmshare_version>  (432) 
48012

>  <i_f3d_flags>  (432) 
0

>  <s_epik_input>  (432) 
TzFbQ0BASF0oW0NAXTEyMylbQ0gyXVtDQEBIXTRbQ0BIXTVbQ0BIXShPQyg9TylDNT1bQ0gyXSlbQ0BASF0oW0NIMl1bQ0BIXTRbQ0gzXSlbQ0BdMyhbQ0gzXSlbQ0BAXTYoW0NIM10pW0NASF0oW0NIMl1bQ0BASF0yW09IXSlDKFtDSDNdKShbQ0gzXSlDKD1PKVtDSF09W0NIXTY=

>  <s_epik_cmdline>  (432) 
J2VwaWtfcHl0aG9uJywgJy1waHQnLCAnMi4wJywgJy1waCcsICc3LjAnLCAnLXRuJywgJzgnLCAnLW1hJywgJzIwMCcsICctaW1hZScsICc8aW5maWxlLm1hZT4nLCAnLW9tYWUnLCAnPG91dGZpbGUubWFlPic=

>  <r_lp_tautomer_probability>  (432) 
1

>  <r_epik_Ionization_Penalty>  (432) 
6.09229e-08

>  <r_epik_Ionization_Penalty_Charging>  (432) 
0

>  <r_epik_Ionization_Penalty_Neutral>  (432) 
6.09229e-08

>  <r_epik_State_Penalty>  (432) 
-0

>  <r_epik_Charging_Adjusted_Penalty>  (432) 
0

>  <i_epik_Tot_Q>  (432) 
0

>  <i_epik_Tot_abs_Q>  (432) 
0

>  <s_epik_Chemistry_Notes>  (432) 
This compound has an ester and may undergo hydrolysis at high or low pH.

>  <s_lp_Force_Field>  (432) 
OPLS3e

>  <r_lp_Energy>  (432) 
95.8765

>  <b_lp_Chiralities_Consistent>  (432) 
1

>  <s_lp_Variant>  (432) 
114:0-1

>  <s_i_glide_gridfile>  (432) 
pfpi4k_grid

>  <i_i_glide_lignum>  (432) 
40

>  <i_i_glide_rotatable_bonds>  (432) 
1

>  <r_i_docking_score>  (432) 
-2.55885

>  <r_i_glide_ligand_efficiency>  (432) 
-0.0825435

>  <r_i_glide_ligand_efficiency_sa>  (432) 
-0.259301

>  <r_i_glide_ligand_efficiency_ln>  (432) 
-0.577099

>  <r_i_glide_gscore>  (432) 
-2.55885

>  <r_i_glide_lipo>  (432) 
-0.355099

>  <r_i_glide_hbond>  (432) 
0

>  <r_i_glide_metal>  (432) 
-0

>  <r_i_glide_rewards>  (432) 
-0.582911

>  <r_i_glide_evdw>  (432) 
-27.7575

>  <r_i_glide_ecoul>  (432) 
-1.50386

>  <r_i_glide_erotb>  (432) 
0

>  <r_i_glide_esite>  (432) 
-0.00738552

>  <r_i_glide_emodel>  (432) 
-33.9131

>  <r_i_glide_energy>  (432) 
-29.2613

>  <r_i_glide_einternal>  (432) 
0.00837491

>  <r_i_glide_intrahb_reward>  (432) 
-0

>  <i_i_glide_confnum>  (432) 
1

>  <i_i_glide_posenum>  (432) 
1

>  <r_i_glide_eff_state_penalty>  (432) 
0

>  <ligand_id>  (432) 
114

>  <original_smiles>  (432) 
C=C1C(=O)OC2C1C1CC3OC34C(O)CC3C(C)(C)C(=O)C=CC3(C)C4(C)C2CC1C

>  <smiles>  (432) 
[H]OC1([H])C([H])([H])C2([H])C(C([H])([H])[H])(C([H])([H])[H])C(=O)C([H])=C([H])C2(C([H])([H])[H])C2(C([H])([H])[H])C3([H])C([H])([H])C([H])(C([H])([H])[H])C([H])(C([H])([H])C4([H])OC412)C1([H])C(=C([H])[H])C(=O)OC13[H]

$$$$
114:0:2
     RDKit          3D

 65 70  0  0  1  0  0  0  0  0999 V2000
    3.7281    0.3501    3.0394 C   0  0  0  0  0  0  0  0  0  0  0  0
    3.4401   -0.8651    2.5708 C   0  0  0  0  0  0  0  0  0  0  0  0
    3.1229   -2.0028    3.4267 C   0  0  0  0  0  0  0  0  0  0  0  0
    3.1641   -2.0249    4.6657 O   0  0  0  0  0  0  0  0  0  0  0  0
    2.7675   -3.0331    2.6566 O   0  0  0  0  0  0  0  0  0  0  0  0
    2.7095   -2.6976    1.2789 C   0  0  1  0  0  0  0  0  0  0  0  0
    3.2155   -1.2613    1.1380 C   0  0  2  0  0  0  0  0  0  0  0  0
    4.3654   -1.0357    0.1071 C   0  0  1  0  0  0  0  0  0  0  0  0
    5.8050   -1.2074    0.6255 C   0  0  0  0  0  0  0  0  0  0  0  0
    6.3114   -2.5477    1.1289 C   0  0  1  0  0  0  0  0  0  0  0  0
    5.5872   -3.0006    2.2690 O   0  0  0  0  0  0  0  0  0  0  0  0
    5.7733   -3.9853    1.2744 C   0  0  2  0  0  0  0  0  0  0  0  0
    6.7166   -5.1070    1.7439 C   0  0  1  0  0  0  0  0  0  0  0  0
    8.0996   -4.8036    1.7934 O   0  0  0  0  0  0  0  0  0  0  0  0
    6.1529   -5.8207    2.9816 C   0  0  0  0  0  0  0  0  0  0  0  0
    4.5940   -5.8109    2.9669 C   0  0  2  0  0  0  0  0  0  0  0  0
    3.8872   -6.6014    4.1197 C   0  0  0  0  0  0  0  0  0  0  0  0
    4.1351   -8.1261    4.1117 C   0  0  0  0  0  0  0  0  0  0  0  0
    4.3671   -6.0484    5.4829 C   0  0  0  0  0  0  0  0  0  0  0  0
    2.3649   -6.3695    3.9929 C   0  0  0  0  0  0  0  0  0  0  0  0
    1.6696   -6.2732    5.0016 O   0  0  0  0  0  0  0  0  0  0  0  0
    1.7586   -6.3409    2.6566 C   0  0  0  0  0  0  0  0  0  0  0  0
    2.5180   -6.1784    1.5477 C   0  0  0  0  0  0  0  0  0  0  0  0
    4.0366   -5.9535    1.5021 C   0  0  2  0  0  0  0  0  0  0  0  0
    4.5300   -7.3229    0.9018 C   0  0  0  0  0  0  0  0  0  0  0  0
    4.5023   -4.6328    0.6374 C   0  0  2  0  0  0  0  0  0  0  0  0
    5.0604   -5.0706   -0.7061 C   0  0  0  0  0  0  0  0  0  0  0  0
    3.2748   -3.6811    0.2475 C   0  0  2  0  0  0  0  0  0  0  0  0
    3.2456   -2.9645   -1.1316 C   0  0  0  0  0  0  0  0  0  0  0  0
    4.1961   -1.7670   -1.2560 C   0  0  1  0  0  0  0  0  0  0  0  0
    3.7688   -0.8382   -2.4141 C   0  0  0  0  0  0  0  0  0  0  0  0
    3.8112    1.1863    2.3633 H   0  0  0  0  0  0  0  0  0  0  0  0
    3.8309    0.5391    4.1007 H   0  0  0  0  0  0  0  0  0  0  0  0
    1.6469   -2.6487    1.0611 H   0  0  0  0  0  0  0  0  0  0  0  0
    2.3688   -0.6612    0.8103 H   0  0  0  0  0  0  0  0  0  0  0  0
    4.3139    0.0322   -0.1169 H   0  0  0  0  0  0  0  0  0  0  0  0
    6.4634   -0.9245   -0.1935 H   0  0  0  0  0  0  0  0  0  0  0  0
    6.0054   -0.4692    1.3994 H   0  0  0  0  0  0  0  0  0  0  0  0
    7.3758   -2.4806    1.2678 H   0  0  0  0  0  0  0  0  0  0  0  0
    6.8353   -5.8631    0.9826 H   0  0  0  0  0  0  0  0  0  0  0  0
    8.4985   -5.3929    2.4409 H   0  0  0  0  0  0  0  0  0  0  0  0
    6.5452   -6.8368    3.0407 H   0  0  0  0  0  0  0  0  0  0  0  0
    6.4879   -5.3013    3.8748 H   0  0  0  0  0  0  0  0  0  0  0  0
    4.3378   -4.7927    3.2485 H   0  0  0  0  0  0  0  0  0  0  0  0
    5.1660   -8.3855    3.8741 H   0  0  0  0  0  0  0  0  0  0  0  0
    3.4846   -8.6488    3.4109 H   0  0  0  0  0  0  0  0  0  0  0  0
    3.9099   -8.5597    5.0895 H   0  0  0  0  0  0  0  0  0  0  0  0
    5.4198   -6.2654    5.6608 H   0  0  0  0  0  0  0  0  0  0  0  0
    3.8132   -6.4833    6.3181 H   0  0  0  0  0  0  0  0  0  0  0  0
    4.2281   -4.9671    5.5373 H   0  0  0  0  0  0  0  0  0  0  0  0
    0.6945   -6.5106    2.5807 H   0  0  0  0  0  0  0  0  0  0  0  0
    2.0462   -6.2752    0.5780 H   0  0  0  0  0  0  0  0  0  0  0  0
    5.6027   -7.4725    0.8776 H   0  0  0  0  0  0  0  0  0  0  0  0
    4.1881   -7.4615   -0.1169 H   0  0  0  0  0  0  0  0  0  0  0  0
    4.1465   -8.1846    1.4414 H   0  0  0  0  0  0  0  0  0  0  0  0
    4.2173   -5.4970   -1.1737 H   0  0  0  0  0  0  0  0  0  0  0  0
    5.8143   -5.8300   -0.6582 H   0  0  0  0  0  0  0  0  0  0  0  0
    5.4570   -4.2644   -1.3076 H   0  0  0  0  0  0  0  0  0  0  0  0
    2.4487   -4.3433    0.0254 H   0  0  0  0  0  0  0  0  0  0  0  0
    3.3594   -3.6372   -1.9869 H   0  0  0  0  0  0  0  0  0  0  0  0
    2.2302   -2.5935   -1.2787 H   0  0  0  0  0  0  0  0  0  0  0  0
    5.1656   -2.1614   -1.5673 H   0  0  0  0  0  0  0  0  0  0  0  0
    2.7803   -0.4073   -2.2644 H   0  0  0  0  0  0  0  0  0  0  0  0
    3.6990   -1.3742   -3.3588 H   0  0  0  0  0  0  0  0  0  0  0  0
    4.4769   -0.0174   -2.5327 H   0  0  0  0  0  0  0  0  0  0  0  0
  1  2  2  0
  1 32  1  0
  1 33  1  0
  2  7  1  0
  2  3  1  0
  3  4  2  0
  3  5  1  0
  5  6  1  0
  6 28  1  0
  6  7  1  0
  6 34  1  6
  7  8  1  0
  7 35  1  6
  8 30  1  0
  8  9  1  0
  8 36  1  6
  9 10  1  0
  9 37  1  0
  9 38  1  0
 10 12  1  0
 10 11  1  0
 10 39  1  1
 12 11  1  1
 12 26  1  0
 12 13  1  0
 13 14  1  0
 13 15  1  0
 13 40  1  6
 14 41  1  0
 15 16  1  0
 15 42  1  0
 15 43  1  0
 16 24  1  0
 16 17  1  0
 16 44  1  1
 17 18  1  0
 17 19  1  0
 17 20  1  0
 18 45  1  0
 18 46  1  0
 18 47  1  0
 19 48  1  0
 19 49  1  0
 19 50  1  0
 20 21  2  0
 20 22  1  0
 22 23  2  0
 22 51  1  0
 23 24  1  0
 23 52  1  0
 24 25  1  6
 24 26  1  0
 25 53  1  0
 25 54  1  0
 25 55  1  0
 26 27  1  6
 26 28  1  0
 27 56  1  0
 27 57  1  0
 27 58  1  0
 28 29  1  0
 28 59  1  6
 29 30  1  0
 29 60  1  0
 29 61  1  0
 30 31  1  0
 30 62  1  6
 31 63  1  0
 31 64  1  0
 31 65  1  0
M  END
>  <i_m_ct_stereo_status>  (433) 
1

>  <s_m_source_file>  (433) 
/var/tmp/pbs.5076255.sched01/tmpg_ssl3dq/162k0u29fl7.sdf

>  <i_m_source_file_index>  (433) 
40

>  <i_lp_mmshare_version>  (433) 
48012

>  <i_f3d_flags>  (433) 
0

>  <s_epik_input>  (433) 
TzFbQ0BASF0oW0NAXTEyMylbQ0gyXVtDQEBIXTRbQ0BIXTVbQ0BIXShPQyg9TylDNT1bQ0gyXSlbQ0BASF0oW0NIMl1bQ0BIXTRbQ0gzXSlbQ0BdMyhbQ0gzXSlbQ0BAXTYoW0NIM10pW0NASF0oW0NIMl1bQ0BASF0yW09IXSlDKFtDSDNdKShbQ0gzXSlDKD1PKVtDSF09W0NIXTY=

>  <s_epik_cmdline>  (433) 
J2VwaWtfcHl0aG9uJywgJy1waHQnLCAnMi4wJywgJy1waCcsICc3LjAnLCAnLXRuJywgJzgnLCAnLW1hJywgJzIwMCcsICctaW1hZScsICc8aW5maWxlLm1hZT4nLCAnLW9tYWUnLCAnPG91dGZpbGUubWFlPic=

>  <r_lp_tautomer_probability>  (433) 
1

>  <r_epik_Ionization_Penalty>  (433) 
6.09229e-08

>  <r_epik_Ionization_Penalty_Charging>  (433) 
0

>  <r_epik_Ionization_Penalty_Neutral>  (433) 
6.09229e-08

>  <r_epik_State_Penalty>  (433) 
-0

>  <r_epik_Charging_Adjusted_Penalty>  (433) 
0

>  <i_epik_Tot_Q>  (433) 
0

>  <i_epik_Tot_abs_Q>  (433) 
0

>  <s_epik_Chemistry_Notes>  (433) 
This compound has an ester and may undergo hydrolysis at high or low pH.

>  <s_lp_Force_Field>  (433) 
OPLS3e

>  <r_lp_Energy>  (433) 
95.8765

>  <b_lp_Chiralities_Consistent>  (433) 
1

>  <s_lp_Variant>  (433) 
114:0-1

>  <s_i_glide_gridfile>  (433) 
pfpi4k_grid

>  <i_i_glide_lignum>  (433) 
40

>  <i_i_glide_rotatable_bonds>  (433) 
1

>  <r_i_docking_score>  (433) 
-2.48808

>  <r_i_glide_ligand_efficiency>  (433) 
-0.0802607

>  <r_i_glide_ligand_efficiency_sa>  (433) 
-0.252129

>  <r_i_glide_ligand_efficiency_ln>  (433) 
-0.561139

>  <r_i_glide_gscore>  (433) 
-2.48808

>  <r_i_glide_lipo>  (433) 
-0.546236

>  <r_i_glide_hbond>  (433) 
0

>  <r_i_glide_metal>  (433) 
-0

>  <r_i_glide_rewards>  (433) 
-0.500832

>  <r_i_glide_evdw>  (433) 
-22.879

>  <r_i_glide_ecoul>  (433) 
-1.97762

>  <r_i_glide_erotb>  (433) 
0

>  <r_i_glide_esite>  (433) 
-0.000420555

>  <r_i_glide_emodel>  (433) 
-27.3748

>  <r_i_glide_energy>  (433) 
-24.8566

>  <r_i_glide_einternal>  (433) 
0.425181

>  <r_i_glide_intrahb_reward>  (433) 
-0

>  <i_i_glide_confnum>  (433) 
1

>  <i_i_glide_posenum>  (433) 
17

>  <r_i_glide_eff_state_penalty>  (433) 
0

>  <ligand_id>  (433) 
114

>  <original_smiles>  (433) 
C=C1C(=O)OC2C1C1CC3OC34C(O)CC3C(C)(C)C(=O)C=CC3(C)C4(C)C2CC1C

>  <smiles>  (433) 
[H]OC1([H])C([H])([H])C2([H])C(C([H])([H])[H])(C([H])([H])[H])C(=O)C([H])=C([H])C2(C([H])([H])[H])C2(C([H])([H])[H])C3([H])C([H])([H])C([H])(C([H])([H])[H])C([H])(C([H])([H])C4([H])OC412)C1([H])C(=C([H])[H])C(=O)OC13[H]

$$$$
115:0:0
     RDKit          3D

 56 61  0  0  1  0  0  0  0  0999 V2000
    1.5325   -5.4646    2.0304 C   0  0  0  0  0  0  0  0  0  0  0  0
    2.8159   -4.6957    2.4374 C   0  0  2  0  0  0  0  0  0  0  0  0
    2.9054   -4.9363    3.9951 C   0  0  0  0  0  0  0  0  0  0  0  0
    3.3398   -3.7168    4.8583 C   0  0  1  0  0  0  0  0  0  0  0  0
    4.4370   -3.9600    5.7109 O   0  0  0  0  0  0  0  0  0  0  0  0
    3.3268   -2.3742    4.0953 C   0  0  2  0  0  0  0  0  0  0  0  0
    2.1358   -2.6311    3.3383 O   0  0  0  0  0  0  0  0  0  0  0  0
    2.5740   -3.1838    2.0883 C   0  0  1  0  0  0  0  0  0  0  0  0
    3.5553   -1.9976    1.8110 C   0  0  2  0  0  0  0  0  0  0  0  0
    2.4323   -0.8234    1.6964 C   0  0  0  0  0  0  0  0  0  0  0  0
    4.6146   -1.6436    0.6990 C   0  0  2  0  0  0  0  0  0  0  0  0
    5.9900   -1.9578    0.4599 O   0  0  0  0  0  0  0  0  0  0  0  0
    5.0018   -0.2488    1.2777 C   0  0  0  0  0  0  0  0  0  0  0  0
    5.0607   -0.5775    2.8353 C   0  0  1  0  0  0  0  0  0  0  0  0
    4.4714    0.4225    3.6506 O   0  0  0  0  0  0  0  0  0  0  0  0
    4.4267   -2.0327    3.0107 C   0  0  1  0  0  0  0  0  0  0  0  0
    5.5689   -3.1265    2.8843 C   0  0  0  0  0  0  0  0  0  0  0  0
    5.6917   -4.2726    1.7821 C   0  0  1  0  0  0  0  0  0  0  0  0
    7.0618   -4.2944    1.4445 O   0  0  0  0  0  0  0  0  0  0  0  0
    5.2691   -5.6273    2.3360 C   0  0  0  0  0  0  0  0  0  0  0  0
    3.9390   -5.3599    1.6296 C   0  0  2  0  0  0  0  0  0  0  0  0
    4.7439   -4.6165    0.5213 C   0  0  2  0  0  0  0  0  0  0  0  0
    5.4025   -5.5740   -0.2783 O   0  0  0  0  0  0  0  0  0  0  0  0
    4.0929   -3.6918   -0.6789 C   0  0  1  0  0  0  0  0  0  0  0  0
    4.7405   -3.8493   -2.0936 C   0  0  0  0  0  0  0  0  0  0  0  0
    2.7814   -4.1939   -0.8114 O   0  0  0  0  0  0  0  0  0  0  0  0
    3.9733   -2.1403   -0.5446 C   0  0  0  0  0  0  0  0  0  0  0  0
    3.5037   -1.3946   -1.4004 O   0  0  0  0  0  0  0  0  0  0  0  0
    1.5718   -6.5103    2.3355 H   0  0  0  0  0  0  0  0  0  0  0  0
    1.3837   -5.4576    0.9508 H   0  0  0  0  0  0  0  0  0  0  0  0
    0.6432   -5.0270    2.4916 H   0  0  0  0  0  0  0  0  0  0  0  0
    1.8955   -5.1602    4.3472 H   0  0  0  0  0  0  0  0  0  0  0  0
    3.4255   -5.8507    4.2617 H   0  0  0  0  0  0  0  0  0  0  0  0
    2.5301   -3.6104    5.5791 H   0  0  0  0  0  0  0  0  0  0  0  0
    5.2236   -4.0631    5.1966 H   0  0  0  0  0  0  0  0  0  0  0  0
    3.1683   -1.5427    4.7825 H   0  0  0  0  0  0  0  0  0  0  0  0
    1.8178   -3.1491    1.3136 H   0  0  0  0  0  0  0  0  0  0  0  0
    2.4437   -0.2827    0.7512 H   0  0  0  0  0  0  0  0  0  0  0  0
    2.4676   -0.0715    2.4824 H   0  0  0  0  0  0  0  0  0  0  0  0
    1.3873   -1.1438    1.7244 H   0  0  0  0  0  0  0  0  0  0  0  0
    6.1324   -2.8997    0.4606 H   0  0  0  0  0  0  0  0  0  0  0  0
    5.9562    0.1657    0.9334 H   0  0  0  0  0  0  0  0  0  0  0  0
    4.3164    0.5645    1.0349 H   0  0  0  0  0  0  0  0  0  0  0  0
    6.1056   -0.5534    3.1466 H   0  0  0  0  0  0  0  0  0  0  0  0
    4.6151    1.2703    3.2491 H   0  0  0  0  0  0  0  0  0  0  0  0
    6.4588   -2.5325    2.7442 H   0  0  0  0  0  0  0  0  0  0  0  0
    5.8153   -3.5362    3.8508 H   0  0  0  0  0  0  0  0  0  0  0  0
    7.5008   -4.7738    2.1345 H   0  0  0  0  0  0  0  0  0  0  0  0
    5.8290   -6.4809    1.9348 H   0  0  0  0  0  0  0  0  0  0  0  0
    5.2972   -5.6798    3.4226 H   0  0  0  0  0  0  0  0  0  0  0  0
    3.6214   -6.3274    1.2364 H   0  0  0  0  0  0  0  0  0  0  0  0
    4.7574   -5.9221   -0.8907 H   0  0  0  0  0  0  0  0  0  0  0  0
    5.7995   -3.5969   -2.0892 H   0  0  0  0  0  0  0  0  0  0  0  0
    4.2647   -3.2233   -2.8446 H   0  0  0  0  0  0  0  0  0  0  0  0
    4.6571   -4.8482   -2.5016 H   0  0  0  0  0  0  0  0  0  0  0  0
    2.8100   -4.9399   -1.4030 H   0  0  0  0  0  0  0  0  0  0  0  0
  2  1  1  6
  1 29  1  0
  1 30  1  0
  1 31  1  0
  2  8  1  0
  2 21  1  0
  2  3  1  0
  3  4  1  0
  3 32  1  0
  3 33  1  0
  4  5  1  0
  4  6  1  0
  4 34  1  1
  5 35  1  0
  6 16  1  0
  6  7  1  0
  6 36  1  1
  7  8  1  0
  8  9  1  0
  8 37  1  6
  9 16  1  0
  9 10  1  1
  9 11  1  0
 10 38  1  0
 10 39  1  0
 10 40  1  0
 11 27  1  0
 11 12  1  1
 11 13  1  0
 12 41  1  0
 13 14  1  0
 13 42  1  0
 13 43  1  0
 14 15  1  0
 14 16  1  0
 14 44  1  1
 15 45  1  0
 16 17  1  6
 17 18  1  0
 17 46  1  0
 17 47  1  0
 18 22  1  0
 18 19  1  6
 18 20  1  0
 19 48  1  0
 20 21  1  0
 20 49  1  0
 20 50  1  0
 21 22  1  0
 21 51  1  6
 22 23  1  6
 22 24  1  0
 23 52  1  0
 24 25  1  0
 24 26  1  6
 24 27  1  0
 25 53  1  0
 25 54  1  0
 25 55  1  0
 26 56  1  0
 27 28  2  0
M  END
>  <i_m_ct_stereo_status>  (434) 
1

>  <s_m_source_file>  (434) 
/var/tmp/pbs.5076255.sched01/tmpg_ssl3dq/162k0u29fl7.sdf

>  <i_m_source_file_index>  (434) 
41

>  <i_lp_mmshare_version>  (434) 
48012

>  <i_f3d_flags>  (434) 
0

>  <s_epik_input>  (434) 
W0NAXTEyM1tDQEBIXTRbQ0BIXShbT0hdKVtDSDJdW0NAQF01KFtDSDNdKVtDQEBIXShPNClbQ0BdMShbQ0gzXSlbQ0BdKFtPSF0pKFtDSDJdW0NASF0yW09IXSlDKD1PKVtDQF0oW0NIM10pKFtPSF0pW0NAQF02KFtPSF0pW0NAXShbQ0gyXTMpKFtPSF0pW0NIMl1bQ0BASF01Ng==

>  <s_epik_cmdline>  (434) 
J2VwaWtfcHl0aG9uJywgJy1waHQnLCAnMi4wJywgJy1waCcsICc3LjAnLCAnLXRuJywgJzgnLCAnLW1hJywgJzIwMCcsICctaW1hZScsICc8aW5maWxlLm1hZT4nLCAnLW9tYWUnLCAnPG91dGZpbGUubWFlPic=

>  <r_lp_tautomer_probability>  (434) 
1

>  <r_epik_Ionization_Penalty>  (434) 
2.40846e-07

>  <r_epik_Ionization_Penalty_Charging>  (434) 
0

>  <r_epik_Ionization_Penalty_Neutral>  (434) 
2.40846e-07

>  <r_epik_State_Penalty>  (434) 
-0

>  <r_epik_Charging_Adjusted_Penalty>  (434) 
0

>  <i_epik_Tot_Q>  (434) 
0

>  <i_epik_Tot_abs_Q>  (434) 
0

>  <s_lp_Force_Field>  (434) 
OPLS3e

>  <r_lp_Energy>  (434) 
252.073

>  <b_lp_Chiralities_Consistent>  (434) 
1

>  <s_lp_Variant>  (434) 
115:0-1

>  <s_i_glide_gridfile>  (434) 
pfpi4k_grid

>  <i_i_glide_lignum>  (434) 
41

>  <i_i_glide_rotatable_bonds>  (434) 
6

>  <r_i_docking_score>  (434) 
-3.40692

>  <r_i_glide_ligand_efficiency>  (434) 
-0.121676

>  <r_i_glide_ligand_efficiency_sa>  (434) 
-0.369479

>  <r_i_glide_ligand_efficiency_ln>  (434) 
-0.786416

>  <r_i_glide_gscore>  (434) 
-3.40692

>  <r_i_glide_lipo>  (434) 
-0.462857

>  <r_i_glide_hbond>  (434) 
-0.303841

>  <r_i_glide_metal>  (434) 
-0

>  <r_i_glide_rewards>  (434) 
-0.706149

>  <r_i_glide_evdw>  (434) 
-16.5971

>  <r_i_glide_ecoul>  (434) 
-7.12312

>  <r_i_glide_erotb>  (434) 
0

>  <r_i_glide_esite>  (434) 
-0.0357477

>  <r_i_glide_emodel>  (434) 
-24.544

>  <r_i_glide_energy>  (434) 
-23.7202

>  <r_i_glide_einternal>  (434) 
4.33044

>  <r_i_glide_intrahb_reward>  (434) 
-0

>  <i_i_glide_confnum>  (434) 
1

>  <i_i_glide_posenum>  (434) 
27

>  <r_i_glide_eff_state_penalty>  (434) 
0

>  <ligand_id>  (434) 
115

>  <original_smiles>  (434) 
CC12CC(O)C3OC1C1(C)C4(O)CC(O)C31CC1(O)CC2C1(O)C(C)(O)C4=O

>  <smiles>  (434) 
[H]OC1([H])C([H])([H])C2(C([H])([H])[H])C3([H])OC1([H])C14C([H])([H])C5(O[H])C([H])([H])C2([H])C5(O[H])C(O[H])(C([H])([H])[H])C(=O)C(O[H])(C([H])([H])C1([H])O[H])C34C([H])([H])[H]

$$$$
115:0:1
     RDKit          3D

 56 61  0  0  1  0  0  0  0  0999 V2000
    1.5186   -5.4743    2.0299 C   0  0  0  0  0  0  0  0  0  0  0  0
    2.7999   -4.7043    2.4362 C   0  0  2  0  0  0  0  0  0  0  0  0
    2.8886   -4.9494    3.9963 C   0  0  0  0  0  0  0  0  0  0  0  0
    3.3065   -3.7271    4.8652 C   0  0  1  0  0  0  0  0  0  0  0  0
    4.4096   -3.9561    5.7109 O   0  0  0  0  0  0  0  0  0  0  0  0
    3.2990   -2.3882    4.1000 C   0  0  2  0  0  0  0  0  0  0  0  0
    2.1109   -2.6425    3.3375 O   0  0  0  0  0  0  0  0  0  0  0  0
    2.5575   -3.1939    2.0901 C   0  0  1  0  0  0  0  0  0  0  0  0
    3.5375   -2.0061    1.8169 C   0  0  2  0  0  0  0  0  0  0  0  0
    2.4179   -0.8302    1.7028 C   0  0  0  0  0  0  0  0  0  0  0  0
    4.6015   -1.6446    0.7134 C   0  0  2  0  0  0  0  0  0  0  0  0
    5.9678   -1.9839    0.4865 O   0  0  0  0  0  0  0  0  0  0  0  0
    4.9933   -0.2542    1.2999 C   0  0  0  0  0  0  0  0  0  0  0  0
    5.0414   -0.5991    2.8569 C   0  0  1  0  0  0  0  0  0  0  0  0
    4.4831    0.4005    3.6903 O   0  0  0  0  0  0  0  0  0  0  0  0
    4.4039   -2.0504    3.0199 C   0  0  1  0  0  0  0  0  0  0  0  0
    5.5510   -3.1479    2.8977 C   0  0  0  0  0  0  0  0  0  0  0  0
    5.6897   -4.2956    1.7902 C   0  0  1  0  0  0  0  0  0  0  0  0
    7.0713   -4.3653    1.4915 O   0  0  0  0  0  0  0  0  0  0  0  0
    5.2444   -5.6397    2.3369 C   0  0  0  0  0  0  0  0  0  0  0  0
    3.9256   -5.3656    1.6213 C   0  0  2  0  0  0  0  0  0  0  0  0
    4.7439   -4.6217    0.5187 C   0  0  2  0  0  0  0  0  0  0  0  0
    5.4107   -5.5632   -0.3014 O   0  0  0  0  0  0  0  0  0  0  0  0
    4.0870   -3.6894   -0.6762 C   0  0  1  0  0  0  0  0  0  0  0  0
    4.7373   -3.8311   -2.0913 C   0  0  0  0  0  0  0  0  0  0  0  0
    2.7773   -4.1913   -0.8132 O   0  0  0  0  0  0  0  0  0  0  0  0
    3.9596   -2.1363   -0.5336 C   0  0  0  0  0  0  0  0  0  0  0  0
    3.4877   -1.3875   -1.3875 O   0  0  0  0  0  0  0  0  0  0  0  0
    1.5591   -6.5210    2.3297 H   0  0  0  0  0  0  0  0  0  0  0  0
    1.3667   -5.4623    0.9508 H   0  0  0  0  0  0  0  0  0  0  0  0
    0.6311   -5.0390    2.4969 H   0  0  0  0  0  0  0  0  0  0  0  0
    1.8777   -5.1753    4.3443 H   0  0  0  0  0  0  0  0  0  0  0  0
    3.4084   -5.8623    4.2654 H   0  0  0  0  0  0  0  0  0  0  0  0
    2.4941   -3.6288    5.5829 H   0  0  0  0  0  0  0  0  0  0  0  0
    4.4508   -3.2498    6.3398 H   0  0  0  0  0  0  0  0  0  0  0  0
    3.1404   -1.5591    4.7891 H   0  0  0  0  0  0  0  0  0  0  0  0
    1.8041   -3.1584    1.3130 H   0  0  0  0  0  0  0  0  0  0  0  0
    2.4348   -0.2881    0.7566 H   0  0  0  0  0  0  0  0  0  0  0  0
    2.4483   -0.0817    2.4896 H   0  0  0  0  0  0  0  0  0  0  0  0
    1.3732   -1.1532    1.7185 H   0  0  0  0  0  0  0  0  0  0  0  0
    6.0129   -2.9252    0.3734 H   0  0  0  0  0  0  0  0  0  0  0  0
    5.9529    0.1530    0.9654 H   0  0  0  0  0  0  0  0  0  0  0  0
    4.3116    0.5614    1.0580 H   0  0  0  0  0  0  0  0  0  0  0  0
    6.0835   -0.5873    3.1769 H   0  0  0  0  0  0  0  0  0  0  0  0
    3.6359    0.6507    3.3449 H   0  0  0  0  0  0  0  0  0  0  0  0
    6.4430   -2.5550    2.7746 H   0  0  0  0  0  0  0  0  0  0  0  0
    5.7890   -3.5682    3.8636 H   0  0  0  0  0  0  0  0  0  0  0  0
    7.3631   -3.5315    1.1446 H   0  0  0  0  0  0  0  0  0  0  0  0
    5.8139   -6.4858    1.9358 H   0  0  0  0  0  0  0  0  0  0  0  0
    5.2775   -5.6805    3.4213 H   0  0  0  0  0  0  0  0  0  0  0  0
    3.6144   -6.3340    1.2332 H   0  0  0  0  0  0  0  0  0  0  0  0
    4.7546   -5.9331   -0.8839 H   0  0  0  0  0  0  0  0  0  0  0  0
    5.7962   -3.5885   -2.0777 H   0  0  0  0  0  0  0  0  0  0  0  0
    4.2665   -3.2085   -2.8432 H   0  0  0  0  0  0  0  0  0  0  0  0
    4.6551   -4.8347   -2.5017 H   0  0  0  0  0  0  0  0  0  0  0  0
    2.8049   -4.9488   -1.3926 H   0  0  0  0  0  0  0  0  0  0  0  0
  2  1  1  6
  1 29  1  0
  1 30  1  0
  1 31  1  0
  2  8  1  0
  2 21  1  0
  2  3  1  0
  3  4  1  0
  3 32  1  0
  3 33  1  0
  4  5  1  0
  4  6  1  0
  4 34  1  1
  5 35  1  0
  6 16  1  0
  6  7  1  0
  6 36  1  1
  7  8  1  0
  8  9  1  0
  8 37  1  6
  9 16  1  0
  9 10  1  1
  9 11  1  0
 10 38  1  0
 10 39  1  0
 10 40  1  0
 11 27  1  0
 11 12  1  1
 11 13  1  0
 12 41  1  0
 13 14  1  0
 13 42  1  0
 13 43  1  0
 14 15  1  0
 14 16  1  0
 14 44  1  1
 15 45  1  0
 16 17  1  6
 17 18  1  0
 17 46  1  0
 17 47  1  0
 18 22  1  0
 18 19  1  6
 18 20  1  0
 19 48  1  0
 20 21  1  0
 20 49  1  0
 20 50  1  0
 21 22  1  0
 21 51  1  6
 22 23  1  6
 22 24  1  0
 23 52  1  0
 24 25  1  0
 24 26  1  6
 24 27  1  0
 25 53  1  0
 25 54  1  0
 25 55  1  0
 26 56  1  0
 27 28  2  0
M  END
>  <i_m_ct_stereo_status>  (435) 
1

>  <s_m_source_file>  (435) 
/var/tmp/pbs.5076255.sched01/tmpg_ssl3dq/162k0u29fl7.sdf

>  <i_m_source_file_index>  (435) 
41

>  <i_lp_mmshare_version>  (435) 
48012

>  <i_f3d_flags>  (435) 
0

>  <s_epik_input>  (435) 
W0NAXTEyM1tDQEBIXTRbQ0BIXShbT0hdKVtDSDJdW0NAQF01KFtDSDNdKVtDQEBIXShPNClbQ0BdMShbQ0gzXSlbQ0BdKFtPSF0pKFtDSDJdW0NASF0yW09IXSlDKD1PKVtDQF0oW0NIM10pKFtPSF0pW0NAQF02KFtPSF0pW0NAXShbQ0gyXTMpKFtPSF0pW0NIMl1bQ0BASF01Ng==

>  <s_epik_cmdline>  (435) 
J2VwaWtfcHl0aG9uJywgJy1waHQnLCAnMi4wJywgJy1waCcsICc3LjAnLCAnLXRuJywgJzgnLCAnLW1hJywgJzIwMCcsICctaW1hZScsICc8aW5maWxlLm1hZT4nLCAnLW9tYWUnLCAnPG91dGZpbGUubWFlPic=

>  <r_lp_tautomer_probability>  (435) 
1

>  <r_epik_Ionization_Penalty>  (435) 
2.40846e-07

>  <r_epik_Ionization_Penalty_Charging>  (435) 
0

>  <r_epik_Ionization_Penalty_Neutral>  (435) 
2.40846e-07

>  <r_epik_State_Penalty>  (435) 
-0

>  <r_epik_Charging_Adjusted_Penalty>  (435) 
0

>  <i_epik_Tot_Q>  (435) 
0

>  <i_epik_Tot_abs_Q>  (435) 
0

>  <s_lp_Force_Field>  (435) 
OPLS3e

>  <r_lp_Energy>  (435) 
252.073

>  <b_lp_Chiralities_Consistent>  (435) 
1

>  <s_lp_Variant>  (435) 
115:0-1

>  <s_i_glide_gridfile>  (435) 
pfpi4k_grid

>  <i_i_glide_lignum>  (435) 
41

>  <i_i_glide_rotatable_bonds>  (435) 
6

>  <r_i_docking_score>  (435) 
-2.9317

>  <r_i_glide_ligand_efficiency>  (435) 
-0.104704

>  <r_i_glide_ligand_efficiency_sa>  (435) 
-0.317942

>  <r_i_glide_ligand_efficiency_ln>  (435) 
-0.676723

>  <r_i_glide_gscore>  (435) 
-2.9317

>  <r_i_glide_lipo>  (435) 
-0.457297

>  <r_i_glide_hbond>  (435) 
0

>  <r_i_glide_metal>  (435) 
-0

>  <r_i_glide_rewards>  (435) 
-0.706149

>  <r_i_glide_evdw>  (435) 
-16.5375

>  <r_i_glide_ecoul>  (435) 
-6.03156

>  <r_i_glide_erotb>  (435) 
0

>  <r_i_glide_esite>  (435) 
-0.0366458

>  <r_i_glide_emodel>  (435) 
-23.0309

>  <r_i_glide_energy>  (435) 
-22.5691

>  <r_i_glide_einternal>  (435) 
3.79531

>  <r_i_glide_intrahb_reward>  (435) 
-0

>  <i_i_glide_confnum>  (435) 
1

>  <i_i_glide_posenum>  (435) 
22

>  <r_i_glide_eff_state_penalty>  (435) 
0

>  <ligand_id>  (435) 
115

>  <original_smiles>  (435) 
CC12CC(O)C3OC1C1(C)C4(O)CC(O)C31CC1(O)CC2C1(O)C(C)(O)C4=O

>  <smiles>  (435) 
[H]OC1([H])C([H])([H])C2(C([H])([H])[H])C3([H])OC1([H])C14C([H])([H])C5(O[H])C([H])([H])C2([H])C5(O[H])C(O[H])(C([H])([H])[H])C(=O)C(O[H])(C([H])([H])C1([H])O[H])C34C([H])([H])[H]

$$$$
115:0:2
     RDKit          3D

 56 61  0  0  1  0  0  0  0  0999 V2000
    1.5317   -5.4626    2.0677 C   0  0  0  0  0  0  0  0  0  0  0  0
    2.8054   -4.6858    2.4684 C   0  0  2  0  0  0  0  0  0  0  0  0
    2.8910   -4.9253    4.0310 C   0  0  0  0  0  0  0  0  0  0  0  0
    3.3192   -3.6923    4.8794 C   0  0  1  0  0  0  0  0  0  0  0  0
    4.4380   -3.9107    5.7189 O   0  0  0  0  0  0  0  0  0  0  0  0
    3.3120   -2.3579    4.1123 C   0  0  2  0  0  0  0  0  0  0  0  0
    2.1201   -2.6180    3.3565 O   0  0  0  0  0  0  0  0  0  0  0  0
    2.5644   -3.1849    2.1151 C   0  0  1  0  0  0  0  0  0  0  0  0
    3.5472   -1.9976    1.8291 C   0  0  2  0  0  0  0  0  0  0  0  0
    2.4284   -0.8254    1.7088 C   0  0  0  0  0  0  0  0  0  0  0  0
    4.6048   -1.6401    0.7094 C   0  0  2  0  0  0  0  0  0  0  0  0
    5.9823   -1.9497    0.4596 O   0  0  0  0  0  0  0  0  0  0  0  0
    5.0014   -0.2541    1.2948 C   0  0  0  0  0  0  0  0  0  0  0  0
    5.0582   -0.5807    2.8563 C   0  0  1  0  0  0  0  0  0  0  0  0
    4.4633    0.4166    3.6639 O   0  0  0  0  0  0  0  0  0  0  0  0
    4.4123   -2.0266    3.0315 C   0  0  1  0  0  0  0  0  0  0  0  0
    5.5460   -3.1221    2.9061 C   0  0  0  0  0  0  0  0  0  0  0  0
    5.6749   -4.2617    1.8031 C   0  0  1  0  0  0  0  0  0  0  0  0
    7.0366   -4.2755    1.4478 O   0  0  0  0  0  0  0  0  0  0  0  0
    5.2660   -5.6052    2.3667 C   0  0  0  0  0  0  0  0  0  0  0  0
    3.9318   -5.3551    1.6538 C   0  0  2  0  0  0  0  0  0  0  0  0
    4.7348   -4.6081    0.5458 C   0  0  2  0  0  0  0  0  0  0  0  0
    5.4081   -5.5659   -0.2625 O   0  0  0  0  0  0  0  0  0  0  0  0
    4.0807   -3.6898   -0.6538 C   0  0  1  0  0  0  0  0  0  0  0  0
    4.7498   -3.8469   -2.0632 C   0  0  0  0  0  0  0  0  0  0  0  0
    2.7751   -4.2108   -0.7822 O   0  0  0  0  0  0  0  0  0  0  0  0
    3.9571   -2.1434   -0.5354 C   0  0  0  0  0  0  0  0  0  0  0  0
    3.4752   -1.4106   -1.3995 O   0  0  0  0  0  0  0  0  0  0  0  0
    1.5766   -6.5079    2.3797 H   0  0  0  0  0  0  0  0  0  0  0  0
    1.3982   -5.4573    0.9851 H   0  0  0  0  0  0  0  0  0  0  0  0
    0.6387   -5.0165    2.5233 H   0  0  0  0  0  0  0  0  0  0  0  0
    1.8840   -5.1514    4.3900 H   0  0  0  0  0  0  0  0  0  0  0  0
    3.4361   -5.8131    4.3118 H   0  0  0  0  0  0  0  0  0  0  0  0
    2.5106   -3.5774    5.6083 H   0  0  0  0  0  0  0  0  0  0  0  0
    4.4843   -3.2057    6.3492 H   0  0  0  0  0  0  0  0  0  0  0  0
    3.1513   -1.5220    4.7844 H   0  0  0  0  0  0  0  0  0  0  0  0
    1.8090   -3.1556    1.3217 H   0  0  0  0  0  0  0  0  0  0  0  0
    2.4514   -0.2977    0.7532 H   0  0  0  0  0  0  0  0  0  0  0  0
    2.4753   -0.0715    2.4871 H   0  0  0  0  0  0  0  0  0  0  0  0
    1.3850   -1.1511    1.7371 H   0  0  0  0  0  0  0  0  0  0  0  0
    6.1534   -2.8840    0.5119 H   0  0  0  0  0  0  0  0  0  0  0  0
    5.9505    0.1551    0.9412 H   0  0  0  0  0  0  0  0  0  0  0  0
    4.3162    0.5561    1.0554 H   0  0  0  0  0  0  0  0  0  0  0  0
    6.1028   -0.5579    3.1680 H   0  0  0  0  0  0  0  0  0  0  0  0
    4.6102    0.1996    4.5700 H   0  0  0  0  0  0  0  0  0  0  0  0
    6.4349   -2.5307    2.7437 H   0  0  0  0  0  0  0  0  0  0  0  0
    5.8148   -3.5290    3.8691 H   0  0  0  0  0  0  0  0  0  0  0  0
    7.1652   -5.1572    1.1131 H   0  0  0  0  0  0  0  0  0  0  0  0
    5.8071   -6.4655    1.9593 H   0  0  0  0  0  0  0  0  0  0  0  0
    5.2969   -5.6586    3.4430 H   0  0  0  0  0  0  0  0  0  0  0  0
    3.6085   -6.3247    1.2638 H   0  0  0  0  0  0  0  0  0  0  0  0
    4.7400   -5.9097   -0.8417 H   0  0  0  0  0  0  0  0  0  0  0  0
    5.8001   -3.5754   -2.0545 H   0  0  0  0  0  0  0  0  0  0  0  0
    4.2765   -3.2269   -2.8224 H   0  0  0  0  0  0  0  0  0  0  0  0
    4.6370   -4.8449   -2.4794 H   0  0  0  0  0  0  0  0  0  0  0  0
    2.8068   -4.9517   -1.3857 H   0  0  0  0  0  0  0  0  0  0  0  0
  2  1  1  6
  1 29  1  0
  1 30  1  0
  1 31  1  0
  2  8  1  0
  2 21  1  0
  2  3  1  0
  3  4  1  0
  3 32  1  0
  3 33  1  0
  4  5  1  0
  4  6  1  0
  4 34  1  1
  5 35  1  0
  6 16  1  0
  6  7  1  0
  6 36  1  1
  7  8  1  0
  8  9  1  0
  8 37  1  6
  9 16  1  0
  9 10  1  1
  9 11  1  0
 10 38  1  0
 10 39  1  0
 10 40  1  0
 11 27  1  0
 11 12  1  1
 11 13  1  0
 12 41  1  0
 13 14  1  0
 13 42  1  0
 13 43  1  0
 14 15  1  0
 14 16  1  0
 14 44  1  1
 15 45  1  0
 16 17  1  6
 17 18  1  0
 17 46  1  0
 17 47  1  0
 18 22  1  0
 18 19  1  6
 18 20  1  0
 19 48  1  0
 20 21  1  0
 20 49  1  0
 20 50  1  0
 21 22  1  0
 21 51  1  6
 22 23  1  6
 22 24  1  0
 23 52  1  0
 24 25  1  0
 24 26  1  6
 24 27  1  0
 25 53  1  0
 25 54  1  0
 25 55  1  0
 26 56  1  0
 27 28  2  0
M  END
>  <i_m_ct_stereo_status>  (436) 
1

>  <s_m_source_file>  (436) 
/var/tmp/pbs.5076255.sched01/tmpg_ssl3dq/162k0u29fl7.sdf

>  <i_m_source_file_index>  (436) 
41

>  <i_lp_mmshare_version>  (436) 
48012

>  <i_f3d_flags>  (436) 
0

>  <s_epik_input>  (436) 
W0NAXTEyM1tDQEBIXTRbQ0BIXShbT0hdKVtDSDJdW0NAQF01KFtDSDNdKVtDQEBIXShPNClbQ0BdMShbQ0gzXSlbQ0BdKFtPSF0pKFtDSDJdW0NASF0yW09IXSlDKD1PKVtDQF0oW0NIM10pKFtPSF0pW0NAQF02KFtPSF0pW0NAXShbQ0gyXTMpKFtPSF0pW0NIMl1bQ0BASF01Ng==

>  <s_epik_cmdline>  (436) 
J2VwaWtfcHl0aG9uJywgJy1waHQnLCAnMi4wJywgJy1waCcsICc3LjAnLCAnLXRuJywgJzgnLCAnLW1hJywgJzIwMCcsICctaW1hZScsICc8aW5maWxlLm1hZT4nLCAnLW9tYWUnLCAnPG91dGZpbGUubWFlPic=

>  <r_lp_tautomer_probability>  (436) 
1

>  <r_epik_Ionization_Penalty>  (436) 
2.40846e-07

>  <r_epik_Ionization_Penalty_Charging>  (436) 
0

>  <r_epik_Ionization_Penalty_Neutral>  (436) 
2.40846e-07

>  <r_epik_State_Penalty>  (436) 
-0

>  <r_epik_Charging_Adjusted_Penalty>  (436) 
0

>  <i_epik_Tot_Q>  (436) 
0

>  <i_epik_Tot_abs_Q>  (436) 
0

>  <s_lp_Force_Field>  (436) 
OPLS3e

>  <r_lp_Energy>  (436) 
252.073

>  <b_lp_Chiralities_Consistent>  (436) 
1

>  <s_lp_Variant>  (436) 
115:0-1

>  <s_i_glide_gridfile>  (436) 
pfpi4k_grid

>  <i_i_glide_lignum>  (436) 
41

>  <i_i_glide_rotatable_bonds>  (436) 
6

>  <r_i_docking_score>  (436) 
-2.8381

>  <r_i_glide_ligand_efficiency>  (436) 
-0.101361

>  <r_i_glide_ligand_efficiency_sa>  (436) 
-0.307791

>  <r_i_glide_ligand_efficiency_ln>  (436) 
-0.655116

>  <r_i_glide_gscore>  (436) 
-2.8381

>  <r_i_glide_lipo>  (436) 
-0.458167

>  <r_i_glide_hbond>  (436) 
0

>  <r_i_glide_metal>  (436) 
-0

>  <r_i_glide_rewards>  (436) 
-0.706149

>  <r_i_glide_evdw>  (436) 
-17.263

>  <r_i_glide_ecoul>  (436) 
-5.16002

>  <r_i_glide_erotb>  (436) 
0

>  <r_i_glide_esite>  (436) 
-0.0366289

>  <r_i_glide_emodel>  (436) 
-22.7458

>  <r_i_glide_energy>  (436) 
-22.423

>  <r_i_glide_einternal>  (436) 
3.62156

>  <r_i_glide_intrahb_reward>  (436) 
-0

>  <i_i_glide_confnum>  (436) 
2

>  <i_i_glide_posenum>  (436) 
25

>  <r_i_glide_eff_state_penalty>  (436) 
0

>  <ligand_id>  (436) 
115

>  <original_smiles>  (436) 
CC12CC(O)C3OC1C1(C)C4(O)CC(O)C31CC1(O)CC2C1(O)C(C)(O)C4=O

>  <smiles>  (436) 
[H]OC1([H])C([H])([H])C2(C([H])([H])[H])C3([H])OC1([H])C14C([H])([H])C5(O[H])C([H])([H])C2([H])C5(O[H])C(O[H])(C([H])([H])[H])C(=O)C(O[H])(C([H])([H])C1([H])O[H])C34C([H])([H])[H]

$$$$
118:0:0
     RDKit          3D

 76 82  0  0  1  0  0  0  0  0999 V2000
    0.3412    4.2081   10.6377 C   0  0  0  0  0  0  0  0  0  0  0  0
    0.1846    4.2494    9.2143 O   0  0  0  0  0  0  0  0  0  0  0  0
   -0.6485    3.2546    8.6193 C   0  0  2  0  0  0  0  0  0  0  0  0
   -0.0837    1.7673    8.9379 C   0  0  0  0  0  0  0  0  0  0  0  0
    1.3935    1.1928    8.4528 C   0  0  0  0  0  0  0  0  0  0  0  0
    1.8658    1.1945    6.9075 C   0  0  2  0  0  0  0  0  0  0  0  0
    1.0928    2.4350    6.7761 C   0  0  0  0  0  0  0  0  0  0  0  0
    0.2982    2.1938    5.8001 C   0  0  0  0  0  0  0  0  0  0  0  0
   -1.1193    1.9088    5.9058 C   0  0  2  0  0  0  0  0  0  0  0  0
   -1.2787    0.9654    4.7603 C   0  0  0  0  0  0  0  0  0  0  0  0
   -0.9512   -0.3219    5.0233 C   0  0  0  0  0  0  0  0  0  0  0  0
   -0.0663   -0.7499    6.2248 C   0  0  1  0  0  0  0  0  0  0  0  0
   -0.0618   -2.2904    6.3231 C   0  0  0  0  0  0  0  0  0  0  0  0
    1.4335   -0.1956    6.1510 C   0  0  1  0  0  0  0  0  0  0  0  0
    1.9966   -0.4891    4.7151 C   0  0  0  0  0  0  0  0  0  0  0  0
    2.6818   -1.4844    4.4956 O   0  0  0  0  0  0  0  0  0  0  0  0
    1.6028    0.3640    3.7418 O   0  0  0  0  0  0  0  0  0  0  0  0
    0.7709    0.0034    2.6342 C   0  0  0  0  0  0  0  0  0  0  0  0
   -0.3174    1.0754    2.4747 C   0  0  0  0  0  0  0  0  0  0  0  0
   -1.1710    1.5653    3.4271 C   0  0  0  0  0  0  0  0  0  0  0  0
   -1.5951    3.0451    3.3045 C   0  0  1  0  0  0  0  0  0  0  0  0
   -3.1106    3.1419    3.0301 C   0  0  0  0  0  0  0  0  0  0  0  0
   -1.0910    3.9625    4.5218 C   0  0  2  0  0  0  0  0  0  0  0  0
    0.4520    4.5260    4.4160 C   0  0  0  0  0  0  0  0  0  0  0  0
    1.7513    3.7182    3.8079 C   0  0  1  0  0  0  0  0  0  0  0  0
    2.4895    4.6698    2.8409 C   0  0  0  0  0  0  0  0  0  0  0  0
    2.9541    2.8814    4.6036 C   0  0  0  0  0  0  0  0  0  0  0  0
    2.9604    2.1268    6.0568 C   0  0  2  0  0  0  0  0  0  0  0  0
    4.3037    1.9500    6.4391 O   0  0  0  0  0  0  0  0  0  0  0  0
    2.3178    3.2135    6.7828 C   0  0  0  0  0  0  0  0  0  0  0  0
    2.6649    4.1745    7.4585 O   0  0  0  0  0  0  0  0  0  0  0  0
   -1.6412    3.3081    5.8981 C   0  0  2  0  0  0  0  0  0  0  0  0
   -1.2835    3.9408    7.3083 C   0  0  1  0  0  0  0  0  0  0  0  0
   -2.1062    3.6915    8.5914 C   0  0  0  0  0  0  0  0  0  0  0  0
   -3.2141    2.6552    8.6633 C   0  0  0  0  0  0  0  0  0  0  0  0
   -2.5895    4.9150    9.3546 C   0  0  0  0  0  0  0  0  0  0  0  0
    0.8732    5.0991   10.9641 H   0  0  0  0  0  0  0  0  0  0  0  0
    0.9289    3.3494   10.9714 H   0  0  0  0  0  0  0  0  0  0  0  0
   -0.6210    4.1919   11.1598 H   0  0  0  0  0  0  0  0  0  0  0  0
   -0.1064    1.6706   10.0197 H   0  0  0  0  0  0  0  0  0  0  0  0
   -0.8522    1.0474    8.6796 H   0  0  0  0  0  0  0  0  0  0  0  0
    2.1391    1.6934    9.0705 H   0  0  0  0  0  0  0  0  0  0  0  0
    1.4305    0.1665    8.8019 H   0  0  0  0  0  0  0  0  0  0  0  0
    0.7115    2.0244    4.8390 H   0  0  0  0  0  0  0  0  0  0  0  0
   -1.4311    1.3951    6.7944 H   0  0  0  0  0  0  0  0  0  0  0  0
   -0.9775   -1.0312    4.2108 H   0  0  0  0  0  0  0  0  0  0  0  0
   -0.5097   -0.4241    7.1541 H   0  0  0  0  0  0  0  0  0  0  0  0
   -1.0642   -2.6815    6.4949 H   0  0  0  0  0  0  0  0  0  0  0  0
    0.5675   -2.6277    7.1536 H   0  0  0  0  0  0  0  0  0  0  0  0
    0.3244   -2.7648    5.4192 H   0  0  0  0  0  0  0  0  0  0  0  0
    1.9976   -0.9275    6.7293 H   0  0  0  0  0  0  0  0  0  0  0  0
    1.3833   -0.0091    1.7286 H   0  0  0  0  0  0  0  0  0  0  0  0
    0.3618   -1.0014    2.7264 H   0  0  0  0  0  0  0  0  0  0  0  0
   -0.1997    1.6471    1.5624 H   0  0  0  0  0  0  0  0  0  0  0  0
   -1.1216    3.4557    2.4255 H   0  0  0  0  0  0  0  0  0  0  0  0
   -3.3646    2.6232    2.0993 H   0  0  0  0  0  0  0  0  0  0  0  0
   -3.4330    4.1719    2.8988 H   0  0  0  0  0  0  0  0  0  0  0  0
   -3.7068    2.6801    3.8166 H   0  0  0  0  0  0  0  0  0  0  0  0
   -1.6722    4.8845    4.4354 H   0  0  0  0  0  0  0  0  0  0  0  0
    0.3494    5.4049    3.7797 H   0  0  0  0  0  0  0  0  0  0  0  0
    0.7257    4.9678    5.3713 H   0  0  0  0  0  0  0  0  0  0  0  0
    1.3254    3.0056    3.1123 H   0  0  0  0  0  0  0  0  0  0  0  0
    2.9568    5.4996    3.3727 H   0  0  0  0  0  0  0  0  0  0  0  0
    1.8173    5.0868    2.0955 H   0  0  0  0  0  0  0  0  0  0  0  0
    3.2688    4.1429    2.2871 H   0  0  0  0  0  0  0  0  0  0  0  0
    3.3007    2.1408    3.8824 H   0  0  0  0  0  0  0  0  0  0  0  0
    3.8060    3.5617    4.6155 H   0  0  0  0  0  0  0  0  0  0  0  0
    4.6275    1.2229    5.9378 H   0  0  0  0  0  0  0  0  0  0  0  0
   -2.7282    3.2659    5.8461 H   0  0  0  0  0  0  0  0  0  0  0  0
   -1.0258    4.9897    7.1886 H   0  0  0  0  0  0  0  0  0  0  0  0
   -4.1412    3.0347    8.2247 H   0  0  0  0  0  0  0  0  0  0  0  0
   -3.3982    2.3769    9.6971 H   0  0  0  0  0  0  0  0  0  0  0  0
   -2.9492    1.7470    8.1182 H   0  0  0  0  0  0  0  0  0  0  0  0
   -3.4987    5.3055    8.9048 H   0  0  0  0  0  0  0  0  0  0  0  0
   -1.8393    5.6991    9.3227 H   0  0  0  0  0  0  0  0  0  0  0  0
   -2.7852    4.6615   10.3940 H   0  0  0  0  0  0  0  0  0  0  0  0
  1  2  1  0
  1 37  1  0
  1 38  1  0
  1 39  1  0
  3  2  1  1
  3 33  1  0
  3 34  1  0
  3  4  1  0
  4  5  1  0
  4 40  1  0
  4 41  1  0
  6  5  1  1
  5 42  1  0
  5 43  1  0
  6 14  1  0
  6 28  1  0
  6  7  1  0
  7 30  1  0
  7  8  2  3
  8  9  1  0
  8 44  1  0
  9 32  1  0
  9 10  1  0
  9 45  1  1
 10 20  1  0
 10 11  2  3
 11 12  1  0
 11 46  1  0
 12 13  1  0
 12 14  1  0
 12 47  1  1
 13 48  1  0
 13 49  1  0
 13 50  1  0
 14 15  1  0
 14 51  1  1
 15 16  2  0
 15 17  1  0
 17 18  1  0
 18 19  1  0
 18 52  1  0
 18 53  1  0
 19 20  2  3
 19 54  1  0
 20 21  1  0
 21 22  1  0
 21 23  1  0
 21 55  1  6
 22 56  1  0
 22 57  1  0
 22 58  1  0
 23 24  1  0
 23 32  1  0
 23 59  1  6
 24 25  1  0
 24 60  1  0
 24 61  1  0
 25 26  1  0
 25 27  1  0
 25 62  1  6
 26 63  1  0
 26 64  1  0
 26 65  1  0
 27 28  1  0
 27 66  1  0
 27 67  1  0
 28 29  1  1
 28 30  1  0
 29 68  1  0
 30 31  2  0
 32 33  1  0
 32 69  1  6
 33 34  1  0
 33 70  1  6
 34 35  1  0
 34 36  1  0
 35 71  1  0
 35 72  1  0
 35 73  1  0
 36 74  1  0
 36 75  1  0
 36 76  1  0
M  END
>  <i_m_ct_stereo_status>  (437) 
1

>  <s_m_source_file>  (437) 
/var/tmp/pbs.5076255.sched01/tmpg_ssl3dq/162k0u29fl7.sdf

>  <i_m_source_file_index>  (437) 
44

>  <i_lp_mmshare_version>  (437) 
48012

>  <i_f3d_flags>  (437) 
0

>  <s_epik_input>  (437) 
Tz1DMVtDQF0yKFtPSF0pW0NIMl1bQ0BIXShbQ0gzXSlbQ0gyXVtDSF0oW0NIXTNbQ0BASF00W0NAXShPW0NIM10pKFtDSDJdW0NIMl01KUM0KFtDSDNdKVtDSDNdKVtDQEhdKFtDSDNdKUMoXEM9NlxbQ0BIXTMvW0NIXT1DMVxbQ0BAXTI1Nyk9W0NIXVxbQ0gyXU9DKD1PKVtDQEBIXTdbQ0BASF0oL1tDSF02KVtDSDNd

>  <s_epik_cmdline>  (437) 
J2VwaWtfcHl0aG9uJywgJy1waHQnLCAnMi4wJywgJy1waCcsICc3LjAnLCAnLXRuJywgJzgnLCAnLW1hJywgJzIwMCcsICctaW1hZScsICc8aW5maWxlLm1hZT4nLCAnLW9tYWUnLCAnPG91dGZpbGUubWFlPic=

>  <r_lp_tautomer_probability>  (437) 
1

>  <r_epik_Ionization_Penalty>  (437) 
2.1431e-06

>  <r_epik_Ionization_Penalty_Charging>  (437) 
0

>  <r_epik_Ionization_Penalty_Neutral>  (437) 
2.1431e-06

>  <r_epik_State_Penalty>  (437) 
-0

>  <r_epik_Charging_Adjusted_Penalty>  (437) 
0

>  <i_epik_Tot_Q>  (437) 
0

>  <i_epik_Tot_abs_Q>  (437) 
0

>  <s_epik_Chemistry_Notes>  (437) 
This compound has an ester and may undergo hydrolysis at high or low pH.

>  <s_lp_Force_Field>  (437) 
OPLS3e

>  <r_lp_Energy>  (437) 
368.738

>  <b_lp_Chiralities_Consistent>  (437) 
1

>  <s_lp_Variant>  (437) 
118:0-1

>  <s_i_glide_gridfile>  (437) 
pfpi4k_grid

>  <i_i_glide_lignum>  (437) 
44

>  <i_i_glide_rotatable_bonds>  (437) 
2

>  <r_i_docking_score>  (437) 
-1.71313

>  <r_i_glide_ligand_efficiency>  (437) 
-0.0475869

>  <r_i_glide_ligand_efficiency_sa>  (437) 
-0.157129

>  <r_i_glide_ligand_efficiency_ln>  (437) 
-0.373759

>  <r_i_glide_gscore>  (437) 
-1.71313

>  <r_i_glide_lipo>  (437) 
-0.0717642

>  <r_i_glide_hbond>  (437) 
0

>  <r_i_glide_metal>  (437) 
-0

>  <r_i_glide_rewards>  (437) 
-0.0501389

>  <r_i_glide_evdw>  (437) 
-27.656

>  <r_i_glide_ecoul>  (437) 
-1.38907

>  <r_i_glide_erotb>  (437) 
0

>  <r_i_glide_esite>  (437) 
-6.59708e-05

>  <r_i_glide_emodel>  (437) 
-31.6284

>  <r_i_glide_energy>  (437) 
-29.0451

>  <r_i_glide_einternal>  (437) 
0.00175033

>  <r_i_glide_intrahb_reward>  (437) 
-0

>  <i_i_glide_confnum>  (437) 
2

>  <i_i_glide_posenum>  (437) 
9

>  <r_i_glide_eff_state_penalty>  (437) 
0

>  <ligand_id>  (437) 
118

>  <original_smiles>  (437) 
COC12CCC34C5=CC6C7=CC(C)C3C(=O)OCC=C7C(C)C(CC(C)CC4(O)C5=O)C6C1C2(C)C

>  <smiles>  (437) 
[H]OC12C(=O)C3=C([H])C4([H])C5=C([H])C([H])(C([H])([H])[H])C6([H])C(=O)OC([H])([H])C([H])=C5C([H])(C([H])([H])[H])C([H])(C([H])([H])C([H])(C([H])([H])[H])C1([H])[H])C4([H])C1([H])C(OC([H])([H])[H])(C([H])([H])C([H])([H])C362)C1(C([H])([H])[H])C([H])([H])[H]

$$$$
118:0:1
     RDKit          3D

 76 82  0  0  1  0  0  0  0  0999 V2000
    0.1154    5.4708   10.5283 C   0  0  0  0  0  0  0  0  0  0  0  0
    0.1147    5.2036    9.1268 O   0  0  0  0  0  0  0  0  0  0  0  0
   -0.2002    3.8713    8.7195 C   0  0  2  0  0  0  0  0  0  0  0  0
    0.8358    2.8152    9.3486 C   0  0  0  0  0  0  0  0  0  0  0  0
    2.4666    2.7800    9.0552 C   0  0  0  0  0  0  0  0  0  0  0  0
    3.0848    2.6978    7.5586 C   0  0  2  0  0  0  0  0  0  0  0  0
    1.9289    3.4879    7.1434 C   0  0  0  0  0  0  0  0  0  0  0  0
    1.3978    2.8113    6.2001 C   0  0  0  0  0  0  0  0  0  0  0  0
    0.1864    2.0194    6.3111 C   0  0  2  0  0  0  0  0  0  0  0  0
    0.5248    0.9117    5.3693 C   0  0  0  0  0  0  0  0  0  0  0  0
    1.2756   -0.0824    5.9015 C   0  0  0  0  0  0  0  0  0  0  0  0
    2.1086    0.0772    7.2050 C   0  0  1  0  0  0  0  0  0  0  0  0
    2.6779   -1.2994    7.6128 C   0  0  0  0  0  0  0  0  0  0  0  0
    3.2908    1.1441    7.0814 C   0  0  1  0  0  0  0  0  0  0  0  0
    4.0823    0.8577    5.7639 C   0  0  0  0  0  0  0  0  0  0  0  0
    5.1178    0.1924    5.7744 O   0  0  0  0  0  0  0  0  0  0  0  0
    3.5161    1.3068    4.6192 O   0  0  0  0  0  0  0  0  0  0  0  0
    3.0149    0.4670    3.5756 C   0  0  0  0  0  0  0  0  0  0  0  0
    1.6323    0.9853    3.1511 C   0  0  0  0  0  0  0  0  0  0  0  0
    0.5530    1.2647    3.9436 C   0  0  0  0  0  0  0  0  0  0  0  0
   -0.3722    2.4246    3.5018 C   0  0  1  0  0  0  0  0  0  0  0  0
   -1.7738    1.8763    3.1705 C   0  0  0  0  0  0  0  0  0  0  0  0
   -0.3939    3.6519    4.5335 C   0  0  2  0  0  0  0  0  0  0  0  0
    0.8257    4.7437    4.3883 C   0  0  0  0  0  0  0  0  0  0  0  0
    2.3946    4.4094    4.0181 C   0  0  1  0  0  0  0  0  0  0  0  0
    2.8287    5.3851    2.9106 C   0  0  0  0  0  0  0  0  0  0  0  0
    3.7151    4.2619    5.0147 C   0  0  0  0  0  0  0  0  0  0  0  0
    3.8281    3.8295    6.5882 C   0  0  2  0  0  0  0  0  0  0  0  0
    5.1017    4.2517    7.0462 O   0  0  0  0  0  0  0  0  0  0  0  0
    2.7615    4.6637    7.0344 C   0  0  0  0  0  0  0  0  0  0  0  0
    2.6293    5.8012    7.5108 O   0  0  0  0  0  0  0  0  0  0  0  0
   -0.8149    3.0807    5.9955 C   0  0  2  0  0  0  0  0  0  0  0  0
   -0.8934    4.0300    7.2636 C   0  0  1  0  0  0  0  0  0  0  0  0
   -1.7091    3.6999    8.5357 C   0  0  0  0  0  0  0  0  0  0  0  0
   -2.3454    2.3383    8.7702 C   0  0  0  0  0  0  0  0  0  0  0  0
   -2.6921    4.7470    9.0205 C   0  0  0  0  0  0  0  0  0  0  0  0
    0.2358    6.5437   10.6935 H   0  0  0  0  0  0  0  0  0  0  0  0
    0.9372    4.9831   11.0587 H   0  0  0  0  0  0  0  0  0  0  0  0
   -0.8223    5.1785   11.0086 H   0  0  0  0  0  0  0  0  0  0  0  0
    0.7272    2.8998   10.4279 H   0  0  0  0  0  0  0  0  0  0  0  0
    0.4313    1.8115    9.2095 H   0  0  0  0  0  0  0  0  0  0  0  0
    2.8977    3.6343    9.5907 H   0  0  0  0  0  0  0  0  0  0  0  0
    2.8426    1.9249    9.6039 H   0  0  0  0  0  0  0  0  0  0  0  0
    1.9506    2.6467    5.3367 H   0  0  0  0  0  0  0  0  0  0  0  0
   -0.0105    1.5846    7.2641 H   0  0  0  0  0  0  0  0  0  0  0  0
    1.6054   -0.8791    5.2566 H   0  0  0  0  0  0  0  0  0  0  0  0
    1.4655    0.3508    8.0339 H   0  0  0  0  0  0  0  0  0  0  0  0
    1.8794   -2.0106    7.8227 H   0  0  0  0  0  0  0  0  0  0  0  0
    3.2827   -1.2199    8.5197 H   0  0  0  0  0  0  0  0  0  0  0  0
    3.3139   -1.7363    6.8419 H   0  0  0  0  0  0  0  0  0  0  0  0
    4.0115    0.7984    7.8198 H   0  0  0  0  0  0  0  0  0  0  0  0
    3.6885    0.5383    2.7217 H   0  0  0  0  0  0  0  0  0  0  0  0
    3.0006   -0.5871    3.8525 H   0  0  0  0  0  0  0  0  0  0  0  0
    1.6318    1.3981    2.1509 H   0  0  0  0  0  0  0  0  0  0  0  0
    0.0055    2.8199    2.5591 H   0  0  0  0  0  0  0  0  0  0  0  0
   -1.7189    1.1572    2.3464 H   0  0  0  0  0  0  0  0  0  0  0  0
   -2.4576    2.6611    2.8489 H   0  0  0  0  0  0  0  0  0  0  0  0
   -2.2198    1.3522    4.0158 H   0  0  0  0  0  0  0  0  0  0  0  0
   -1.2635    4.2427    4.2449 H   0  0  0  0  0  0  0  0  0  0  0  0
    0.4784    5.3902    3.5796 H   0  0  0  0  0  0  0  0  0  0  0  0
    0.8000    5.4137    5.2457 H   0  0  0  0  0  0  0  0  0  0  0  0
    2.3507    3.4807    3.4665 H   0  0  0  0  0  0  0  0  0  0  0  0
    2.8815    6.4114    3.2782 H   0  0  0  0  0  0  0  0  0  0  0  0
    2.1251    5.3474    2.0799 H   0  0  0  0  0  0  0  0  0  0  0  0
    3.8072    5.1192    2.5072 H   0  0  0  0  0  0  0  0  0  0  0  0
    4.3771    3.5940    4.4746 H   0  0  0  0  0  0  0  0  0  0  0  0
    4.2502    5.2099    4.9207 H   0  0  0  0  0  0  0  0  0  0  0  0
    5.7241    3.6291    6.7329 H   0  0  0  0  0  0  0  0  0  0  0  0
   -1.7956    2.6119    5.9102 H   0  0  0  0  0  0  0  0  0  0  0  0
   -1.0179    5.0563    6.9507 H   0  0  0  0  0  0  0  0  0  0  0  0
   -3.2846    2.2648    8.2166 H   0  0  0  0  0  0  0  0  0  0  0  0
   -2.5423    2.1977    9.8330 H   0  0  0  0  0  0  0  0  0  0  0  0
   -1.6986    1.5288    8.4470 H   0  0  0  0  0  0  0  0  0  0  0  0
   -3.6351    4.6764    8.4823 H   0  0  0  0  0  0  0  0  0  0  0  0
   -2.2927    5.7491    8.8568 H   0  0  0  0  0  0  0  0  0  0  0  0
   -2.8947    4.6269   10.0853 H   0  0  0  0  0  0  0  0  0  0  0  0
  1  2  1  0
  1 37  1  0
  1 38  1  0
  1 39  1  0
  3  2  1  1
  3 33  1  0
  3 34  1  0
  3  4  1  0
  4  5  1  0
  4 40  1  0
  4 41  1  0
  6  5  1  1
  5 42  1  0
  5 43  1  0
  6 14  1  0
  6 28  1  0
  6  7  1  0
  7 30  1  0
  7  8  2  3
  8  9  1  0
  8 44  1  0
  9 32  1  0
  9 10  1  0
  9 45  1  1
 10 20  1  0
 10 11  2  3
 11 12  1  0
 11 46  1  0
 12 13  1  0
 12 14  1  0
 12 47  1  1
 13 48  1  0
 13 49  1  0
 13 50  1  0
 14 15  1  0
 14 51  1  1
 15 16  2  0
 15 17  1  0
 17 18  1  0
 18 19  1  0
 18 52  1  0
 18 53  1  0
 19 20  2  3
 19 54  1  0
 20 21  1  0
 21 22  1  0
 21 23  1  0
 21 55  1  6
 22 56  1  0
 22 57  1  0
 22 58  1  0
 23 24  1  0
 23 32  1  0
 23 59  1  6
 24 25  1  0
 24 60  1  0
 24 61  1  0
 25 26  1  0
 25 27  1  0
 25 62  1  6
 26 63  1  0
 26 64  1  0
 26 65  1  0
 27 28  1  0
 27 66  1  0
 27 67  1  0
 28 29  1  1
 28 30  1  0
 29 68  1  0
 30 31  2  0
 32 33  1  0
 32 69  1  6
 33 34  1  0
 33 70  1  6
 34 35  1  0
 34 36  1  0
 35 71  1  0
 35 72  1  0
 35 73  1  0
 36 74  1  0
 36 75  1  0
 36 76  1  0
M  END
>  <i_m_ct_stereo_status>  (438) 
1

>  <s_m_source_file>  (438) 
/var/tmp/pbs.5076255.sched01/tmpg_ssl3dq/162k0u29fl7.sdf

>  <i_m_source_file_index>  (438) 
44

>  <i_lp_mmshare_version>  (438) 
48012

>  <i_f3d_flags>  (438) 
0

>  <s_epik_input>  (438) 
Tz1DMVtDQF0yKFtPSF0pW0NIMl1bQ0BIXShbQ0gzXSlbQ0gyXVtDSF0oW0NIXTNbQ0BASF00W0NAXShPW0NIM10pKFtDSDJdW0NIMl01KUM0KFtDSDNdKVtDSDNdKVtDQEhdKFtDSDNdKUMoXEM9NlxbQ0BIXTMvW0NIXT1DMVxbQ0BAXTI1Nyk9W0NIXVxbQ0gyXU9DKD1PKVtDQEBIXTdbQ0BASF0oL1tDSF02KVtDSDNd

>  <s_epik_cmdline>  (438) 
J2VwaWtfcHl0aG9uJywgJy1waHQnLCAnMi4wJywgJy1waCcsICc3LjAnLCAnLXRuJywgJzgnLCAnLW1hJywgJzIwMCcsICctaW1hZScsICc8aW5maWxlLm1hZT4nLCAnLW9tYWUnLCAnPG91dGZpbGUubWFlPic=

>  <r_lp_tautomer_probability>  (438) 
1

>  <r_epik_Ionization_Penalty>  (438) 
2.1431e-06

>  <r_epik_Ionization_Penalty_Charging>  (438) 
0

>  <r_epik_Ionization_Penalty_Neutral>  (438) 
2.1431e-06

>  <r_epik_State_Penalty>  (438) 
-0

>  <r_epik_Charging_Adjusted_Penalty>  (438) 
0

>  <i_epik_Tot_Q>  (438) 
0

>  <i_epik_Tot_abs_Q>  (438) 
0

>  <s_epik_Chemistry_Notes>  (438) 
This compound has an ester and may undergo hydrolysis at high or low pH.

>  <s_lp_Force_Field>  (438) 
OPLS3e

>  <r_lp_Energy>  (438) 
368.738

>  <b_lp_Chiralities_Consistent>  (438) 
1

>  <s_lp_Variant>  (438) 
118:0-1

>  <s_i_glide_gridfile>  (438) 
pfpi4k_grid

>  <i_i_glide_lignum>  (438) 
44

>  <i_i_glide_rotatable_bonds>  (438) 
2

>  <r_i_docking_score>  (438) 
-1.30951

>  <r_i_glide_ligand_efficiency>  (438) 
-0.0363754

>  <r_i_glide_ligand_efficiency_sa>  (438) 
-0.120109

>  <r_i_glide_ligand_efficiency_ln>  (438) 
-0.285701

>  <r_i_glide_gscore>  (438) 
-1.30951

>  <r_i_glide_lipo>  (438) 
-0.0706031

>  <r_i_glide_hbond>  (438) 
0

>  <r_i_glide_metal>  (438) 
-0

>  <r_i_glide_rewards>  (438) 
-0.0501389

>  <r_i_glide_evdw>  (438) 
-20.9939

>  <r_i_glide_ecoul>  (438) 
-0.927169

>  <r_i_glide_erotb>  (438) 
0

>  <r_i_glide_esite>  (438) 
0

>  <r_i_glide_emodel>  (438) 
-23.7861

>  <r_i_glide_energy>  (438) 
-21.9211

>  <r_i_glide_einternal>  (438) 
0.00188352

>  <r_i_glide_intrahb_reward>  (438) 
-0

>  <i_i_glide_confnum>  (438) 
2

>  <i_i_glide_posenum>  (438) 
1

>  <r_i_glide_eff_state_penalty>  (438) 
0

>  <ligand_id>  (438) 
118

>  <original_smiles>  (438) 
COC12CCC34C5=CC6C7=CC(C)C3C(=O)OCC=C7C(C)C(CC(C)CC4(O)C5=O)C6C1C2(C)C

>  <smiles>  (438) 
[H]OC12C(=O)C3=C([H])C4([H])C5=C([H])C([H])(C([H])([H])[H])C6([H])C(=O)OC([H])([H])C([H])=C5C([H])(C([H])([H])[H])C([H])(C([H])([H])C([H])(C([H])([H])[H])C1([H])[H])C4([H])C1([H])C(OC([H])([H])[H])(C([H])([H])C([H])([H])C362)C1(C([H])([H])[H])C([H])([H])[H]

$$$$
118:1:0
     RDKit          3D

 76 82  0  0  1  0  0  0  0  0999 V2000
    6.4678   -2.8693   -2.0248 C   0  0  0  0  0  0  0  0  0  0  0  0
    5.9252   -3.9156   -1.2345 O   0  0  0  0  0  0  0  0  0  0  0  0
    4.9067   -3.6727   -0.2579 C   0  0  2  0  0  0  0  0  0  0  0  0
    5.4441   -2.6010    0.8292 C   0  0  0  0  0  0  0  0  0  0  0  0
    6.1926   -2.9539    2.2571 C   0  0  0  0  0  0  0  0  0  0  0  0
    5.8880   -4.2012    3.2941 C   0  0  2  0  0  0  0  0  0  0  0  0
    4.9060   -4.8245    2.4953 C   0  0  0  0  0  0  0  0  0  0  0  0
    3.7936   -4.1668    2.1813 C   0  0  0  0  0  0  0  0  0  0  0  0
    2.5684   -4.8237    2.0830 C   0  0  2  0  0  0  0  0  0  0  0  0
    2.4328   -5.3175    3.5529 C   0  0  0  0  0  0  0  0  0  0  0  0
    2.5665   -4.4803    4.6255 C   0  0  0  0  0  0  0  0  0  0  0  0
    3.6670   -3.3800    4.8890 C   0  0  1  0  0  0  0  0  0  0  0  0
    3.4398   -2.7348    6.2772 C   0  0  0  0  0  0  0  0  0  0  0  0
    5.1979   -3.9146    4.7552 C   0  0  1  0  0  0  0  0  0  0  0  0
    5.4094   -5.1041    5.7640 C   0  0  0  0  0  0  0  0  0  0  0  0
    6.5355   -5.5054    6.0548 O   0  0  0  0  0  0  0  0  0  0  0  0
    4.2509   -5.6335    6.2592 O   0  0  0  0  0  0  0  0  0  0  0  0
    3.8063   -6.9942    6.1382 C   0  0  0  0  0  0  0  0  0  0  0  0
    2.9670   -7.4081    4.8812 C   0  0  0  0  0  0  0  0  0  0  0  0
    2.4321   -6.7548    3.7987 C   0  0  0  0  0  0  0  0  0  0  0  0
    2.0997   -7.5767    2.5644 C   0  0  1  0  0  0  0  0  0  0  0  0
    0.5882   -7.4973    2.2461 C   0  0  0  0  0  0  0  0  0  0  0  0
    3.0368   -7.1730    1.3641 C   0  0  2  0  0  0  0  0  0  0  0  0
    4.3914   -7.9852    1.2881 C   0  0  0  0  0  0  0  0  0  0  0  0
    5.4110   -8.2118    2.4980 C   0  0  1  0  0  0  0  0  0  0  0  0
    6.6022   -9.0500    2.0137 C   0  0  0  0  0  0  0  0  0  0  0  0
    5.9540   -7.0847    3.4826 C   0  0  0  0  0  0  0  0  0  0  0  0
    6.5758   -5.6928    3.0790 C   0  0  2  0  0  0  0  0  0  0  0  0
    7.9733   -5.8448    2.9716 O   0  0  0  0  0  0  0  0  0  0  0  0
    5.9436   -5.6024    1.7856 C   0  0  0  0  0  0  0  0  0  0  0  0
    6.3575   -5.7638    0.6423 O   0  0  0  0  0  0  0  0  0  0  0  0
    2.8753   -5.6665    0.8396 C   0  0  2  0  0  0  0  0  0  0  0  0
    3.8811   -4.9468   -0.2599 C   0  0  1  0  0  0  0  0  0  0  0  0
    3.5774   -3.6256   -0.9868 C   0  0  0  0  0  0  0  0  0  0  0  0
    2.5280   -2.7191   -0.4594 C   0  0  0  0  0  0  0  0  0  0  0  0
    3.4378   -3.5996   -2.5006 C   0  0  0  0  0  0  0  0  0  0  0  0
    6.9780   -3.3240   -2.8750 H   0  0  0  0  0  0  0  0  0  0  0  0
    7.2160   -2.2840   -1.4941 H   0  0  0  0  0  0  0  0  0  0  0  0
    5.7076   -2.2007   -2.4212 H   0  0  0  0  0  0  0  0  0  0  0  0
    6.1038   -1.9031    0.3240 H   0  0  0  0  0  0  0  0  0  0  0  0
    4.6134   -1.9361    1.0736 H   0  0  0  0  0  0  0  0  0  0  0  0
    7.2140   -3.1120    1.9075 H   0  0  0  0  0  0  0  0  0  0  0  0
    6.2080   -2.0274    2.8440 H   0  0  0  0  0  0  0  0  0  0  0  0
    3.6092   -3.1612    2.5112 H   0  0  0  0  0  0  0  0  0  0  0  0
    1.7871   -4.1022    1.8879 H   0  0  0  0  0  0  0  0  0  0  0  0
    2.2414   -4.9023    5.5633 H   0  0  0  0  0  0  0  0  0  0  0  0
    3.5153   -2.4970    4.2766 H   0  0  0  0  0  0  0  0  0  0  0  0
    2.4823   -2.2181    6.3098 H   0  0  0  0  0  0  0  0  0  0  0  0
    4.2092   -1.9910    6.4897 H   0  0  0  0  0  0  0  0  0  0  0  0
    3.4457   -3.4432    7.1055 H   0  0  0  0  0  0  0  0  0  0  0  0
    5.8093   -3.1206    5.1847 H   0  0  0  0  0  0  0  0  0  0  0  0
    4.6762   -7.6504    6.1988 H   0  0  0  0  0  0  0  0  0  0  0  0
    3.2018   -7.2215    7.0160 H   0  0  0  0  0  0  0  0  0  0  0  0
    2.9227   -8.4880    4.8324 H   0  0  0  0  0  0  0  0  0  0  0  0
    2.2862   -8.6337    2.7729 H   0  0  0  0  0  0  0  0  0  0  0  0
   -0.0008   -7.8581    3.0929 H   0  0  0  0  0  0  0  0  0  0  0  0
    0.3185   -8.1151    1.3867 H   0  0  0  0  0  0  0  0  0  0  0  0
    0.2653   -6.4770    2.0371 H   0  0  0  0  0  0  0  0  0  0  0  0
    2.4845   -7.6628    0.5628 H   0  0  0  0  0  0  0  0  0  0  0  0
    4.0899   -8.9999    1.0304 H   0  0  0  0  0  0  0  0  0  0  0  0
    4.9224   -7.6888    0.3900 H   0  0  0  0  0  0  0  0  0  0  0  0
    4.8632   -8.8715    3.1764 H   0  0  0  0  0  0  0  0  0  0  0  0
    7.2373   -8.4706    1.3419 H   0  0  0  0  0  0  0  0  0  0  0  0
    6.2660   -9.9431    1.4884 H   0  0  0  0  0  0  0  0  0  0  0  0
    7.2175   -9.3750    2.8549 H   0  0  0  0  0  0  0  0  0  0  0  0
    5.0587   -6.8363    3.9921 H   0  0  0  0  0  0  0  0  0  0  0  0
    6.5842   -7.5426    4.2497 H   0  0  0  0  0  0  0  0  0  0  0  0
    8.3083   -5.0562    2.5816 H   0  0  0  0  0  0  0  0  0  0  0  0
    1.9213   -5.6907    0.3116 H   0  0  0  0  0  0  0  0  0  0  0  0
    4.3020   -5.7131   -0.8983 H   0  0  0  0  0  0  0  0  0  0  0  0
    1.5509   -3.1338   -0.7047 H   0  0  0  0  0  0  0  0  0  0  0  0
    2.6512   -1.7421   -0.9316 H   0  0  0  0  0  0  0  0  0  0  0  0
    2.5826   -2.5397    0.6141 H   0  0  0  0  0  0  0  0  0  0  0  0
    2.4436   -3.9415   -2.7899 H   0  0  0  0  0  0  0  0  0  0  0  0
    4.2001   -4.2417   -2.9481 H   0  0  0  0  0  0  0  0  0  0  0  0
    3.5594   -2.6126   -2.9202 H   0  0  0  0  0  0  0  0  0  0  0  0
  1  2  1  0
  1 37  1  0
  1 38  1  0
  1 39  1  0
  3  2  1  6
  3 33  1  0
  3 34  1  0
  3  4  1  0
  4  5  1  0
  4 40  1  0
  4 41  1  0
  6  5  1  6
  5 42  1  0
  5 43  1  0
  6 14  1  0
  6 28  1  0
  6  7  1  0
  7 30  1  0
  7  8  2  3
  8  9  1  0
  8 44  1  0
  9 32  1  0
  9 10  1  0
  9 45  1  6
 10 20  1  0
 10 11  2  3
 11 12  1  0
 11 46  1  0
 12 13  1  0
 12 14  1  0
 12 47  1  6
 13 48  1  0
 13 49  1  0
 13 50  1  0
 14 15  1  0
 14 51  1  1
 15 16  2  0
 15 17  1  0
 17 18  1  0
 18 19  1  0
 18 52  1  0
 18 53  1  0
 19 20  2  3
 19 54  1  0
 20 21  1  0
 21 22  1  0
 21 23  1  0
 21 55  1  1
 22 56  1  0
 22 57  1  0
 22 58  1  0
 23 24  1  0
 23 32  1  0
 23 59  1  6
 24 25  1  0
 24 60  1  0
 24 61  1  0
 25 26  1  0
 25 27  1  0
 25 62  1  1
 26 63  1  0
 26 64  1  0
 26 65  1  0
 27 28  1  0
 27 66  1  0
 27 67  1  0
 28 29  1  6
 28 30  1  0
 29 68  1  0
 30 31  2  0
 32 33  1  0
 32 69  1  6
 33 34  1  0
 33 70  1  6
 34 35  1  0
 34 36  1  0
 35 71  1  0
 35 72  1  0
 35 73  1  0
 36 74  1  0
 36 75  1  0
 36 76  1  0
M  END
>  <i_m_ct_stereo_status>  (439) 
1

>  <s_m_source_file>  (439) 
/var/tmp/pbs.5076255.sched01/tmpg_ssl3dq/162k0u29fl7.sdf

>  <i_m_source_file_index>  (439) 
45

>  <i_lp_mmshare_version>  (439) 
48012

>  <i_f3d_flags>  (439) 
0

>  <s_epik_input>  (439) 
Tz1DMVtDQF0yKFtPSF0pW0NIMl1bQ0BIXShbQ0gzXSlbQ0gyXVtDSF0oW0NIXTNbQ0BASF00W0NAXShPW0NIM10pKFtDSDJdW0NIMl01KUM0KFtDSDNdKVtDSDNdKVtDQEhdKFtDSDNdKUMoXEM9NlxbQ0BIXTMvW0NIXT1DMVxbQ0BAXTI1Nyk9W0NIXVxbQ0gyXU9DKD1PKVtDQEBIXTdbQ0BASF0oL1tDSF02KVtDSDNd

>  <s_epik_cmdline>  (439) 
J2VwaWtfcHl0aG9uJywgJy1waHQnLCAnMi4wJywgJy1waCcsICc3LjAnLCAnLXRuJywgJzgnLCAnLW1hJywgJzIwMCcsICctaW1hZScsICc8aW5maWxlLm1hZT4nLCAnLW9tYWUnLCAnPG91dGZpbGUubWFlPic=

>  <r_lp_tautomer_probability>  (439) 
1

>  <r_epik_Ionization_Penalty>  (439) 
2.1431e-06

>  <r_epik_Ionization_Penalty_Charging>  (439) 
0

>  <r_epik_Ionization_Penalty_Neutral>  (439) 
2.1431e-06

>  <r_epik_State_Penalty>  (439) 
-0

>  <r_epik_Charging_Adjusted_Penalty>  (439) 
0

>  <i_epik_Tot_Q>  (439) 
0

>  <i_epik_Tot_abs_Q>  (439) 
0

>  <s_epik_Chemistry_Notes>  (439) 
This compound has an ester and may undergo hydrolysis at high or low pH.

>  <s_lp_Force_Field>  (439) 
OPLS3e

>  <r_lp_Energy>  (439) 
365.721

>  <b_lp_Chiralities_Consistent>  (439) 
1

>  <s_lp_Variant>  (439) 
118:0-2

>  <s_i_glide_gridfile>  (439) 
pfpi4k_grid

>  <i_i_glide_lignum>  (439) 
45

>  <i_i_glide_rotatable_bonds>  (439) 
2

>  <r_i_docking_score>  (439) 
-1.08805

>  <r_i_glide_ligand_efficiency>  (439) 
-0.0302236

>  <r_i_glide_ligand_efficiency_sa>  (439) 
-0.099796

>  <r_i_glide_ligand_efficiency_ln>  (439) 
-0.237383

>  <r_i_glide_gscore>  (439) 
-1.08805

>  <r_i_glide_lipo>  (439) 
-0.294767

>  <r_i_glide_hbond>  (439) 
0

>  <r_i_glide_metal>  (439) 
-0

>  <r_i_glide_rewards>  (439) 
-0.128694

>  <r_i_glide_evdw>  (439) 
-12.1853

>  <r_i_glide_ecoul>  (439) 
-0.368824

>  <r_i_glide_erotb>  (439) 
0

>  <r_i_glide_esite>  (439) 
0

>  <r_i_glide_emodel>  (439) 
-10.4017

>  <r_i_glide_energy>  (439) 
-12.5541

>  <r_i_glide_einternal>  (439) 
3.30638

>  <r_i_glide_intrahb_reward>  (439) 
-0

>  <i_i_glide_confnum>  (439) 
1

>  <i_i_glide_posenum>  (439) 
8

>  <r_i_glide_eff_state_penalty>  (439) 
0

>  <ligand_id>  (439) 
118

>  <original_smiles>  (439) 
COC12CCC34C5=CC6C7=CC(C)C3C(=O)OCC=C7C(C)C(CC(C)CC4(O)C5=O)C6C1C2(C)C

>  <smiles>  (439) 
[H]OC12C(=O)C3=C([H])C4([H])C5=C([H])C([H])(C([H])([H])[H])C6([H])C(=O)OC([H])([H])C([H])=C5C([H])(C([H])([H])[H])C([H])(C([H])([H])C([H])(C([H])([H])[H])C1([H])[H])C4([H])C1([H])C(OC([H])([H])[H])(C([H])([H])C([H])([H])C362)C1(C([H])([H])[H])C([H])([H])[H]

$$$$
118:1:1
     RDKit          3D

 76 82  0  0  1  0  0  0  0  0999 V2000
    5.1418   -8.8676    4.7492 C   0  0  0  0  0  0  0  0  0  0  0  0
    4.4510   -7.7535    4.1816 O   0  0  0  0  0  0  0  0  0  0  0  0
    4.7566   -7.3613    2.8409 C   0  0  2  0  0  0  0  0  0  0  0  0
    6.3560   -6.9641    2.7047 C   0  0  0  0  0  0  0  0  0  0  0  0
    7.0641   -5.4627    2.9167 C   0  0  0  0  0  0  0  0  0  0  0  0
    6.3864   -4.0186    2.4671 C   0  0  2  0  0  0  0  0  0  0  0  0
    5.1764   -4.5253    2.0078 C   0  0  0  0  0  0  0  0  0  0  0  0
    5.1454   -5.3639    0.9800 C   0  0  0  0  0  0  0  0  0  0  0  0
    4.1278   -5.3280    0.0373 C   0  0  2  0  0  0  0  0  0  0  0  0
    4.3754   -3.9094   -0.5561 C   0  0  0  0  0  0  0  0  0  0  0  0
    5.5895   -3.5062   -1.0274 C   0  0  0  0  0  0  0  0  0  0  0  0
    6.9880   -3.6491   -0.3099 C   0  0  1  0  0  0  0  0  0  0  0  0
    8.0850   -2.9852   -1.1773 C   0  0  0  0  0  0  0  0  0  0  0  0
    7.0380   -3.1353    1.2131 C   0  0  1  0  0  0  0  0  0  0  0  0
    6.5828   -1.6262    1.2169 C   0  0  0  0  0  0  0  0  0  0  0  0
    6.5913   -0.9674    2.2507 O   0  0  0  0  0  0  0  0  0  0  0  0
    6.0513   -1.1642    0.0695 O   0  0  0  0  0  0  0  0  0  0  0  0
    4.7402   -0.5889    0.0120 C   0  0  0  0  0  0  0  0  0  0  0  0
    3.5129   -1.5445   -0.1575 C   0  0  0  0  0  0  0  0  0  0  0  0
    3.3497   -2.8977   -0.3557 C   0  0  0  0  0  0  0  0  0  0  0  0
    1.9914   -3.4814   -0.0151 C   0  0  1  0  0  0  0  0  0  0  0  0
    1.2609   -4.0034   -1.2606 C   0  0  0  0  0  0  0  0  0  0  0  0
    2.0533   -4.5092    1.2083 C   0  0  2  0  0  0  0  0  0  0  0  0
    1.9001   -3.7787    2.6169 C   0  0  0  0  0  0  0  0  0  0  0  0
    2.6460   -2.4568    3.1103 C   0  0  1  0  0  0  0  0  0  0  0  0
    2.1978   -2.1150    4.5334 C   0  0  0  0  0  0  0  0  0  0  0  0
    4.1982   -2.2143    3.0173 C   0  0  0  0  0  0  0  0  0  0  0  0
    5.3330   -3.2123    3.4620 C   0  0  2  0  0  0  0  0  0  0  0  0
    5.7122   -2.9145    4.8043 O   0  0  0  0  0  0  0  0  0  0  0  0
    4.5913   -4.4330    3.3919 C   0  0  0  0  0  0  0  0  0  0  0  0
    4.0186   -5.1380    4.2044 O   0  0  0  0  0  0  0  0  0  0  0  0
    2.9768   -5.7757    0.9405 C   0  0  2  0  0  0  0  0  0  0  0  0
    3.3627   -6.8664    2.1144 C   0  0  1  0  0  0  0  0  0  0  0  0
    3.9794   -8.2391    1.8472 C   0  0  0  0  0  0  0  0  0  0  0  0
    4.6095   -8.5995    0.5158 C   0  0  0  0  0  0  0  0  0  0  0  0
    3.1496   -9.4351    2.3018 C   0  0  0  0  0  0  0  0  0  0  0  0
    4.5974   -9.2176    5.6300 H   0  0  0  0  0  0  0  0  0  0  0  0
    6.1485   -8.6193    5.0905 H   0  0  0  0  0  0  0  0  0  0  0  0
    5.2138   -9.7077    4.0597 H   0  0  0  0  0  0  0  0  0  0  0  0
    6.9248   -7.6452    3.3296 H   0  0  0  0  0  0  0  0  0  0  0  0
    6.6806   -7.3072    1.7259 H   0  0  0  0  0  0  0  0  0  0  0  0
    7.2889   -5.4168    3.9865 H   0  0  0  0  0  0  0  0  0  0  0  0
    8.0536   -5.5169    2.4685 H   0  0  0  0  0  0  0  0  0  0  0  0
    6.0242   -5.7051    0.4883 H   0  0  0  0  0  0  0  0  0  0  0  0
    4.2901   -6.0637   -0.7362 H   0  0  0  0  0  0  0  0  0  0  0  0
    5.5618   -2.5837   -1.5904 H   0  0  0  0  0  0  0  0  0  0  0  0
    7.3685   -4.6596   -0.3220 H   0  0  0  0  0  0  0  0  0  0  0  0
    8.1527   -3.4583   -2.1581 H   0  0  0  0  0  0  0  0  0  0  0  0
    9.0639   -3.0765   -0.7102 H   0  0  0  0  0  0  0  0  0  0  0  0
    7.9193   -1.9268   -1.3492 H   0  0  0  0  0  0  0  0  0  0  0  0
    8.1023   -3.1361    1.4019 H   0  0  0  0  0  0  0  0  0  0  0  0
    4.5826    0.0079    0.9157 H   0  0  0  0  0  0  0  0  0  0  0  0
    4.7238    0.1177   -0.8140 H   0  0  0  0  0  0  0  0  0  0  0  0
    2.6082   -0.9851    0.0505 H   0  0  0  0  0  0  0  0  0  0  0  0
    1.4214   -2.6612    0.3493 H   0  0  0  0  0  0  0  0  0  0  0  0
    1.2079   -3.2778   -2.0768 H   0  0  0  0  0  0  0  0  0  0  0  0
    0.2782   -4.4217   -1.1193 H   0  0  0  0  0  0  0  0  0  0  0  0
    1.8021   -4.8371   -1.5917 H   0  0  0  0  0  0  0  0  0  0  0  0
    1.1187   -5.0631    1.2162 H   0  0  0  0  0  0  0  0  0  0  0  0
    0.8656   -3.4482    2.6570 H   0  0  0  0  0  0  0  0  0  0  0  0
    1.8888   -4.5377    3.3903 H   0  0  0  0  0  0  0  0  0  0  0  0
    2.2400   -1.6623    2.4878 H   0  0  0  0  0  0  0  0  0  0  0  0
    2.5777   -2.8454    5.2476 H   0  0  0  0  0  0  0  0  0  0  0  0
    1.1123   -2.0931    4.6120 H   0  0  0  0  0  0  0  0  0  0  0  0
    2.5647   -1.1332    4.8403 H   0  0  0  0  0  0  0  0  0  0  0  0
    4.2996   -2.1496    1.9656 H   0  0  0  0  0  0  0  0  0  0  0  0
    4.4274   -1.2143    3.3781 H   0  0  0  0  0  0  0  0  0  0  0  0
    6.1777   -2.1109    4.7434 H   0  0  0  0  0  0  0  0  0  0  0  0
    2.3537   -6.3638    0.2687 H   0  0  0  0  0  0  0  0  0  0  0  0
    2.5146   -6.9170    2.7928 H   0  0  0  0  0  0  0  0  0  0  0  0
    3.8472   -8.8225   -0.2223 H   0  0  0  0  0  0  0  0  0  0  0  0
    5.2418   -9.4800    0.6169 H   0  0  0  0  0  0  0  0  0  0  0  0
    5.2178   -7.7912    0.1397 H   0  0  0  0  0  0  0  0  0  0  0  0
    2.3641   -9.6537    1.5789 H   0  0  0  0  0  0  0  0  0  0  0  0
    2.6740   -9.2358    3.2600 H   0  0  0  0  0  0  0  0  0  0  0  0
    3.7783  -10.3180    2.4041 H   0  0  0  0  0  0  0  0  0  0  0  0
  1  2  1  0
  1 37  1  0
  1 38  1  0
  1 39  1  0
  3  2  1  1
  3 33  1  0
  3 34  1  0
  3  4  1  0
  4  5  1  0
  4 40  1  0
  4 41  1  0
  6  5  1  1
  5 42  1  0
  5 43  1  0
  6 14  1  0
  6 28  1  0
  6  7  1  0
  7 30  1  0
  7  8  2  3
  8  9  1  0
  8 44  1  0
  9 32  1  0
  9 10  1  0
  9 45  1  6
 10 20  1  0
 10 11  2  3
 11 12  1  0
 11 46  1  0
 12 13  1  0
 12 14  1  0
 12 47  1  1
 13 48  1  0
 13 49  1  0
 13 50  1  0
 14 15  1  0
 14 51  1  1
 15 16  2  0
 15 17  1  0
 17 18  1  0
 18 19  1  0
 18 52  1  0
 18 53  1  0
 19 20  2  3
 19 54  1  0
 20 21  1  0
 21 22  1  0
 21 23  1  0
 21 55  1  1
 22 56  1  0
 22 57  1  0
 22 58  1  0
 23 24  1  0
 23 32  1  0
 23 59  1  6
 24 25  1  0
 24 60  1  0
 24 61  1  0
 25 26  1  0
 25 27  1  0
 25 62  1  6
 26 63  1  0
 26 64  1  0
 26 65  1  0
 27 28  1  0
 27 66  1  0
 27 67  1  0
 28 29  1  1
 28 30  1  0
 29 68  1  0
 30 31  2  0
 32 33  1  0
 32 69  1  6
 33 34  1  0
 33 70  1  1
 34 35  1  0
 34 36  1  0
 35 71  1  0
 35 72  1  0
 35 73  1  0
 36 74  1  0
 36 75  1  0
 36 76  1  0
M  END
>  <i_m_ct_stereo_status>  (440) 
1

>  <s_m_source_file>  (440) 
/var/tmp/pbs.5076255.sched01/tmpg_ssl3dq/162k0u29fl7.sdf

>  <i_m_source_file_index>  (440) 
45

>  <i_lp_mmshare_version>  (440) 
48012

>  <i_f3d_flags>  (440) 
0

>  <s_epik_input>  (440) 
Tz1DMVtDQF0yKFtPSF0pW0NIMl1bQ0BIXShbQ0gzXSlbQ0gyXVtDSF0oW0NIXTNbQ0BASF00W0NAXShPW0NIM10pKFtDSDJdW0NIMl01KUM0KFtDSDNdKVtDSDNdKVtDQEhdKFtDSDNdKUMoXEM9NlxbQ0BIXTMvW0NIXT1DMVxbQ0BAXTI1Nyk9W0NIXVxbQ0gyXU9DKD1PKVtDQEBIXTdbQ0BASF0oL1tDSF02KVtDSDNd

>  <s_epik_cmdline>  (440) 
J2VwaWtfcHl0aG9uJywgJy1waHQnLCAnMi4wJywgJy1waCcsICc3LjAnLCAnLXRuJywgJzgnLCAnLW1hJywgJzIwMCcsICctaW1hZScsICc8aW5maWxlLm1hZT4nLCAnLW9tYWUnLCAnPG91dGZpbGUubWFlPic=

>  <r_lp_tautomer_probability>  (440) 
1

>  <r_epik_Ionization_Penalty>  (440) 
2.1431e-06

>  <r_epik_Ionization_Penalty_Charging>  (440) 
0

>  <r_epik_Ionization_Penalty_Neutral>  (440) 
2.1431e-06

>  <r_epik_State_Penalty>  (440) 
-0

>  <r_epik_Charging_Adjusted_Penalty>  (440) 
0

>  <i_epik_Tot_Q>  (440) 
0

>  <i_epik_Tot_abs_Q>  (440) 
0

>  <s_epik_Chemistry_Notes>  (440) 
This compound has an ester and may undergo hydrolysis at high or low pH.

>  <s_lp_Force_Field>  (440) 
OPLS3e

>  <r_lp_Energy>  (440) 
365.721

>  <b_lp_Chiralities_Consistent>  (440) 
1

>  <s_lp_Variant>  (440) 
118:0-2

>  <s_i_glide_gridfile>  (440) 
pfpi4k_grid

>  <i_i_glide_lignum>  (440) 
45

>  <i_i_glide_rotatable_bonds>  (440) 
2

>  <r_i_docking_score>  (440) 
-0.698609

>  <r_i_glide_ligand_efficiency>  (440) 
-0.0194058

>  <r_i_glide_ligand_efficiency_sa>  (440) 
-0.0640766

>  <r_i_glide_ligand_efficiency_ln>  (440) 
-0.152418

>  <r_i_glide_gscore>  (440) 
-0.698609

>  <r_i_glide_lipo>  (440) 
-0.480778

>  <r_i_glide_hbond>  (440) 
0

>  <r_i_glide_metal>  (440) 
-0

>  <r_i_glide_rewards>  (440) 
-0.160149

>  <r_i_glide_evdw>  (440) 
-0.794696

>  <r_i_glide_ecoul>  (440) 
-0.119648

>  <r_i_glide_erotb>  (440) 
0

>  <r_i_glide_esite>  (440) 
0

>  <r_i_glide_emodel>  (440) 
0.686109

>  <r_i_glide_energy>  (440) 
-0.914344

>  <r_i_glide_einternal>  (440) 
0.778846

>  <r_i_glide_intrahb_reward>  (440) 
-0

>  <i_i_glide_confnum>  (440) 
1

>  <i_i_glide_posenum>  (440) 
25

>  <r_i_glide_eff_state_penalty>  (440) 
0

>  <ligand_id>  (440) 
118

>  <original_smiles>  (440) 
COC12CCC34C5=CC6C7=CC(C)C3C(=O)OCC=C7C(C)C(CC(C)CC4(O)C5=O)C6C1C2(C)C

>  <smiles>  (440) 
[H]OC12C(=O)C3=C([H])C4([H])C5=C([H])C([H])(C([H])([H])[H])C6([H])C(=O)OC([H])([H])C([H])=C5C([H])(C([H])([H])[H])C([H])(C([H])([H])C([H])(C([H])([H])[H])C1([H])[H])C4([H])C1([H])C(OC([H])([H])[H])(C([H])([H])C([H])([H])C362)C1(C([H])([H])[H])C([H])([H])[H]

$$$$
118:1:2
     RDKit          3D

 76 82  0  0  1  0  0  0  0  0999 V2000
    6.9504   -2.5267   -1.8192 C   0  0  0  0  0  0  0  0  0  0  0  0
    6.3662   -3.7176   -1.3401 O   0  0  0  0  0  0  0  0  0  0  0  0
    5.2395   -3.6184   -0.4525 C   0  0  2  0  0  0  0  0  0  0  0  0
    5.4996   -2.5143    0.7419 C   0  0  0  0  0  0  0  0  0  0  0  0
    6.2743   -2.7854    2.1787 C   0  0  0  0  0  0  0  0  0  0  0  0
    6.0531   -4.1093    3.1753 C   0  0  2  0  0  0  0  0  0  0  0  0
    5.2398   -4.8604    2.3181 C   0  0  0  0  0  0  0  0  0  0  0  0
    4.0728   -4.3410    1.9608 C   0  0  0  0  0  0  0  0  0  0  0  0
    2.9425   -5.1285    1.7603 C   0  0  2  0  0  0  0  0  0  0  0  0
    2.7845   -5.6802    3.2046 C   0  0  0  0  0  0  0  0  0  0  0  0
    2.7136   -4.8473    4.2826 C   0  0  0  0  0  0  0  0  0  0  0  0
    3.6634   -3.6325    4.6401 C   0  0  1  0  0  0  0  0  0  0  0  0
    3.2570   -3.0607    6.0115 C   0  0  0  0  0  0  0  0  0  0  0  0
    5.2634   -3.9442    4.6121 C   0  0  1  0  0  0  0  0  0  0  0  0
    5.5744   -5.1130    5.6222 C   0  0  0  0  0  0  0  0  0  0  0  0
    6.7278   -5.3701    5.9626 O   0  0  0  0  0  0  0  0  0  0  0  0
    4.4677   -5.8194    6.0139 O   0  0  0  0  0  0  0  0  0  0  0  0
    4.2368   -7.2274    5.8409 C   0  0  0  0  0  0  0  0  0  0  0  0
    3.5323   -7.7205    4.5396 C   0  0  0  0  0  0  0  0  0  0  0  0
    2.9901   -7.1137    3.4314 C   0  0  0  0  0  0  0  0  0  0  0  0
    2.8465   -7.9529    2.1602 C   0  0  1  0  0  0  0  0  0  0  0  0
    1.3734   -8.0406    1.7498 C   0  0  0  0  0  0  0  0  0  0  0  0
    3.7833   -7.4164    1.0272 C   0  0  2  0  0  0  0  0  0  0  0  0
    5.2299   -7.9844    1.0884 C   0  0  0  0  0  0  0  0  0  0  0  0
    6.1769   -8.1270    2.3766 C   0  0  1  0  0  0  0  0  0  0  0  0
    7.5074   -8.6942    1.8852 C   0  0  0  0  0  0  0  0  0  0  0  0
    6.4848   -6.9661    3.3992 C   0  0  0  0  0  0  0  0  0  0  0  0
    6.9228   -5.5060    2.9971 C   0  0  2  0  0  0  0  0  0  0  0  0
    8.3186   -5.4817    3.0391 O   0  0  0  0  0  0  0  0  0  0  0  0
    6.4839   -5.3929    1.6465 C   0  0  0  0  0  0  0  0  0  0  0  0
    6.9981   -5.4961    0.5282 O   0  0  0  0  0  0  0  0  0  0  0  0
    3.4525   -5.9187    0.5184 C   0  0  2  0  0  0  0  0  0  0  0  0
    4.3906   -5.0310   -0.5401 C   0  0  1  0  0  0  0  0  0  0  0  0
    3.9423   -3.7365   -1.2395 C   0  0  0  0  0  0  0  0  0  0  0  0
    2.7320   -2.9338   -0.7813 C   0  0  0  0  0  0  0  0  0  0  0  0
    3.9668   -3.6990   -2.7617 C   0  0  0  0  0  0  0  0  0  0  0  0
    7.5275   -2.7662   -2.7087 H   0  0  0  0  0  0  0  0  0  0  0  0
    7.6603   -2.1232   -1.0894 H   0  0  0  0  0  0  0  0  0  0  0  0
    6.2196   -1.7615   -2.1003 H   0  0  0  0  0  0  0  0  0  0  0  0
    6.0703   -1.6984    0.3265 H   0  0  0  0  0  0  0  0  0  0  0  0
    4.5563   -1.9659    0.9250 H   0  0  0  0  0  0  0  0  0  0  0  0
    7.2964   -2.7658    1.7680 H   0  0  0  0  0  0  0  0  0  0  0  0
    6.1232   -1.8970    2.7871 H   0  0  0  0  0  0  0  0  0  0  0  0
    3.7185   -3.3655    2.2493 H   0  0  0  0  0  0  0  0  0  0  0  0
    2.0791   -4.5295    1.4823 H   0  0  0  0  0  0  0  0  0  0  0  0
    2.4332   -5.3554    5.1833 H   0  0  0  0  0  0  0  0  0  0  0  0
    3.4334   -2.7645    4.0191 H   0  0  0  0  0  0  0  0  0  0  0  0
    2.2339   -2.6976    5.9836 H   0  0  0  0  0  0  0  0  0  0  0  0
    3.8969   -2.2253    6.2872 H   0  0  0  0  0  0  0  0  0  0  0  0
    3.3133   -3.7912    6.8152 H   0  0  0  0  0  0  0  0  0  0  0  0
    5.7346   -3.0760    5.0688 H   0  0  0  0  0  0  0  0  0  0  0  0
    5.1898   -7.7489    5.9307 H   0  0  0  0  0  0  0  0  0  0  0  0
    3.6127   -7.5558    6.6668 H   0  0  0  0  0  0  0  0  0  0  0  0
    3.6523   -8.7910    4.4473 H   0  0  0  0  0  0  0  0  0  0  0  0
    3.1700   -8.9733    2.3714 H   0  0  0  0  0  0  0  0  0  0  0  0
    0.7930   -8.5056    2.5532 H   0  0  0  0  0  0  0  0  0  0  0  0
    1.3129   -8.6738    0.8705 H   0  0  0  0  0  0  0  0  0  0  0  0
    0.9309   -7.0440    1.5561 H   0  0  0  0  0  0  0  0  0  0  0  0
    3.5646   -8.0099    0.1917 H   0  0  0  0  0  0  0  0  0  0  0  0
    5.1681   -9.0061    0.7111 H   0  0  0  0  0  0  0  0  0  0  0  0
    5.7179   -7.4206    0.3226 H   0  0  0  0  0  0  0  0  0  0  0  0
    5.7051   -8.9169    2.9752 H   0  0  0  0  0  0  0  0  0  0  0  0
    8.0893   -8.0057    1.2535 H   0  0  0  0  0  0  0  0  0  0  0  0
    7.3178   -9.6078    1.3153 H   0  0  0  0  0  0  0  0  0  0  0  0
    8.1096   -8.9525    2.7557 H   0  0  0  0  0  0  0  0  0  0  0  0
    5.5262   -6.8446    3.8152 H   0  0  0  0  0  0  0  0  0  0  0  0
    7.1346   -7.4069    4.1829 H   0  0  0  0  0  0  0  0  0  0  0  0
    8.5705   -5.8980    2.2397 H   0  0  0  0  0  0  0  0  0  0  0  0
    2.5545   -6.0723   -0.0777 H   0  0  0  0  0  0  0  0  0  0  0  0
    4.8853   -5.7271   -1.2057 H   0  0  0  0  0  0  0  0  0  0  0  0
    1.8214   -3.4424   -1.1059 H   0  0  0  0  0  0  0  0  0  0  0  0
    2.7731   -1.9346   -1.2283 H   0  0  0  0  0  0  0  0  0  0  0  0
    2.7058   -2.8067    0.2970 H   0  0  0  0  0  0  0  0  0  0  0  0
    3.0450   -4.1149   -3.1639 H   0  0  0  0  0  0  0  0  0  0  0  0
    4.7976   -4.2933   -3.1475 H   0  0  0  0  0  0  0  0  0  0  0  0
    4.0424   -2.6796   -3.1429 H   0  0  0  0  0  0  0  0  0  0  0  0
  1  2  1  0
  1 37  1  0
  1 38  1  0
  1 39  1  0
  3  2  1  6
  3 33  1  0
  3 34  1  0
  3  4  1  0
  4  5  1  0
  4 40  1  0
  4 41  1  0
  6  5  1  6
  5 42  1  0
  5 43  1  0
  6 14  1  0
  6 28  1  0
  6  7  1  0
  7 30  1  0
  7  8  2  3
  8  9  1  0
  8 44  1  0
  9 32  1  0
  9 10  1  0
  9 45  1  6
 10 20  1  0
 10 11  2  3
 11 12  1  0
 11 46  1  0
 12 13  1  0
 12 14  1  0
 12 47  1  6
 13 48  1  0
 13 49  1  0
 13 50  1  0
 14 15  1  0
 14 51  1  1
 15 16  2  0
 15 17  1  0
 17 18  1  0
 18 19  1  0
 18 52  1  0
 18 53  1  0
 19 20  2  3
 19 54  1  0
 20 21  1  0
 21 22  1  0
 21 23  1  0
 21 55  1  1
 22 56  1  0
 22 57  1  0
 22 58  1  0
 23 24  1  0
 23 32  1  0
 23 59  1  6
 24 25  1  0
 24 60  1  0
 24 61  1  0
 25 26  1  0
 25 27  1  0
 25 62  1  1
 26 63  1  0
 26 64  1  0
 26 65  1  0
 27 28  1  0
 27 66  1  0
 27 67  1  0
 28 29  1  6
 28 30  1  0
 29 68  1  0
 30 31  2  0
 32 33  1  0
 32 69  1  6
 33 34  1  0
 33 70  1  6
 34 35  1  0
 34 36  1  0
 35 71  1  0
 35 72  1  0
 35 73  1  0
 36 74  1  0
 36 75  1  0
 36 76  1  0
M  END
>  <i_m_ct_stereo_status>  (441) 
1

>  <s_m_source_file>  (441) 
/var/tmp/pbs.5076255.sched01/tmpg_ssl3dq/162k0u29fl7.sdf

>  <i_m_source_file_index>  (441) 
45

>  <i_lp_mmshare_version>  (441) 
48012

>  <i_f3d_flags>  (441) 
0

>  <s_epik_input>  (441) 
Tz1DMVtDQF0yKFtPSF0pW0NIMl1bQ0BIXShbQ0gzXSlbQ0gyXVtDSF0oW0NIXTNbQ0BASF00W0NAXShPW0NIM10pKFtDSDJdW0NIMl01KUM0KFtDSDNdKVtDSDNdKVtDQEhdKFtDSDNdKUMoXEM9NlxbQ0BIXTMvW0NIXT1DMVxbQ0BAXTI1Nyk9W0NIXVxbQ0gyXU9DKD1PKVtDQEBIXTdbQ0BASF0oL1tDSF02KVtDSDNd

>  <s_epik_cmdline>  (441) 
J2VwaWtfcHl0aG9uJywgJy1waHQnLCAnMi4wJywgJy1waCcsICc3LjAnLCAnLXRuJywgJzgnLCAnLW1hJywgJzIwMCcsICctaW1hZScsICc8aW5maWxlLm1hZT4nLCAnLW9tYWUnLCAnPG91dGZpbGUubWFlPic=

>  <r_lp_tautomer_probability>  (441) 
1

>  <r_epik_Ionization_Penalty>  (441) 
2.1431e-06

>  <r_epik_Ionization_Penalty_Charging>  (441) 
0

>  <r_epik_Ionization_Penalty_Neutral>  (441) 
2.1431e-06

>  <r_epik_State_Penalty>  (441) 
-0

>  <r_epik_Charging_Adjusted_Penalty>  (441) 
0

>  <i_epik_Tot_Q>  (441) 
0

>  <i_epik_Tot_abs_Q>  (441) 
0

>  <s_epik_Chemistry_Notes>  (441) 
This compound has an ester and may undergo hydrolysis at high or low pH.

>  <s_lp_Force_Field>  (441) 
OPLS3e

>  <r_lp_Energy>  (441) 
365.721

>  <b_lp_Chiralities_Consistent>  (441) 
1

>  <s_lp_Variant>  (441) 
118:0-2

>  <s_i_glide_gridfile>  (441) 
pfpi4k_grid

>  <i_i_glide_lignum>  (441) 
45

>  <i_i_glide_rotatable_bonds>  (441) 
2

>  <r_i_docking_score>  (441) 
-0.590812

>  <r_i_glide_ligand_efficiency>  (441) 
-0.0164114

>  <r_i_glide_ligand_efficiency_sa>  (441) 
-0.0541894

>  <r_i_glide_ligand_efficiency_ln>  (441) 
-0.128899

>  <r_i_glide_gscore>  (441) 
-0.590812

>  <r_i_glide_lipo>  (441) 
-0.37651

>  <r_i_glide_hbond>  (441) 
0

>  <r_i_glide_metal>  (441) 
-0

>  <r_i_glide_rewards>  (441) 
-0.151201

>  <r_i_glide_evdw>  (441) 
-1.11315

>  <r_i_glide_ecoul>  (441) 
-0.0496182

>  <r_i_glide_erotb>  (441) 
0

>  <r_i_glide_esite>  (441) 
0

>  <r_i_glide_emodel>  (441) 
4.93915

>  <r_i_glide_energy>  (441) 
-1.16277

>  <r_i_glide_einternal>  (441) 
4.49174

>  <r_i_glide_intrahb_reward>  (441) 
-0

>  <i_i_glide_confnum>  (441) 
1

>  <i_i_glide_posenum>  (441) 
17

>  <r_i_glide_eff_state_penalty>  (441) 
0

>  <ligand_id>  (441) 
118

>  <original_smiles>  (441) 
COC12CCC34C5=CC6C7=CC(C)C3C(=O)OCC=C7C(C)C(CC(C)CC4(O)C5=O)C6C1C2(C)C

>  <smiles>  (441) 
[H]OC12C(=O)C3=C([H])C4([H])C5=C([H])C([H])(C([H])([H])[H])C6([H])C(=O)OC([H])([H])C([H])=C5C([H])(C([H])([H])[H])C([H])(C([H])([H])C([H])(C([H])([H])[H])C1([H])[H])C4([H])C1([H])C(OC([H])([H])[H])(C([H])([H])C([H])([H])C362)C1(C([H])([H])[H])C([H])([H])[H]

$$$$
118:2:0
     RDKit          3D

 76 82  0  0  1  0  0  0  0  0999 V2000
   -0.3681    5.3234    3.2934 C   0  0  0  0  0  0  0  0  0  0  0  0
   -0.2431    4.4192    4.3999 O   0  0  0  0  0  0  0  0  0  0  0  0
    0.1199    3.0539    4.1387 C   0  0  1  0  0  0  0  0  0  0  0  0
    1.4418    2.9476    3.2432 C   0  0  0  0  0  0  0  0  0  0  0  0
    2.9672    2.9398    3.7588 C   0  0  0  0  0  0  0  0  0  0  0  0
    3.5181    2.2241    5.0633 C   0  0  1  0  0  0  0  0  0  0  0  0
    2.4368    1.5827    5.7071 C   0  0  0  0  0  0  0  0  0  0  0  0
    1.6286    0.8107    5.0145 C   0  0  0  0  0  0  0  0  0  0  0  0
    0.7186   -0.1532    5.4267 C   0  0  1  0  0  0  0  0  0  0  0  0
    1.7813   -1.0209    6.1241 C   0  0  0  0  0  0  0  0  0  0  0  0
    2.8876   -1.4673    5.4282 C   0  0  0  0  0  0  0  0  0  0  0  0
    3.8341   -0.6306    4.4370 C   0  0  1  0  0  0  0  0  0  0  0  0
    3.4728   -0.7506    2.9397 C   0  0  0  0  0  0  0  0  0  0  0  0
    4.4643    0.8235    4.9452 C   0  0  2  0  0  0  0  0  0  0  0  0
    5.2990    0.4714    6.2472 C   0  0  0  0  0  0  0  0  0  0  0  0
    6.1105    1.2574    6.7350 O   0  0  0  0  0  0  0  0  0  0  0  0
    5.0200   -0.7665    6.7777 O   0  0  0  0  0  0  0  0  0  0  0  0
    4.5018   -1.0586    8.0902 C   0  0  0  0  0  0  0  0  0  0  0  0
    2.9533   -1.0593    8.3529 C   0  0  0  0  0  0  0  0  0  0  0  0
    1.8086   -0.9495    7.5861 C   0  0  0  0  0  0  0  0  0  0  0  0
    0.4927   -0.3621    8.2096 C   0  0  1  0  0  0  0  0  0  0  0  0
    0.4525   -0.2928    9.7537 C   0  0  0  0  0  0  0  0  0  0  0  0
   -0.0964    0.9900    7.5408 C   0  0  1  0  0  0  0  0  0  0  0  0
    0.2673    2.4398    8.1546 C   0  0  0  0  0  0  0  0  0  0  0  0
    0.7280    3.8029    7.4098 C   0  0  1  0  0  0  0  0  0  0  0  0
    0.5383    4.9375    8.4437 C   0  0  0  0  0  0  0  0  0  0  0  0
    2.1074    4.1700    6.6136 C   0  0  0  0  0  0  0  0  0  0  0  0
    3.3278    3.2101    6.3431 C   0  0  2  0  0  0  0  0  0  0  0  0
    4.4998    3.7643    6.9007 O   0  0  0  0  0  0  0  0  0  0  0  0
    2.8714    2.0145    7.0588 C   0  0  0  0  0  0  0  0  0  0  0  0
    2.9466    1.5933    8.1833 O   0  0  0  0  0  0  0  0  0  0  0  0
   -0.3399    0.8013    6.0143 C   0  0  1  0  0  0  0  0  0  0  0  0
   -0.6750    2.1242    5.1673 C   0  0  2  0  0  0  0  0  0  0  0  0
   -1.1300    2.2331    3.7227 C   0  0  0  0  0  0  0  0  0  0  0  0
   -2.4745    2.9117    3.4777 C   0  0  0  0  0  0  0  0  0  0  0  0
   -1.0164    1.0604    2.7680 C   0  0  0  0  0  0  0  0  0  0  0  0
   -0.8586    6.2206    3.6367 H   0  0  0  0  0  0  0  0  0  0  0  0
   -0.9865    4.9281    2.4837 H   0  0  0  0  0  0  0  0  0  0  0  0
    0.5897    5.6578    2.8919 H   0  0  0  0  0  0  0  0  0  0  0  0
    1.3339    2.1099    2.5647 H   0  0  0  0  0  0  0  0  0  0  0  0
    1.4149    3.7448    2.5089 H   0  0  0  0  0  0  0  0  0  0  0  0
    3.4916    2.5418    2.9066 H   0  0  0  0  0  0  0  0  0  0  0  0
    3.2741    3.9851    3.8302 H   0  0  0  0  0  0  0  0  0  0  0  0
    1.7680    0.7307    3.9580 H   0  0  0  0  0  0  0  0  0  0  0  0
    0.3320   -0.7131    4.5763 H   0  0  0  0  0  0  0  0  0  0  0  0
    3.4795   -2.2030    5.9537 H   0  0  0  0  0  0  0  0  0  0  0  0
    4.7203   -1.2676    4.4213 H   0  0  0  0  0  0  0  0  0  0  0  0
    3.8617   -1.6800    2.5235 H   0  0  0  0  0  0  0  0  0  0  0  0
    3.9155    0.0635    2.3625 H   0  0  0  0  0  0  0  0  0  0  0  0
    2.4023   -0.7687    2.7431 H   0  0  0  0  0  0  0  0  0  0  0  0
    5.2370    1.0567    4.2161 H   0  0  0  0  0  0  0  0  0  0  0  0
    4.8788   -2.0393    8.3851 H   0  0  0  0  0  0  0  0  0  0  0  0
    4.9507   -0.3483    8.7814 H   0  0  0  0  0  0  0  0  0  0  0  0
    2.8213   -0.9240    9.4138 H   0  0  0  0  0  0  0  0  0  0  0  0
   -0.2188   -1.1429    7.9540 H   0  0  0  0  0  0  0  0  0  0  0  0
    0.6276   -1.2758   10.1968 H   0  0  0  0  0  0  0  0  0  0  0  0
   -0.5206    0.0529   10.1078 H   0  0  0  0  0  0  0  0  0  0  0  0
    1.2005    0.3899   10.1557 H   0  0  0  0  0  0  0  0  0  0  0  0
   -1.1253    0.9299    7.8931 H   0  0  0  0  0  0  0  0  0  0  0  0
   -0.6745    2.7274    8.6200 H   0  0  0  0  0  0  0  0  0  0  0  0
    0.8857    2.3164    9.0377 H   0  0  0  0  0  0  0  0  0  0  0  0
   -0.0680    4.0451    6.7200 H   0  0  0  0  0  0  0  0  0  0  0  0
    1.2824    4.8691    9.2388 H   0  0  0  0  0  0  0  0  0  0  0  0
   -0.4484    4.9125    8.9069 H   0  0  0  0  0  0  0  0  0  0  0  0
    0.6347    5.9225    7.9811 H   0  0  0  0  0  0  0  0  0  0  0  0
    1.8032    4.5600    5.6469 H   0  0  0  0  0  0  0  0  0  0  0  0
    2.5112    5.0737    7.0689 H   0  0  0  0  0  0  0  0  0  0  0  0
    4.7184    4.5119    6.3624 H   0  0  0  0  0  0  0  0  0  0  0  0
   -1.2581    0.2165    5.9478 H   0  0  0  0  0  0  0  0  0  0  0  0
   -1.3703    2.6794    5.7879 H   0  0  0  0  0  0  0  0  0  0  0  0
   -3.2909    2.2147    3.6606 H   0  0  0  0  0  0  0  0  0  0  0  0
   -2.5482    3.2686    2.4530 H   0  0  0  0  0  0  0  0  0  0  0  0
   -2.6161    3.7538    4.1477 H   0  0  0  0  0  0  0  0  0  0  0  0
   -1.7769    0.3293    2.9864 H   0  0  0  0  0  0  0  0  0  0  0  0
   -0.0688    0.5418    2.8584 H   0  0  0  0  0  0  0  0  0  0  0  0
   -1.1107    1.3916    1.7332 H   0  0  0  0  0  0  0  0  0  0  0  0
  1  2  1  0
  1 37  1  0
  1 38  1  0
  1 39  1  0
  3  2  1  1
  3 33  1  0
  3 34  1  0
  3  4  1  0
  4  5  1  0
  4 40  1  0
  4 41  1  0
  6  5  1  6
  5 42  1  0
  5 43  1  0
  6 14  1  0
  6 28  1  0
  6  7  1  0
  7 30  1  0
  7  8  2  3
  8  9  1  0
  8 44  1  0
  9 32  1  0
  9 10  1  0
  9 45  1  6
 10 20  1  0
 10 11  2  3
 11 12  1  0
 11 46  1  0
 12 13  1  0
 12 14  1  0
 12 47  1  6
 13 48  1  0
 13 49  1  0
 13 50  1  0
 14 15  1  0
 14 51  1  6
 15 16  2  0
 15 17  1  0
 17 18  1  0
 18 19  1  0
 18 52  1  0
 18 53  1  0
 19 20  2  3
 19 54  1  0
 20 21  1  0
 21 22  1  0
 21 23  1  0
 21 55  1  6
 22 56  1  0
 22 57  1  0
 22 58  1  0
 23 24  1  0
 23 32  1  0
 23 59  1  1
 24 25  1  0
 24 60  1  0
 24 61  1  0
 25 26  1  0
 25 27  1  0
 25 62  1  6
 26 63  1  0
 26 64  1  0
 26 65  1  0
 27 28  1  0
 27 66  1  0
 27 67  1  0
 28 29  1  1
 28 30  1  0
 29 68  1  0
 30 31  2  0
 32 33  1  0
 32 69  1  1
 33 34  1  0
 33 70  1  1
 34 35  1  0
 34 36  1  0
 35 71  1  0
 35 72  1  0
 35 73  1  0
 36 74  1  0
 36 75  1  0
 36 76  1  0
M  END
>  <i_m_ct_stereo_status>  (442) 
1

>  <s_m_source_file>  (442) 
/var/tmp/pbs.5076255.sched01/tmpg_ssl3dq/162k0u29fl7.sdf

>  <i_m_source_file_index>  (442) 
46

>  <i_lp_mmshare_version>  (442) 
48012

>  <i_f3d_flags>  (442) 
3

>  <s_epik_input>  (442) 
Tz1DMVtDQF0yKFtPSF0pW0NIMl1bQ0BIXShbQ0gzXSlbQ0gyXVtDSF0oW0NIXTNbQ0BASF00W0NAXShPW0NIM10pKFtDSDJdW0NIMl01KUM0KFtDSDNdKVtDSDNdKVtDQEhdKFtDSDNdKUMoXEM9NlxbQ0BIXTMvW0NIXT1DMVxbQ0BAXTI1Nyk9W0NIXVxbQ0gyXU9DKD1PKVtDQEBIXTdbQ0BASF0oL1tDSF02KVtDSDNd

>  <s_epik_cmdline>  (442) 
J2VwaWtfcHl0aG9uJywgJy1waHQnLCAnMi4wJywgJy1waCcsICc3LjAnLCAnLXRuJywgJzgnLCAnLW1hJywgJzIwMCcsICctaW1hZScsICc8aW5maWxlLm1hZT4nLCAnLW9tYWUnLCAnPG91dGZpbGUubWFlPic=

>  <r_lp_tautomer_probability>  (442) 
1

>  <r_epik_Ionization_Penalty>  (442) 
2.1431e-06

>  <r_epik_Ionization_Penalty_Charging>  (442) 
0

>  <r_epik_Ionization_Penalty_Neutral>  (442) 
2.1431e-06

>  <r_epik_State_Penalty>  (442) 
-0

>  <r_epik_Charging_Adjusted_Penalty>  (442) 
0

>  <i_epik_Tot_Q>  (442) 
0

>  <i_epik_Tot_abs_Q>  (442) 
0

>  <s_epik_Chemistry_Notes>  (442) 
This compound has an ester and may undergo hydrolysis at high or low pH.

>  <s_lp_Force_Field>  (442) 
OPLS3e

>  <r_lp_Energy>  (442) 
365.505

>  <b_lp_Chiralities_Consistent>  (442) 
0

>  <s_lp_Variant>  (442) 
118:0-3

>  <s_i_glide_gridfile>  (442) 
pfpi4k_grid

>  <i_i_glide_lignum>  (442) 
46

>  <i_i_glide_rotatable_bonds>  (442) 
2

>  <r_i_docking_score>  (442) 
-1.21564

>  <r_i_glide_ligand_efficiency>  (442) 
-0.0337677

>  <r_i_glide_ligand_efficiency_sa>  (442) 
-0.111499

>  <r_i_glide_ligand_efficiency_ln>  (442) 
-0.265219

>  <r_i_glide_gscore>  (442) 
-1.21564

>  <r_i_glide_lipo>  (442) 
-0.0249917

>  <r_i_glide_hbond>  (442) 
0

>  <r_i_glide_metal>  (442) 
-0

>  <r_i_glide_rewards>  (442) 
-0.0749563

>  <r_i_glide_evdw>  (442) 
-17.3091

>  <r_i_glide_ecoul>  (442) 
-1.66822

>  <r_i_glide_erotb>  (442) 
0

>  <r_i_glide_esite>  (442) 
0

>  <r_i_glide_emodel>  (442) 
-19.6561

>  <r_i_glide_energy>  (442) 
-18.9774

>  <r_i_glide_einternal>  (442) 
0.874792

>  <r_i_glide_intrahb_reward>  (442) 
-0

>  <i_i_glide_confnum>  (442) 
2

>  <i_i_glide_posenum>  (442) 
14

>  <r_i_glide_eff_state_penalty>  (442) 
0

>  <ligand_id>  (442) 
118

>  <original_smiles>  (442) 
COC12CCC34C5=CC6C7=CC(C)C3C(=O)OCC=C7C(C)C(CC(C)CC4(O)C5=O)C6C1C2(C)C

>  <smiles>  (442) 
[H]OC12C(=O)C3=C([H])C4([H])C5=C([H])C([H])(C([H])([H])[H])C6([H])C(=O)OC([H])([H])C([H])=C5C([H])(C([H])([H])[H])C([H])(C([H])([H])C([H])(C([H])([H])[H])C1([H])[H])C4([H])C1([H])C(OC([H])([H])[H])(C([H])([H])C([H])([H])C362)C1(C([H])([H])[H])C([H])([H])[H]

$$$$
118:2:1
     RDKit          3D

 76 82  0  0  1  0  0  0  0  0999 V2000
    3.4891    2.5352   11.3847 C   0  0  0  0  0  0  0  0  0  0  0  0
    3.5910    2.0846   10.0312 O   0  0  0  0  0  0  0  0  0  0  0  0
    2.4569    1.4262    9.4242 C   0  0  1  0  0  0  0  0  0  0  0  0
    1.1257    2.3076    9.5438 C   0  0  0  0  0  0  0  0  0  0  0  0
    0.6169    3.4711    8.5290 C   0  0  0  0  0  0  0  0  0  0  0  0
    0.7650    3.4500    6.9544 C   0  0  1  0  0  0  0  0  0  0  0  0
    1.4034    2.2501    6.5571 C   0  0  0  0  0  0  0  0  0  0  0  0
    0.9518    1.0959    7.0453 C   0  0  0  0  0  0  0  0  0  0  0  0
    1.1525   -0.1980    6.6024 C   0  0  1  0  0  0  0  0  0  0  0  0
    0.5380    0.0443    5.2143 C   0  0  0  0  0  0  0  0  0  0  0  0
   -0.7474    0.5454    5.0963 C   0  0  0  0  0  0  0  0  0  0  0  0
   -1.4020    1.7757    5.9014 C   0  0  1  0  0  0  0  0  0  0  0  0
   -2.2130    1.3745    7.1554 C   0  0  0  0  0  0  0  0  0  0  0  0
   -0.5931    3.2257    5.9751 C   0  0  2  0  0  0  0  0  0  0  0  0
   -0.4163    3.6730    4.4600 C   0  0  0  0  0  0  0  0  0  0  0  0
   -0.1193    4.8280    4.1622 O   0  0  0  0  0  0  0  0  0  0  0  0
   -0.6337    2.6627    3.5529 O   0  0  0  0  0  0  0  0  0  0  0  0
    0.3035    2.1264    2.5939 C   0  0  0  0  0  0  0  0  0  0  0  0
    1.3001    0.9852    3.0062 C   0  0  0  0  0  0  0  0  0  0  0  0
    1.4892    0.1727    4.1094 C   0  0  0  0  0  0  0  0  0  0  0  0
    2.9169   -0.3945    4.4308 C   0  0  1  0  0  0  0  0  0  0  0  0
    3.9481   -0.3126    3.2850 C   0  0  0  0  0  0  0  0  0  0  0  0
    3.5686    0.0343    5.8465 C   0  0  1  0  0  0  0  0  0  0  0  0
    4.5790    1.2938    5.9451 C   0  0  0  0  0  0  0  0  0  0  0  0
    4.6346    2.5137    7.0154 C   0  0  1  0  0  0  0  0  0  0  0  0
    6.0272    3.1647    6.8466 C   0  0  0  0  0  0  0  0  0  0  0  0
    3.6052    3.7539    7.2708 C   0  0  0  0  0  0  0  0  0  0  0  0
    2.2414    4.0178    6.5230 C   0  0  2  0  0  0  0  0  0  0  0  0
    2.2757    5.2863    5.9021 O   0  0  0  0  0  0  0  0  0  0  0  0
    2.2441    2.9232    5.5744 C   0  0  0  0  0  0  0  0  0  0  0  0
    2.7004    2.7697    4.4335 O   0  0  0  0  0  0  0  0  0  0  0  0
    2.6301   -0.3342    7.0384 C   0  0  1  0  0  0  0  0  0  0  0  0
    3.0225    0.2578    8.4762 C   0  0  2  0  0  0  0  0  0  0  0  0
    2.4213   -0.0747    9.8353 C   0  0  0  0  0  0  0  0  0  0  0  0
    3.3614   -0.6399   10.8858 C   0  0  0  0  0  0  0  0  0  0  0  0
    1.1061   -0.8291    9.9517 C   0  0  0  0  0  0  0  0  0  0  0  0
    4.4916    2.7387   11.7643 H   0  0  0  0  0  0  0  0  0  0  0  0
    3.0324    1.8030   12.0512 H   0  0  0  0  0  0  0  0  0  0  0  0
    2.9371    3.4707   11.4673 H   0  0  0  0  0  0  0  0  0  0  0  0
    0.2796    1.6349    9.6963 H   0  0  0  0  0  0  0  0  0  0  0  0
    1.1364    2.7869   10.5123 H   0  0  0  0  0  0  0  0  0  0  0  0
   -0.4347    3.6657    8.7640 H   0  0  0  0  0  0  0  0  0  0  0  0
    1.1247    4.3830    8.8638 H   0  0  0  0  0  0  0  0  0  0  0  0
    0.1773    1.1108    7.7675 H   0  0  0  0  0  0  0  0  0  0  0  0
    0.5157   -0.9035    7.1367 H   0  0  0  0  0  0  0  0  0  0  0  0
   -1.1429    0.5278    4.0909 H   0  0  0  0  0  0  0  0  0  0  0  0
   -2.2402    2.0147    5.2469 H   0  0  0  0  0  0  0  0  0  0  0  0
   -3.2009    1.0095    6.8850 H   0  0  0  0  0  0  0  0  0  0  0  0
   -2.3617    2.2268    7.8187 H   0  0  0  0  0  0  0  0  0  0  0  0
   -1.7431    0.5885    7.7273 H   0  0  0  0  0  0  0  0  0  0  0  0
   -1.3355    3.9371    6.3526 H   0  0  0  0  0  0  0  0  0  0  0  0
   -0.2637    1.7800    1.7294 H   0  0  0  0  0  0  0  0  0  0  0  0
    0.9269    2.9450    2.2350 H   0  0  0  0  0  0  0  0  0  0  0  0
    2.1108    1.0239    2.2991 H   0  0  0  0  0  0  0  0  0  0  0  0
    2.7152   -1.4620    4.5293 H   0  0  0  0  0  0  0  0  0  0  0  0
    3.5801   -0.8178    2.3887 H   0  0  0  0  0  0  0  0  0  0  0  0
    4.8830   -0.7993    3.5680 H   0  0  0  0  0  0  0  0  0  0  0  0
    4.1863    0.7173    3.0150 H   0  0  0  0  0  0  0  0  0  0  0  0
    4.3033   -0.7667    5.9494 H   0  0  0  0  0  0  0  0  0  0  0  0
    5.5403    0.7968    6.0977 H   0  0  0  0  0  0  0  0  0  0  0  0
    4.7395    1.7073    4.9534 H   0  0  0  0  0  0  0  0  0  0  0  0
    4.7623    2.0448    7.9803 H   0  0  0  0  0  0  0  0  0  0  0  0
    6.0898    3.7141    5.9068 H   0  0  0  0  0  0  0  0  0  0  0  0
    6.8338    2.4278    6.8612 H   0  0  0  0  0  0  0  0  0  0  0  0
    6.2396    3.8654    7.6551 H   0  0  0  0  0  0  0  0  0  0  0  0
    3.3753    3.7445    8.3361 H   0  0  0  0  0  0  0  0  0  0  0  0
    4.1840    4.6740    7.2045 H   0  0  0  0  0  0  0  0  0  0  0  0
    2.8468    5.2082    5.1615 H   0  0  0  0  0  0  0  0  0  0  0  0
    2.7525   -1.4126    7.1567 H   0  0  0  0  0  0  0  0  0  0  0  0
    4.0995    0.1306    8.5444 H   0  0  0  0  0  0  0  0  0  0  0  0
    3.5149   -1.7063   10.7293 H   0  0  0  0  0  0  0  0  0  0  0  0
    2.9582   -0.4966   11.8882 H   0  0  0  0  0  0  0  0  0  0  0  0
    4.3415   -0.1601   10.8433 H   0  0  0  0  0  0  0  0  0  0  0  0
    1.2652   -1.8932    9.7745 H   0  0  0  0  0  0  0  0  0  0  0  0
    0.3634   -0.4773    9.2389 H   0  0  0  0  0  0  0  0  0  0  0  0
    0.6845   -0.6966   10.9500 H   0  0  0  0  0  0  0  0  0  0  0  0
  1  2  1  0
  1 37  1  0
  1 38  1  0
  1 39  1  0
  3  2  1  1
  3 33  1  0
  3 34  1  0
  3  4  1  0
  4  5  1  0
  4 40  1  0
  4 41  1  0
  6  5  1  1
  5 42  1  0
  5 43  1  0
  6 14  1  0
  6 28  1  0
  6  7  1  0
  7 30  1  0
  7  8  2  3
  8  9  1  0
  8 44  1  0
  9 32  1  0
  9 10  1  0
  9 45  1  1
 10 20  1  0
 10 11  2  3
 11 12  1  0
 11 46  1  0
 12 13  1  0
 12 14  1  0
 12 47  1  6
 13 48  1  0
 13 49  1  0
 13 50  1  0
 14 15  1  0
 14 51  1  1
 15 16  2  0
 15 17  1  0
 17 18  1  0
 18 19  1  0
 18 52  1  0
 18 53  1  0
 19 20  2  3
 19 54  1  0
 20 21  1  0
 21 22  1  0
 21 23  1  0
 21 55  1  1
 22 56  1  0
 22 57  1  0
 22 58  1  0
 23 24  1  0
 23 32  1  0
 23 59  1  1
 24 25  1  0
 24 60  1  0
 24 61  1  0
 25 26  1  0
 25 27  1  0
 25 62  1  1
 26 63  1  0
 26 64  1  0
 26 65  1  0
 27 28  1  0
 27 66  1  0
 27 67  1  0
 28 29  1  6
 28 30  1  0
 29 68  1  0
 30 31  2  0
 32 33  1  0
 32 69  1  1
 33 34  1  0
 33 70  1  1
 34 35  1  0
 34 36  1  0
 35 71  1  0
 35 72  1  0
 35 73  1  0
 36 74  1  0
 36 75  1  0
 36 76  1  0
M  END
>  <i_m_ct_stereo_status>  (443) 
1

>  <s_m_source_file>  (443) 
/var/tmp/pbs.5076255.sched01/tmpg_ssl3dq/162k0u29fl7.sdf

>  <i_m_source_file_index>  (443) 
46

>  <i_lp_mmshare_version>  (443) 
48012

>  <i_f3d_flags>  (443) 
3

>  <s_epik_input>  (443) 
Tz1DMVtDQF0yKFtPSF0pW0NIMl1bQ0BIXShbQ0gzXSlbQ0gyXVtDSF0oW0NIXTNbQ0BASF00W0NAXShPW0NIM10pKFtDSDJdW0NIMl01KUM0KFtDSDNdKVtDSDNdKVtDQEhdKFtDSDNdKUMoXEM9NlxbQ0BIXTMvW0NIXT1DMVxbQ0BAXTI1Nyk9W0NIXVxbQ0gyXU9DKD1PKVtDQEBIXTdbQ0BASF0oL1tDSF02KVtDSDNd

>  <s_epik_cmdline>  (443) 
J2VwaWtfcHl0aG9uJywgJy1waHQnLCAnMi4wJywgJy1waCcsICc3LjAnLCAnLXRuJywgJzgnLCAnLW1hJywgJzIwMCcsICctaW1hZScsICc8aW5maWxlLm1hZT4nLCAnLW9tYWUnLCAnPG91dGZpbGUubWFlPic=

>  <r_lp_tautomer_probability>  (443) 
1

>  <r_epik_Ionization_Penalty>  (443) 
2.1431e-06

>  <r_epik_Ionization_Penalty_Charging>  (443) 
0

>  <r_epik_Ionization_Penalty_Neutral>  (443) 
2.1431e-06

>  <r_epik_State_Penalty>  (443) 
-0

>  <r_epik_Charging_Adjusted_Penalty>  (443) 
0

>  <i_epik_Tot_Q>  (443) 
0

>  <i_epik_Tot_abs_Q>  (443) 
0

>  <s_epik_Chemistry_Notes>  (443) 
This compound has an ester and may undergo hydrolysis at high or low pH.

>  <s_lp_Force_Field>  (443) 
OPLS3e

>  <r_lp_Energy>  (443) 
365.505

>  <b_lp_Chiralities_Consistent>  (443) 
0

>  <s_lp_Variant>  (443) 
118:0-3

>  <s_i_glide_gridfile>  (443) 
pfpi4k_grid

>  <i_i_glide_lignum>  (443) 
46

>  <i_i_glide_rotatable_bonds>  (443) 
2

>  <r_i_docking_score>  (443) 
-1.00987

>  <r_i_glide_ligand_efficiency>  (443) 
-0.0280518

>  <r_i_glide_ligand_efficiency_sa>  (443) 
-0.0926251

>  <r_i_glide_ligand_efficiency_ln>  (443) 
-0.220325

>  <r_i_glide_gscore>  (443) 
-1.00987

>  <r_i_glide_lipo>  (443) 
-0.0499993

>  <r_i_glide_hbond>  (443) 
0

>  <r_i_glide_metal>  (443) 
-0

>  <r_i_glide_rewards>  (443) 
-0.0501389

>  <r_i_glide_evdw>  (443) 
-17.9807

>  <r_i_glide_ecoul>  (443) 
0.173592

>  <r_i_glide_erotb>  (443) 
0

>  <r_i_glide_esite>  (443) 
-0.0367298

>  <r_i_glide_emodel>  (443) 
-16.6364

>  <r_i_glide_energy>  (443) 
-17.8071

>  <r_i_glide_einternal>  (443) 
4.06951

>  <r_i_glide_intrahb_reward>  (443) 
-0

>  <i_i_glide_confnum>  (443) 
1

>  <i_i_glide_posenum>  (443) 
4

>  <r_i_glide_eff_state_penalty>  (443) 
0

>  <ligand_id>  (443) 
118

>  <original_smiles>  (443) 
COC12CCC34C5=CC6C7=CC(C)C3C(=O)OCC=C7C(C)C(CC(C)CC4(O)C5=O)C6C1C2(C)C

>  <smiles>  (443) 
[H]OC12C(=O)C3=C([H])C4([H])C5=C([H])C([H])(C([H])([H])[H])C6([H])C(=O)OC([H])([H])C([H])=C5C([H])(C([H])([H])[H])C([H])(C([H])([H])C([H])(C([H])([H])[H])C1([H])[H])C4([H])C1([H])C(OC([H])([H])[H])(C([H])([H])C([H])([H])C362)C1(C([H])([H])[H])C([H])([H])[H]

$$$$
118:3:0
     RDKit          3D

 76 82  0  0  1  0  0  0  0  0999 V2000
   -0.3681    5.3234    3.2934 C   0  0  0  0  0  0  0  0  0  0  0  0
   -0.2431    4.4192    4.3999 O   0  0  0  0  0  0  0  0  0  0  0  0
    0.1199    3.0539    4.1387 C   0  0  1  0  0  0  0  0  0  0  0  0
    1.4418    2.9476    3.2432 C   0  0  0  0  0  0  0  0  0  0  0  0
    2.9672    2.9398    3.7588 C   0  0  0  0  0  0  0  0  0  0  0  0
    3.5181    2.2241    5.0633 C   0  0  1  0  0  0  0  0  0  0  0  0
    2.4368    1.5827    5.7071 C   0  0  0  0  0  0  0  0  0  0  0  0
    1.6286    0.8107    5.0145 C   0  0  0  0  0  0  0  0  0  0  0  0
    0.7186   -0.1532    5.4267 C   0  0  1  0  0  0  0  0  0  0  0  0
    1.7813   -1.0209    6.1241 C   0  0  0  0  0  0  0  0  0  0  0  0
    2.8876   -1.4673    5.4282 C   0  0  0  0  0  0  0  0  0  0  0  0
    3.8341   -0.6306    4.4370 C   0  0  1  0  0  0  0  0  0  0  0  0
    3.4728   -0.7506    2.9397 C   0  0  0  0  0  0  0  0  0  0  0  0
    4.4643    0.8235    4.9452 C   0  0  2  0  0  0  0  0  0  0  0  0
    5.2990    0.4714    6.2472 C   0  0  0  0  0  0  0  0  0  0  0  0
    6.1105    1.2574    6.7350 O   0  0  0  0  0  0  0  0  0  0  0  0
    5.0200   -0.7665    6.7777 O   0  0  0  0  0  0  0  0  0  0  0  0
    4.5018   -1.0586    8.0902 C   0  0  0  0  0  0  0  0  0  0  0  0
    2.9533   -1.0593    8.3529 C   0  0  0  0  0  0  0  0  0  0  0  0
    1.8086   -0.9495    7.5861 C   0  0  0  0  0  0  0  0  0  0  0  0
    0.4927   -0.3621    8.2096 C   0  0  1  0  0  0  0  0  0  0  0  0
    0.4525   -0.2928    9.7537 C   0  0  0  0  0  0  0  0  0  0  0  0
   -0.0964    0.9900    7.5408 C   0  0  1  0  0  0  0  0  0  0  0  0
    0.2673    2.4398    8.1546 C   0  0  0  0  0  0  0  0  0  0  0  0
    0.7280    3.8029    7.4098 C   0  0  1  0  0  0  0  0  0  0  0  0
    0.5383    4.9375    8.4437 C   0  0  0  0  0  0  0  0  0  0  0  0
    2.1074    4.1700    6.6136 C   0  0  0  0  0  0  0  0  0  0  0  0
    3.3278    3.2101    6.3431 C   0  0  2  0  0  0  0  0  0  0  0  0
    4.4998    3.7643    6.9007 O   0  0  0  0  0  0  0  0  0  0  0  0
    2.8714    2.0145    7.0588 C   0  0  0  0  0  0  0  0  0  0  0  0
    2.9466    1.5933    8.1833 O   0  0  0  0  0  0  0  0  0  0  0  0
   -0.3399    0.8013    6.0143 C   0  0  1  0  0  0  0  0  0  0  0  0
   -0.6750    2.1242    5.1673 C   0  0  2  0  0  0  0  0  0  0  0  0
   -1.1300    2.2331    3.7227 C   0  0  0  0  0  0  0  0  0  0  0  0
   -2.4745    2.9117    3.4777 C   0  0  0  0  0  0  0  0  0  0  0  0
   -1.0164    1.0604    2.7680 C   0  0  0  0  0  0  0  0  0  0  0  0
   -0.8586    6.2206    3.6367 H   0  0  0  0  0  0  0  0  0  0  0  0
   -0.9865    4.9281    2.4837 H   0  0  0  0  0  0  0  0  0  0  0  0
    0.5897    5.6578    2.8919 H   0  0  0  0  0  0  0  0  0  0  0  0
    1.3339    2.1099    2.5647 H   0  0  0  0  0  0  0  0  0  0  0  0
    1.4149    3.7448    2.5089 H   0  0  0  0  0  0  0  0  0  0  0  0
    3.4916    2.5418    2.9066 H   0  0  0  0  0  0  0  0  0  0  0  0
    3.2741    3.9851    3.8302 H   0  0  0  0  0  0  0  0  0  0  0  0
    1.7680    0.7307    3.9580 H   0  0  0  0  0  0  0  0  0  0  0  0
    0.3320   -0.7131    4.5763 H   0  0  0  0  0  0  0  0  0  0  0  0
    3.4795   -2.2030    5.9537 H   0  0  0  0  0  0  0  0  0  0  0  0
    4.7203   -1.2676    4.4213 H   0  0  0  0  0  0  0  0  0  0  0  0
    3.8617   -1.6800    2.5235 H   0  0  0  0  0  0  0  0  0  0  0  0
    3.9155    0.0635    2.3625 H   0  0  0  0  0  0  0  0  0  0  0  0
    2.4023   -0.7687    2.7431 H   0  0  0  0  0  0  0  0  0  0  0  0
    5.2370    1.0567    4.2161 H   0  0  0  0  0  0  0  0  0  0  0  0
    4.8788   -2.0393    8.3851 H   0  0  0  0  0  0  0  0  0  0  0  0
    4.9507   -0.3483    8.7814 H   0  0  0  0  0  0  0  0  0  0  0  0
    2.8213   -0.9240    9.4138 H   0  0  0  0  0  0  0  0  0  0  0  0
   -0.2188   -1.1429    7.9540 H   0  0  0  0  0  0  0  0  0  0  0  0
    0.6276   -1.2758   10.1968 H   0  0  0  0  0  0  0  0  0  0  0  0
   -0.5206    0.0529   10.1078 H   0  0  0  0  0  0  0  0  0  0  0  0
    1.2005    0.3899   10.1557 H   0  0  0  0  0  0  0  0  0  0  0  0
   -1.1253    0.9299    7.8931 H   0  0  0  0  0  0  0  0  0  0  0  0
   -0.6745    2.7274    8.6200 H   0  0  0  0  0  0  0  0  0  0  0  0
    0.8857    2.3164    9.0377 H   0  0  0  0  0  0  0  0  0  0  0  0
   -0.0680    4.0451    6.7200 H   0  0  0  0  0  0  0  0  0  0  0  0
    1.2824    4.8691    9.2388 H   0  0  0  0  0  0  0  0  0  0  0  0
   -0.4484    4.9125    8.9069 H   0  0  0  0  0  0  0  0  0  0  0  0
    0.6347    5.9225    7.9811 H   0  0  0  0  0  0  0  0  0  0  0  0
    1.8032    4.5600    5.6469 H   0  0  0  0  0  0  0  0  0  0  0  0
    2.5112    5.0737    7.0689 H   0  0  0  0  0  0  0  0  0  0  0  0
    4.7184    4.5119    6.3624 H   0  0  0  0  0  0  0  0  0  0  0  0
   -1.2581    0.2165    5.9478 H   0  0  0  0  0  0  0  0  0  0  0  0
   -1.3703    2.6794    5.7879 H   0  0  0  0  0  0  0  0  0  0  0  0
   -3.2909    2.2147    3.6606 H   0  0  0  0  0  0  0  0  0  0  0  0
   -2.5482    3.2686    2.4530 H   0  0  0  0  0  0  0  0  0  0  0  0
   -2.6161    3.7538    4.1477 H   0  0  0  0  0  0  0  0  0  0  0  0
   -1.7769    0.3293    2.9864 H   0  0  0  0  0  0  0  0  0  0  0  0
   -0.0688    0.5418    2.8584 H   0  0  0  0  0  0  0  0  0  0  0  0
   -1.1107    1.3916    1.7332 H   0  0  0  0  0  0  0  0  0  0  0  0
  1  2  1  0
  1 37  1  0
  1 38  1  0
  1 39  1  0
  3  2  1  1
  3 33  1  0
  3 34  1  0
  3  4  1  0
  4  5  1  0
  4 40  1  0
  4 41  1  0
  6  5  1  6
  5 42  1  0
  5 43  1  0
  6 14  1  0
  6 28  1  0
  6  7  1  0
  7 30  1  0
  7  8  2  3
  8  9  1  0
  8 44  1  0
  9 32  1  0
  9 10  1  0
  9 45  1  6
 10 20  1  0
 10 11  2  3
 11 12  1  0
 11 46  1  0
 12 13  1  0
 12 14  1  0
 12 47  1  6
 13 48  1  0
 13 49  1  0
 13 50  1  0
 14 15  1  0
 14 51  1  6
 15 16  2  0
 15 17  1  0
 17 18  1  0
 18 19  1  0
 18 52  1  0
 18 53  1  0
 19 20  2  3
 19 54  1  0
 20 21  1  0
 21 22  1  0
 21 23  1  0
 21 55  1  6
 22 56  1  0
 22 57  1  0
 22 58  1  0
 23 24  1  0
 23 32  1  0
 23 59  1  1
 24 25  1  0
 24 60  1  0
 24 61  1  0
 25 26  1  0
 25 27  1  0
 25 62  1  6
 26 63  1  0
 26 64  1  0
 26 65  1  0
 27 28  1  0
 27 66  1  0
 27 67  1  0
 28 29  1  1
 28 30  1  0
 29 68  1  0
 30 31  2  0
 32 33  1  0
 32 69  1  1
 33 34  1  0
 33 70  1  1
 34 35  1  0
 34 36  1  0
 35 71  1  0
 35 72  1  0
 35 73  1  0
 36 74  1  0
 36 75  1  0
 36 76  1  0
M  END
>  <i_m_ct_stereo_status>  (444) 
1

>  <s_m_source_file>  (444) 
/var/tmp/pbs.5076255.sched01/tmpg_ssl3dq/162k0u29fl7.sdf

>  <i_m_source_file_index>  (444) 
47

>  <i_lp_mmshare_version>  (444) 
48012

>  <i_f3d_flags>  (444) 
3

>  <s_epik_input>  (444) 
Tz1DMVtDQF0yKFtPSF0pW0NIMl1bQ0BIXShbQ0gzXSlbQ0gyXVtDSF0oW0NIXTNbQ0BASF00W0NAXShPW0NIM10pKFtDSDJdW0NIMl01KUM0KFtDSDNdKVtDSDNdKVtDQEhdKFtDSDNdKUMoXEM9NlxbQ0BIXTMvW0NIXT1DMVxbQ0BAXTI1Nyk9W0NIXVxbQ0gyXU9DKD1PKVtDQEBIXTdbQ0BASF0oL1tDSF02KVtDSDNd

>  <s_epik_cmdline>  (444) 
J2VwaWtfcHl0aG9uJywgJy1waHQnLCAnMi4wJywgJy1waCcsICc3LjAnLCAnLXRuJywgJzgnLCAnLW1hJywgJzIwMCcsICctaW1hZScsICc8aW5maWxlLm1hZT4nLCAnLW9tYWUnLCAnPG91dGZpbGUubWFlPic=

>  <r_lp_tautomer_probability>  (444) 
1

>  <r_epik_Ionization_Penalty>  (444) 
2.1431e-06

>  <r_epik_Ionization_Penalty_Charging>  (444) 
0

>  <r_epik_Ionization_Penalty_Neutral>  (444) 
2.1431e-06

>  <r_epik_State_Penalty>  (444) 
-0

>  <r_epik_Charging_Adjusted_Penalty>  (444) 
0

>  <i_epik_Tot_Q>  (444) 
0

>  <i_epik_Tot_abs_Q>  (444) 
0

>  <s_epik_Chemistry_Notes>  (444) 
This compound has an ester and may undergo hydrolysis at high or low pH.

>  <s_lp_Force_Field>  (444) 
OPLS3e

>  <r_lp_Energy>  (444) 
365.505

>  <b_lp_Chiralities_Consistent>  (444) 
0

>  <s_lp_Variant>  (444) 
118:0-4

>  <s_i_glide_gridfile>  (444) 
pfpi4k_grid

>  <i_i_glide_lignum>  (444) 
47

>  <i_i_glide_rotatable_bonds>  (444) 
2

>  <r_i_docking_score>  (444) 
-1.21564

>  <r_i_glide_ligand_efficiency>  (444) 
-0.0337677

>  <r_i_glide_ligand_efficiency_sa>  (444) 
-0.111499

>  <r_i_glide_ligand_efficiency_ln>  (444) 
-0.265219

>  <r_i_glide_gscore>  (444) 
-1.21564

>  <r_i_glide_lipo>  (444) 
-0.0249917

>  <r_i_glide_hbond>  (444) 
0

>  <r_i_glide_metal>  (444) 
-0

>  <r_i_glide_rewards>  (444) 
-0.0749563

>  <r_i_glide_evdw>  (444) 
-17.3091

>  <r_i_glide_ecoul>  (444) 
-1.66822

>  <r_i_glide_erotb>  (444) 
0

>  <r_i_glide_esite>  (444) 
0

>  <r_i_glide_emodel>  (444) 
-19.6561

>  <r_i_glide_energy>  (444) 
-18.9774

>  <r_i_glide_einternal>  (444) 
0.874792

>  <r_i_glide_intrahb_reward>  (444) 
-0

>  <i_i_glide_confnum>  (444) 
2

>  <i_i_glide_posenum>  (444) 
14

>  <r_i_glide_eff_state_penalty>  (444) 
0

>  <ligand_id>  (444) 
118

>  <original_smiles>  (444) 
COC12CCC34C5=CC6C7=CC(C)C3C(=O)OCC=C7C(C)C(CC(C)CC4(O)C5=O)C6C1C2(C)C

>  <smiles>  (444) 
[H]OC12C(=O)C3=C([H])C4([H])C5=C([H])C([H])(C([H])([H])[H])C6([H])C(=O)OC([H])([H])C([H])=C5C([H])(C([H])([H])[H])C([H])(C([H])([H])C([H])(C([H])([H])[H])C1([H])[H])C4([H])C1([H])C(OC([H])([H])[H])(C([H])([H])C([H])([H])C362)C1(C([H])([H])[H])C([H])([H])[H]

$$$$
118:3:1
     RDKit          3D

 76 82  0  0  1  0  0  0  0  0999 V2000
    3.4891    2.5352   11.3847 C   0  0  0  0  0  0  0  0  0  0  0  0
    3.5910    2.0846   10.0312 O   0  0  0  0  0  0  0  0  0  0  0  0
    2.4569    1.4262    9.4242 C   0  0  1  0  0  0  0  0  0  0  0  0
    1.1257    2.3076    9.5438 C   0  0  0  0  0  0  0  0  0  0  0  0
    0.6169    3.4711    8.5290 C   0  0  0  0  0  0  0  0  0  0  0  0
    0.7650    3.4500    6.9544 C   0  0  1  0  0  0  0  0  0  0  0  0
    1.4034    2.2501    6.5571 C   0  0  0  0  0  0  0  0  0  0  0  0
    0.9518    1.0959    7.0453 C   0  0  0  0  0  0  0  0  0  0  0  0
    1.1525   -0.1980    6.6024 C   0  0  1  0  0  0  0  0  0  0  0  0
    0.5380    0.0443    5.2143 C   0  0  0  0  0  0  0  0  0  0  0  0
   -0.7474    0.5454    5.0963 C   0  0  0  0  0  0  0  0  0  0  0  0
   -1.4020    1.7757    5.9014 C   0  0  1  0  0  0  0  0  0  0  0  0
   -2.2130    1.3745    7.1554 C   0  0  0  0  0  0  0  0  0  0  0  0
   -0.5931    3.2257    5.9751 C   0  0  2  0  0  0  0  0  0  0  0  0
   -0.4163    3.6730    4.4600 C   0  0  0  0  0  0  0  0  0  0  0  0
   -0.1193    4.8280    4.1622 O   0  0  0  0  0  0  0  0  0  0  0  0
   -0.6337    2.6627    3.5529 O   0  0  0  0  0  0  0  0  0  0  0  0
    0.3035    2.1264    2.5939 C   0  0  0  0  0  0  0  0  0  0  0  0
    1.3001    0.9852    3.0062 C   0  0  0  0  0  0  0  0  0  0  0  0
    1.4892    0.1727    4.1094 C   0  0  0  0  0  0  0  0  0  0  0  0
    2.9169   -0.3945    4.4308 C   0  0  1  0  0  0  0  0  0  0  0  0
    3.9481   -0.3126    3.2850 C   0  0  0  0  0  0  0  0  0  0  0  0
    3.5686    0.0343    5.8465 C   0  0  1  0  0  0  0  0  0  0  0  0
    4.5790    1.2938    5.9451 C   0  0  0  0  0  0  0  0  0  0  0  0
    4.6346    2.5137    7.0154 C   0  0  1  0  0  0  0  0  0  0  0  0
    6.0272    3.1647    6.8466 C   0  0  0  0  0  0  0  0  0  0  0  0
    3.6052    3.7539    7.2708 C   0  0  0  0  0  0  0  0  0  0  0  0
    2.2414    4.0178    6.5230 C   0  0  2  0  0  0  0  0  0  0  0  0
    2.2757    5.2863    5.9021 O   0  0  0  0  0  0  0  0  0  0  0  0
    2.2441    2.9232    5.5744 C   0  0  0  0  0  0  0  0  0  0  0  0
    2.7004    2.7697    4.4335 O   0  0  0  0  0  0  0  0  0  0  0  0
    2.6301   -0.3342    7.0384 C   0  0  1  0  0  0  0  0  0  0  0  0
    3.0225    0.2578    8.4762 C   0  0  2  0  0  0  0  0  0  0  0  0
    2.4213   -0.0747    9.8353 C   0  0  0  0  0  0  0  0  0  0  0  0
    3.3614   -0.6399   10.8858 C   0  0  0  0  0  0  0  0  0  0  0  0
    1.1061   -0.8291    9.9517 C   0  0  0  0  0  0  0  0  0  0  0  0
    4.4916    2.7387   11.7643 H   0  0  0  0  0  0  0  0  0  0  0  0
    3.0324    1.8030   12.0512 H   0  0  0  0  0  0  0  0  0  0  0  0
    2.9371    3.4707   11.4673 H   0  0  0  0  0  0  0  0  0  0  0  0
    0.2796    1.6349    9.6963 H   0  0  0  0  0  0  0  0  0  0  0  0
    1.1364    2.7869   10.5123 H   0  0  0  0  0  0  0  0  0  0  0  0
   -0.4347    3.6657    8.7640 H   0  0  0  0  0  0  0  0  0  0  0  0
    1.1247    4.3830    8.8638 H   0  0  0  0  0  0  0  0  0  0  0  0
    0.1773    1.1108    7.7675 H   0  0  0  0  0  0  0  0  0  0  0  0
    0.5157   -0.9035    7.1367 H   0  0  0  0  0  0  0  0  0  0  0  0
   -1.1429    0.5278    4.0909 H   0  0  0  0  0  0  0  0  0  0  0  0
   -2.2402    2.0147    5.2469 H   0  0  0  0  0  0  0  0  0  0  0  0
   -3.2009    1.0095    6.8850 H   0  0  0  0  0  0  0  0  0  0  0  0
   -2.3617    2.2268    7.8187 H   0  0  0  0  0  0  0  0  0  0  0  0
   -1.7431    0.5885    7.7273 H   0  0  0  0  0  0  0  0  0  0  0  0
   -1.3355    3.9371    6.3526 H   0  0  0  0  0  0  0  0  0  0  0  0
   -0.2637    1.7800    1.7294 H   0  0  0  0  0  0  0  0  0  0  0  0
    0.9269    2.9450    2.2350 H   0  0  0  0  0  0  0  0  0  0  0  0
    2.1108    1.0239    2.2991 H   0  0  0  0  0  0  0  0  0  0  0  0
    2.7152   -1.4620    4.5293 H   0  0  0  0  0  0  0  0  0  0  0  0
    3.5801   -0.8178    2.3887 H   0  0  0  0  0  0  0  0  0  0  0  0
    4.8830   -0.7993    3.5680 H   0  0  0  0  0  0  0  0  0  0  0  0
    4.1863    0.7173    3.0150 H   0  0  0  0  0  0  0  0  0  0  0  0
    4.3033   -0.7667    5.9494 H   0  0  0  0  0  0  0  0  0  0  0  0
    5.5403    0.7968    6.0977 H   0  0  0  0  0  0  0  0  0  0  0  0
    4.7395    1.7073    4.9534 H   0  0  0  0  0  0  0  0  0  0  0  0
    4.7623    2.0448    7.9803 H   0  0  0  0  0  0  0  0  0  0  0  0
    6.0898    3.7141    5.9068 H   0  0  0  0  0  0  0  0  0  0  0  0
    6.8338    2.4278    6.8612 H   0  0  0  0  0  0  0  0  0  0  0  0
    6.2396    3.8654    7.6551 H   0  0  0  0  0  0  0  0  0  0  0  0
    3.3753    3.7445    8.3361 H   0  0  0  0  0  0  0  0  0  0  0  0
    4.1840    4.6740    7.2045 H   0  0  0  0  0  0  0  0  0  0  0  0
    2.8468    5.2082    5.1615 H   0  0  0  0  0  0  0  0  0  0  0  0
    2.7525   -1.4126    7.1567 H   0  0  0  0  0  0  0  0  0  0  0  0
    4.0995    0.1306    8.5444 H   0  0  0  0  0  0  0  0  0  0  0  0
    3.5149   -1.7063   10.7293 H   0  0  0  0  0  0  0  0  0  0  0  0
    2.9582   -0.4966   11.8882 H   0  0  0  0  0  0  0  0  0  0  0  0
    4.3415   -0.1601   10.8433 H   0  0  0  0  0  0  0  0  0  0  0  0
    1.2652   -1.8932    9.7745 H   0  0  0  0  0  0  0  0  0  0  0  0
    0.3634   -0.4773    9.2389 H   0  0  0  0  0  0  0  0  0  0  0  0
    0.6845   -0.6966   10.9500 H   0  0  0  0  0  0  0  0  0  0  0  0
  1  2  1  0
  1 37  1  0
  1 38  1  0
  1 39  1  0
  3  2  1  1
  3 33  1  0
  3 34  1  0
  3  4  1  0
  4  5  1  0
  4 40  1  0
  4 41  1  0
  6  5  1  1
  5 42  1  0
  5 43  1  0
  6 14  1  0
  6 28  1  0
  6  7  1  0
  7 30  1  0
  7  8  2  3
  8  9  1  0
  8 44  1  0
  9 32  1  0
  9 10  1  0
  9 45  1  1
 10 20  1  0
 10 11  2  3
 11 12  1  0
 11 46  1  0
 12 13  1  0
 12 14  1  0
 12 47  1  6
 13 48  1  0
 13 49  1  0
 13 50  1  0
 14 15  1  0
 14 51  1  1
 15 16  2  0
 15 17  1  0
 17 18  1  0
 18 19  1  0
 18 52  1  0
 18 53  1  0
 19 20  2  3
 19 54  1  0
 20 21  1  0
 21 22  1  0
 21 23  1  0
 21 55  1  1
 22 56  1  0
 22 57  1  0
 22 58  1  0
 23 24  1  0
 23 32  1  0
 23 59  1  1
 24 25  1  0
 24 60  1  0
 24 61  1  0
 25 26  1  0
 25 27  1  0
 25 62  1  1
 26 63  1  0
 26 64  1  0
 26 65  1  0
 27 28  1  0
 27 66  1  0
 27 67  1  0
 28 29  1  6
 28 30  1  0
 29 68  1  0
 30 31  2  0
 32 33  1  0
 32 69  1  1
 33 34  1  0
 33 70  1  1
 34 35  1  0
 34 36  1  0
 35 71  1  0
 35 72  1  0
 35 73  1  0
 36 74  1  0
 36 75  1  0
 36 76  1  0
M  END
>  <i_m_ct_stereo_status>  (445) 
1

>  <s_m_source_file>  (445) 
/var/tmp/pbs.5076255.sched01/tmpg_ssl3dq/162k0u29fl7.sdf

>  <i_m_source_file_index>  (445) 
47

>  <i_lp_mmshare_version>  (445) 
48012

>  <i_f3d_flags>  (445) 
3

>  <s_epik_input>  (445) 
Tz1DMVtDQF0yKFtPSF0pW0NIMl1bQ0BIXShbQ0gzXSlbQ0gyXVtDSF0oW0NIXTNbQ0BASF00W0NAXShPW0NIM10pKFtDSDJdW0NIMl01KUM0KFtDSDNdKVtDSDNdKVtDQEhdKFtDSDNdKUMoXEM9NlxbQ0BIXTMvW0NIXT1DMVxbQ0BAXTI1Nyk9W0NIXVxbQ0gyXU9DKD1PKVtDQEBIXTdbQ0BASF0oL1tDSF02KVtDSDNd

>  <s_epik_cmdline>  (445) 
J2VwaWtfcHl0aG9uJywgJy1waHQnLCAnMi4wJywgJy1waCcsICc3LjAnLCAnLXRuJywgJzgnLCAnLW1hJywgJzIwMCcsICctaW1hZScsICc8aW5maWxlLm1hZT4nLCAnLW9tYWUnLCAnPG91dGZpbGUubWFlPic=

>  <r_lp_tautomer_probability>  (445) 
1

>  <r_epik_Ionization_Penalty>  (445) 
2.1431e-06

>  <r_epik_Ionization_Penalty_Charging>  (445) 
0

>  <r_epik_Ionization_Penalty_Neutral>  (445) 
2.1431e-06

>  <r_epik_State_Penalty>  (445) 
-0

>  <r_epik_Charging_Adjusted_Penalty>  (445) 
0

>  <i_epik_Tot_Q>  (445) 
0

>  <i_epik_Tot_abs_Q>  (445) 
0

>  <s_epik_Chemistry_Notes>  (445) 
This compound has an ester and may undergo hydrolysis at high or low pH.

>  <s_lp_Force_Field>  (445) 
OPLS3e

>  <r_lp_Energy>  (445) 
365.505

>  <b_lp_Chiralities_Consistent>  (445) 
0

>  <s_lp_Variant>  (445) 
118:0-4

>  <s_i_glide_gridfile>  (445) 
pfpi4k_grid

>  <i_i_glide_lignum>  (445) 
47

>  <i_i_glide_rotatable_bonds>  (445) 
2

>  <r_i_docking_score>  (445) 
-1.00987

>  <r_i_glide_ligand_efficiency>  (445) 
-0.0280518

>  <r_i_glide_ligand_efficiency_sa>  (445) 
-0.0926251

>  <r_i_glide_ligand_efficiency_ln>  (445) 
-0.220325

>  <r_i_glide_gscore>  (445) 
-1.00987

>  <r_i_glide_lipo>  (445) 
-0.0499993

>  <r_i_glide_hbond>  (445) 
0

>  <r_i_glide_metal>  (445) 
-0

>  <r_i_glide_rewards>  (445) 
-0.0501389

>  <r_i_glide_evdw>  (445) 
-17.9807

>  <r_i_glide_ecoul>  (445) 
0.173592

>  <r_i_glide_erotb>  (445) 
0

>  <r_i_glide_esite>  (445) 
-0.0367298

>  <r_i_glide_emodel>  (445) 
-16.6364

>  <r_i_glide_energy>  (445) 
-17.8071

>  <r_i_glide_einternal>  (445) 
4.06951

>  <r_i_glide_intrahb_reward>  (445) 
-0

>  <i_i_glide_confnum>  (445) 
1

>  <i_i_glide_posenum>  (445) 
4

>  <r_i_glide_eff_state_penalty>  (445) 
0

>  <ligand_id>  (445) 
118

>  <original_smiles>  (445) 
COC12CCC34C5=CC6C7=CC(C)C3C(=O)OCC=C7C(C)C(CC(C)CC4(O)C5=O)C6C1C2(C)C

>  <smiles>  (445) 
[H]OC12C(=O)C3=C([H])C4([H])C5=C([H])C([H])(C([H])([H])[H])C6([H])C(=O)OC([H])([H])C([H])=C5C([H])(C([H])([H])[H])C([H])(C([H])([H])C([H])(C([H])([H])[H])C1([H])[H])C4([H])C1([H])C(OC([H])([H])[H])(C([H])([H])C([H])([H])C362)C1(C([H])([H])[H])C([H])([H])[H]

$$$$
118:4:0
     RDKit          3D

 76 82  0  0  1  0  0  0  0  0999 V2000
   -0.3681    5.3234    3.2934 C   0  0  0  0  0  0  0  0  0  0  0  0
   -0.2431    4.4192    4.3999 O   0  0  0  0  0  0  0  0  0  0  0  0
    0.1199    3.0539    4.1387 C   0  0  1  0  0  0  0  0  0  0  0  0
    1.4418    2.9476    3.2432 C   0  0  0  0  0  0  0  0  0  0  0  0
    2.9672    2.9398    3.7588 C   0  0  0  0  0  0  0  0  0  0  0  0
    3.5181    2.2241    5.0633 C   0  0  1  0  0  0  0  0  0  0  0  0
    2.4368    1.5827    5.7071 C   0  0  0  0  0  0  0  0  0  0  0  0
    1.6286    0.8107    5.0145 C   0  0  0  0  0  0  0  0  0  0  0  0
    0.7186   -0.1532    5.4267 C   0  0  1  0  0  0  0  0  0  0  0  0
    1.7813   -1.0209    6.1241 C   0  0  0  0  0  0  0  0  0  0  0  0
    2.8876   -1.4673    5.4282 C   0  0  0  0  0  0  0  0  0  0  0  0
    3.8341   -0.6306    4.4370 C   0  0  1  0  0  0  0  0  0  0  0  0
    3.4728   -0.7506    2.9397 C   0  0  0  0  0  0  0  0  0  0  0  0
    4.4643    0.8235    4.9452 C   0  0  2  0  0  0  0  0  0  0  0  0
    5.2990    0.4714    6.2472 C   0  0  0  0  0  0  0  0  0  0  0  0
    6.1105    1.2574    6.7350 O   0  0  0  0  0  0  0  0  0  0  0  0
    5.0200   -0.7665    6.7777 O   0  0  0  0  0  0  0  0  0  0  0  0
    4.5018   -1.0586    8.0902 C   0  0  0  0  0  0  0  0  0  0  0  0
    2.9533   -1.0593    8.3529 C   0  0  0  0  0  0  0  0  0  0  0  0
    1.8086   -0.9495    7.5861 C   0  0  0  0  0  0  0  0  0  0  0  0
    0.4927   -0.3621    8.2096 C   0  0  1  0  0  0  0  0  0  0  0  0
    0.4525   -0.2928    9.7537 C   0  0  0  0  0  0  0  0  0  0  0  0
   -0.0964    0.9900    7.5408 C   0  0  1  0  0  0  0  0  0  0  0  0
    0.2673    2.4398    8.1546 C   0  0  0  0  0  0  0  0  0  0  0  0
    0.7280    3.8029    7.4098 C   0  0  1  0  0  0  0  0  0  0  0  0
    0.5383    4.9375    8.4437 C   0  0  0  0  0  0  0  0  0  0  0  0
    2.1074    4.1700    6.6136 C   0  0  0  0  0  0  0  0  0  0  0  0
    3.3278    3.2101    6.3431 C   0  0  2  0  0  0  0  0  0  0  0  0
    4.4998    3.7643    6.9007 O   0  0  0  0  0  0  0  0  0  0  0  0
    2.8714    2.0145    7.0588 C   0  0  0  0  0  0  0  0  0  0  0  0
    2.9466    1.5933    8.1833 O   0  0  0  0  0  0  0  0  0  0  0  0
   -0.3399    0.8013    6.0143 C   0  0  1  0  0  0  0  0  0  0  0  0
   -0.6750    2.1242    5.1673 C   0  0  2  0  0  0  0  0  0  0  0  0
   -1.1300    2.2331    3.7227 C   0  0  0  0  0  0  0  0  0  0  0  0
   -2.4745    2.9117    3.4777 C   0  0  0  0  0  0  0  0  0  0  0  0
   -1.0164    1.0604    2.7680 C   0  0  0  0  0  0  0  0  0  0  0  0
   -0.8586    6.2206    3.6367 H   0  0  0  0  0  0  0  0  0  0  0  0
   -0.9865    4.9281    2.4837 H   0  0  0  0  0  0  0  0  0  0  0  0
    0.5897    5.6578    2.8919 H   0  0  0  0  0  0  0  0  0  0  0  0
    1.3339    2.1099    2.5647 H   0  0  0  0  0  0  0  0  0  0  0  0
    1.4149    3.7448    2.5089 H   0  0  0  0  0  0  0  0  0  0  0  0
    3.4916    2.5418    2.9066 H   0  0  0  0  0  0  0  0  0  0  0  0
    3.2741    3.9851    3.8302 H   0  0  0  0  0  0  0  0  0  0  0  0
    1.7680    0.7307    3.9580 H   0  0  0  0  0  0  0  0  0  0  0  0
    0.3320   -0.7131    4.5763 H   0  0  0  0  0  0  0  0  0  0  0  0
    3.4795   -2.2030    5.9537 H   0  0  0  0  0  0  0  0  0  0  0  0
    4.7203   -1.2676    4.4213 H   0  0  0  0  0  0  0  0  0  0  0  0
    3.8617   -1.6800    2.5235 H   0  0  0  0  0  0  0  0  0  0  0  0
    3.9155    0.0635    2.3625 H   0  0  0  0  0  0  0  0  0  0  0  0
    2.4023   -0.7687    2.7431 H   0  0  0  0  0  0  0  0  0  0  0  0
    5.2370    1.0567    4.2161 H   0  0  0  0  0  0  0  0  0  0  0  0
    4.8788   -2.0393    8.3851 H   0  0  0  0  0  0  0  0  0  0  0  0
    4.9507   -0.3483    8.7814 H   0  0  0  0  0  0  0  0  0  0  0  0
    2.8213   -0.9240    9.4138 H   0  0  0  0  0  0  0  0  0  0  0  0
   -0.2188   -1.1429    7.9540 H   0  0  0  0  0  0  0  0  0  0  0  0
    0.6276   -1.2758   10.1968 H   0  0  0  0  0  0  0  0  0  0  0  0
   -0.5206    0.0529   10.1078 H   0  0  0  0  0  0  0  0  0  0  0  0
    1.2005    0.3899   10.1557 H   0  0  0  0  0  0  0  0  0  0  0  0
   -1.1253    0.9299    7.8931 H   0  0  0  0  0  0  0  0  0  0  0  0
   -0.6745    2.7274    8.6200 H   0  0  0  0  0  0  0  0  0  0  0  0
    0.8857    2.3164    9.0377 H   0  0  0  0  0  0  0  0  0  0  0  0
   -0.0680    4.0451    6.7200 H   0  0  0  0  0  0  0  0  0  0  0  0
    1.2824    4.8691    9.2388 H   0  0  0  0  0  0  0  0  0  0  0  0
   -0.4484    4.9125    8.9069 H   0  0  0  0  0  0  0  0  0  0  0  0
    0.6347    5.9225    7.9811 H   0  0  0  0  0  0  0  0  0  0  0  0
    1.8032    4.5600    5.6469 H   0  0  0  0  0  0  0  0  0  0  0  0
    2.5112    5.0737    7.0689 H   0  0  0  0  0  0  0  0  0  0  0  0
    4.7184    4.5119    6.3624 H   0  0  0  0  0  0  0  0  0  0  0  0
   -1.2581    0.2165    5.9478 H   0  0  0  0  0  0  0  0  0  0  0  0
   -1.3703    2.6794    5.7879 H   0  0  0  0  0  0  0  0  0  0  0  0
   -3.2909    2.2147    3.6606 H   0  0  0  0  0  0  0  0  0  0  0  0
   -2.5482    3.2686    2.4530 H   0  0  0  0  0  0  0  0  0  0  0  0
   -2.6161    3.7538    4.1477 H   0  0  0  0  0  0  0  0  0  0  0  0
   -1.7769    0.3293    2.9864 H   0  0  0  0  0  0  0  0  0  0  0  0
   -0.0688    0.5418    2.8584 H   0  0  0  0  0  0  0  0  0  0  0  0
   -1.1107    1.3916    1.7332 H   0  0  0  0  0  0  0  0  0  0  0  0
  1  2  1  0
  1 37  1  0
  1 38  1  0
  1 39  1  0
  3  2  1  1
  3 33  1  0
  3 34  1  0
  3  4  1  0
  4  5  1  0
  4 40  1  0
  4 41  1  0
  6  5  1  6
  5 42  1  0
  5 43  1  0
  6 14  1  0
  6 28  1  0
  6  7  1  0
  7 30  1  0
  7  8  2  3
  8  9  1  0
  8 44  1  0
  9 32  1  0
  9 10  1  0
  9 45  1  6
 10 20  1  0
 10 11  2  3
 11 12  1  0
 11 46  1  0
 12 13  1  0
 12 14  1  0
 12 47  1  6
 13 48  1  0
 13 49  1  0
 13 50  1  0
 14 15  1  0
 14 51  1  6
 15 16  2  0
 15 17  1  0
 17 18  1  0
 18 19  1  0
 18 52  1  0
 18 53  1  0
 19 20  2  3
 19 54  1  0
 20 21  1  0
 21 22  1  0
 21 23  1  0
 21 55  1  6
 22 56  1  0
 22 57  1  0
 22 58  1  0
 23 24  1  0
 23 32  1  0
 23 59  1  1
 24 25  1  0
 24 60  1  0
 24 61  1  0
 25 26  1  0
 25 27  1  0
 25 62  1  6
 26 63  1  0
 26 64  1  0
 26 65  1  0
 27 28  1  0
 27 66  1  0
 27 67  1  0
 28 29  1  1
 28 30  1  0
 29 68  1  0
 30 31  2  0
 32 33  1  0
 32 69  1  1
 33 34  1  0
 33 70  1  1
 34 35  1  0
 34 36  1  0
 35 71  1  0
 35 72  1  0
 35 73  1  0
 36 74  1  0
 36 75  1  0
 36 76  1  0
M  END
>  <i_m_ct_stereo_status>  (446) 
1

>  <s_m_source_file>  (446) 
/var/tmp/pbs.5076255.sched01/tmpg_ssl3dq/162k0u29fl7.sdf

>  <i_m_source_file_index>  (446) 
48

>  <i_lp_mmshare_version>  (446) 
48012

>  <i_f3d_flags>  (446) 
3

>  <s_epik_input>  (446) 
Tz1DMVtDQF0yKFtPSF0pW0NIMl1bQ0BIXShbQ0gzXSlbQ0gyXVtDSF0oW0NIXTNbQ0BASF00W0NAXShPW0NIM10pKFtDSDJdW0NIMl01KUM0KFtDSDNdKVtDSDNdKVtDQEhdKFtDSDNdKUMoXEM9NlxbQ0BIXTMvW0NIXT1DMVxbQ0BAXTI1Nyk9W0NIXVxbQ0gyXU9DKD1PKVtDQEBIXTdbQ0BASF0oL1tDSF02KVtDSDNd

>  <s_epik_cmdline>  (446) 
J2VwaWtfcHl0aG9uJywgJy1waHQnLCAnMi4wJywgJy1waCcsICc3LjAnLCAnLXRuJywgJzgnLCAnLW1hJywgJzIwMCcsICctaW1hZScsICc8aW5maWxlLm1hZT4nLCAnLW9tYWUnLCAnPG91dGZpbGUubWFlPic=

>  <r_lp_tautomer_probability>  (446) 
1

>  <r_epik_Ionization_Penalty>  (446) 
2.1431e-06

>  <r_epik_Ionization_Penalty_Charging>  (446) 
0

>  <r_epik_Ionization_Penalty_Neutral>  (446) 
2.1431e-06

>  <r_epik_State_Penalty>  (446) 
-0

>  <r_epik_Charging_Adjusted_Penalty>  (446) 
0

>  <i_epik_Tot_Q>  (446) 
0

>  <i_epik_Tot_abs_Q>  (446) 
0

>  <s_epik_Chemistry_Notes>  (446) 
This compound has an ester and may undergo hydrolysis at high or low pH.

>  <s_lp_Force_Field>  (446) 
OPLS3e

>  <r_lp_Energy>  (446) 
365.505

>  <b_lp_Chiralities_Consistent>  (446) 
0

>  <s_lp_Variant>  (446) 
118:0-5

>  <s_i_glide_gridfile>  (446) 
pfpi4k_grid

>  <i_i_glide_lignum>  (446) 
48

>  <i_i_glide_rotatable_bonds>  (446) 
2

>  <r_i_docking_score>  (446) 
-1.21564

>  <r_i_glide_ligand_efficiency>  (446) 
-0.0337677

>  <r_i_glide_ligand_efficiency_sa>  (446) 
-0.111499

>  <r_i_glide_ligand_efficiency_ln>  (446) 
-0.265219

>  <r_i_glide_gscore>  (446) 
-1.21564

>  <r_i_glide_lipo>  (446) 
-0.0249917

>  <r_i_glide_hbond>  (446) 
0

>  <r_i_glide_metal>  (446) 
-0

>  <r_i_glide_rewards>  (446) 
-0.0749563

>  <r_i_glide_evdw>  (446) 
-17.3091

>  <r_i_glide_ecoul>  (446) 
-1.66822

>  <r_i_glide_erotb>  (446) 
0

>  <r_i_glide_esite>  (446) 
0

>  <r_i_glide_emodel>  (446) 
-19.6561

>  <r_i_glide_energy>  (446) 
-18.9774

>  <r_i_glide_einternal>  (446) 
0.874792

>  <r_i_glide_intrahb_reward>  (446) 
-0

>  <i_i_glide_confnum>  (446) 
2

>  <i_i_glide_posenum>  (446) 
14

>  <r_i_glide_eff_state_penalty>  (446) 
0

>  <ligand_id>  (446) 
118

>  <original_smiles>  (446) 
COC12CCC34C5=CC6C7=CC(C)C3C(=O)OCC=C7C(C)C(CC(C)CC4(O)C5=O)C6C1C2(C)C

>  <smiles>  (446) 
[H]OC12C(=O)C3=C([H])C4([H])C5=C([H])C([H])(C([H])([H])[H])C6([H])C(=O)OC([H])([H])C([H])=C5C([H])(C([H])([H])[H])C([H])(C([H])([H])C([H])(C([H])([H])[H])C1([H])[H])C4([H])C1([H])C(OC([H])([H])[H])(C([H])([H])C([H])([H])C362)C1(C([H])([H])[H])C([H])([H])[H]

$$$$
118:4:1
     RDKit          3D

 76 82  0  0  1  0  0  0  0  0999 V2000
    3.4891    2.5352   11.3847 C   0  0  0  0  0  0  0  0  0  0  0  0
    3.5910    2.0846   10.0312 O   0  0  0  0  0  0  0  0  0  0  0  0
    2.4569    1.4262    9.4242 C   0  0  1  0  0  0  0  0  0  0  0  0
    1.1257    2.3076    9.5438 C   0  0  0  0  0  0  0  0  0  0  0  0
    0.6169    3.4711    8.5290 C   0  0  0  0  0  0  0  0  0  0  0  0
    0.7650    3.4500    6.9544 C   0  0  1  0  0  0  0  0  0  0  0  0
    1.4034    2.2501    6.5571 C   0  0  0  0  0  0  0  0  0  0  0  0
    0.9518    1.0959    7.0453 C   0  0  0  0  0  0  0  0  0  0  0  0
    1.1525   -0.1980    6.6024 C   0  0  1  0  0  0  0  0  0  0  0  0
    0.5380    0.0443    5.2143 C   0  0  0  0  0  0  0  0  0  0  0  0
   -0.7474    0.5454    5.0963 C   0  0  0  0  0  0  0  0  0  0  0  0
   -1.4020    1.7757    5.9014 C   0  0  1  0  0  0  0  0  0  0  0  0
   -2.2130    1.3745    7.1554 C   0  0  0  0  0  0  0  0  0  0  0  0
   -0.5931    3.2257    5.9751 C   0  0  2  0  0  0  0  0  0  0  0  0
   -0.4163    3.6730    4.4600 C   0  0  0  0  0  0  0  0  0  0  0  0
   -0.1193    4.8280    4.1622 O   0  0  0  0  0  0  0  0  0  0  0  0
   -0.6337    2.6627    3.5529 O   0  0  0  0  0  0  0  0  0  0  0  0
    0.3035    2.1264    2.5939 C   0  0  0  0  0  0  0  0  0  0  0  0
    1.3001    0.9852    3.0062 C   0  0  0  0  0  0  0  0  0  0  0  0
    1.4892    0.1727    4.1094 C   0  0  0  0  0  0  0  0  0  0  0  0
    2.9169   -0.3945    4.4308 C   0  0  1  0  0  0  0  0  0  0  0  0
    3.9481   -0.3126    3.2850 C   0  0  0  0  0  0  0  0  0  0  0  0
    3.5686    0.0343    5.8465 C   0  0  1  0  0  0  0  0  0  0  0  0
    4.5790    1.2938    5.9451 C   0  0  0  0  0  0  0  0  0  0  0  0
    4.6346    2.5137    7.0154 C   0  0  1  0  0  0  0  0  0  0  0  0
    6.0272    3.1647    6.8466 C   0  0  0  0  0  0  0  0  0  0  0  0
    3.6052    3.7539    7.2708 C   0  0  0  0  0  0  0  0  0  0  0  0
    2.2414    4.0178    6.5230 C   0  0  2  0  0  0  0  0  0  0  0  0
    2.2757    5.2863    5.9021 O   0  0  0  0  0  0  0  0  0  0  0  0
    2.2441    2.9232    5.5744 C   0  0  0  0  0  0  0  0  0  0  0  0
    2.7004    2.7697    4.4335 O   0  0  0  0  0  0  0  0  0  0  0  0
    2.6301   -0.3342    7.0384 C   0  0  1  0  0  0  0  0  0  0  0  0
    3.0225    0.2578    8.4762 C   0  0  2  0  0  0  0  0  0  0  0  0
    2.4213   -0.0747    9.8353 C   0  0  0  0  0  0  0  0  0  0  0  0
    3.3614   -0.6399   10.8858 C   0  0  0  0  0  0  0  0  0  0  0  0
    1.1061   -0.8291    9.9517 C   0  0  0  0  0  0  0  0  0  0  0  0
    4.4916    2.7387   11.7643 H   0  0  0  0  0  0  0  0  0  0  0  0
    3.0324    1.8030   12.0512 H   0  0  0  0  0  0  0  0  0  0  0  0
    2.9371    3.4707   11.4673 H   0  0  0  0  0  0  0  0  0  0  0  0
    0.2796    1.6349    9.6963 H   0  0  0  0  0  0  0  0  0  0  0  0
    1.1364    2.7869   10.5123 H   0  0  0  0  0  0  0  0  0  0  0  0
   -0.4347    3.6657    8.7640 H   0  0  0  0  0  0  0  0  0  0  0  0
    1.1247    4.3830    8.8638 H   0  0  0  0  0  0  0  0  0  0  0  0
    0.1773    1.1108    7.7675 H   0  0  0  0  0  0  0  0  0  0  0  0
    0.5157   -0.9035    7.1367 H   0  0  0  0  0  0  0  0  0  0  0  0
   -1.1429    0.5278    4.0909 H   0  0  0  0  0  0  0  0  0  0  0  0
   -2.2402    2.0147    5.2469 H   0  0  0  0  0  0  0  0  0  0  0  0
   -3.2009    1.0095    6.8850 H   0  0  0  0  0  0  0  0  0  0  0  0
   -2.3617    2.2268    7.8187 H   0  0  0  0  0  0  0  0  0  0  0  0
   -1.7431    0.5885    7.7273 H   0  0  0  0  0  0  0  0  0  0  0  0
   -1.3355    3.9371    6.3526 H   0  0  0  0  0  0  0  0  0  0  0  0
   -0.2637    1.7800    1.7294 H   0  0  0  0  0  0  0  0  0  0  0  0
    0.9269    2.9450    2.2350 H   0  0  0  0  0  0  0  0  0  0  0  0
    2.1108    1.0239    2.2991 H   0  0  0  0  0  0  0  0  0  0  0  0
    2.7152   -1.4620    4.5293 H   0  0  0  0  0  0  0  0  0  0  0  0
    3.5801   -0.8178    2.3887 H   0  0  0  0  0  0  0  0  0  0  0  0
    4.8830   -0.7993    3.5680 H   0  0  0  0  0  0  0  0  0  0  0  0
    4.1863    0.7173    3.0150 H   0  0  0  0  0  0  0  0  0  0  0  0
    4.3033   -0.7667    5.9494 H   0  0  0  0  0  0  0  0  0  0  0  0
    5.5403    0.7968    6.0977 H   0  0  0  0  0  0  0  0  0  0  0  0
    4.7395    1.7073    4.9534 H   0  0  0  0  0  0  0  0  0  0  0  0
    4.7623    2.0448    7.9803 H   0  0  0  0  0  0  0  0  0  0  0  0
    6.0898    3.7141    5.9068 H   0  0  0  0  0  0  0  0  0  0  0  0
    6.8338    2.4278    6.8612 H   0  0  0  0  0  0  0  0  0  0  0  0
    6.2396    3.8654    7.6551 H   0  0  0  0  0  0  0  0  0  0  0  0
    3.3753    3.7445    8.3361 H   0  0  0  0  0  0  0  0  0  0  0  0
    4.1840    4.6740    7.2045 H   0  0  0  0  0  0  0  0  0  0  0  0
    2.8468    5.2082    5.1615 H   0  0  0  0  0  0  0  0  0  0  0  0
    2.7525   -1.4126    7.1567 H   0  0  0  0  0  0  0  0  0  0  0  0
    4.0995    0.1306    8.5444 H   0  0  0  0  0  0  0  0  0  0  0  0
    3.5149   -1.7063   10.7293 H   0  0  0  0  0  0  0  0  0  0  0  0
    2.9582   -0.4966   11.8882 H   0  0  0  0  0  0  0  0  0  0  0  0
    4.3415   -0.1601   10.8433 H   0  0  0  0  0  0  0  0  0  0  0  0
    1.2652   -1.8932    9.7745 H   0  0  0  0  0  0  0  0  0  0  0  0
    0.3634   -0.4773    9.2389 H   0  0  0  0  0  0  0  0  0  0  0  0
    0.6845   -0.6966   10.9500 H   0  0  0  0  0  0  0  0  0  0  0  0
  1  2  1  0
  1 37  1  0
  1 38  1  0
  1 39  1  0
  3  2  1  1
  3 33  1  0
  3 34  1  0
  3  4  1  0
  4  5  1  0
  4 40  1  0
  4 41  1  0
  6  5  1  1
  5 42  1  0
  5 43  1  0
  6 14  1  0
  6 28  1  0
  6  7  1  0
  7 30  1  0
  7  8  2  3
  8  9  1  0
  8 44  1  0
  9 32  1  0
  9 10  1  0
  9 45  1  1
 10 20  1  0
 10 11  2  3
 11 12  1  0
 11 46  1  0
 12 13  1  0
 12 14  1  0
 12 47  1  6
 13 48  1  0
 13 49  1  0
 13 50  1  0
 14 15  1  0
 14 51  1  1
 15 16  2  0
 15 17  1  0
 17 18  1  0
 18 19  1  0
 18 52  1  0
 18 53  1  0
 19 20  2  3
 19 54  1  0
 20 21  1  0
 21 22  1  0
 21 23  1  0
 21 55  1  1
 22 56  1  0
 22 57  1  0
 22 58  1  0
 23 24  1  0
 23 32  1  0
 23 59  1  1
 24 25  1  0
 24 60  1  0
 24 61  1  0
 25 26  1  0
 25 27  1  0
 25 62  1  1
 26 63  1  0
 26 64  1  0
 26 65  1  0
 27 28  1  0
 27 66  1  0
 27 67  1  0
 28 29  1  6
 28 30  1  0
 29 68  1  0
 30 31  2  0
 32 33  1  0
 32 69  1  1
 33 34  1  0
 33 70  1  1
 34 35  1  0
 34 36  1  0
 35 71  1  0
 35 72  1  0
 35 73  1  0
 36 74  1  0
 36 75  1  0
 36 76  1  0
M  END
>  <i_m_ct_stereo_status>  (447) 
1

>  <s_m_source_file>  (447) 
/var/tmp/pbs.5076255.sched01/tmpg_ssl3dq/162k0u29fl7.sdf

>  <i_m_source_file_index>  (447) 
48

>  <i_lp_mmshare_version>  (447) 
48012

>  <i_f3d_flags>  (447) 
3

>  <s_epik_input>  (447) 
Tz1DMVtDQF0yKFtPSF0pW0NIMl1bQ0BIXShbQ0gzXSlbQ0gyXVtDSF0oW0NIXTNbQ0BASF00W0NAXShPW0NIM10pKFtDSDJdW0NIMl01KUM0KFtDSDNdKVtDSDNdKVtDQEhdKFtDSDNdKUMoXEM9NlxbQ0BIXTMvW0NIXT1DMVxbQ0BAXTI1Nyk9W0NIXVxbQ0gyXU9DKD1PKVtDQEBIXTdbQ0BASF0oL1tDSF02KVtDSDNd

>  <s_epik_cmdline>  (447) 
J2VwaWtfcHl0aG9uJywgJy1waHQnLCAnMi4wJywgJy1waCcsICc3LjAnLCAnLXRuJywgJzgnLCAnLW1hJywgJzIwMCcsICctaW1hZScsICc8aW5maWxlLm1hZT4nLCAnLW9tYWUnLCAnPG91dGZpbGUubWFlPic=

>  <r_lp_tautomer_probability>  (447) 
1

>  <r_epik_Ionization_Penalty>  (447) 
2.1431e-06

>  <r_epik_Ionization_Penalty_Charging>  (447) 
0

>  <r_epik_Ionization_Penalty_Neutral>  (447) 
2.1431e-06

>  <r_epik_State_Penalty>  (447) 
-0

>  <r_epik_Charging_Adjusted_Penalty>  (447) 
0

>  <i_epik_Tot_Q>  (447) 
0

>  <i_epik_Tot_abs_Q>  (447) 
0

>  <s_epik_Chemistry_Notes>  (447) 
This compound has an ester and may undergo hydrolysis at high or low pH.

>  <s_lp_Force_Field>  (447) 
OPLS3e

>  <r_lp_Energy>  (447) 
365.505

>  <b_lp_Chiralities_Consistent>  (447) 
0

>  <s_lp_Variant>  (447) 
118:0-5

>  <s_i_glide_gridfile>  (447) 
pfpi4k_grid

>  <i_i_glide_lignum>  (447) 
48

>  <i_i_glide_rotatable_bonds>  (447) 
2

>  <r_i_docking_score>  (447) 
-1.00987

>  <r_i_glide_ligand_efficiency>  (447) 
-0.0280518

>  <r_i_glide_ligand_efficiency_sa>  (447) 
-0.0926251

>  <r_i_glide_ligand_efficiency_ln>  (447) 
-0.220325

>  <r_i_glide_gscore>  (447) 
-1.00987

>  <r_i_glide_lipo>  (447) 
-0.0499993

>  <r_i_glide_hbond>  (447) 
0

>  <r_i_glide_metal>  (447) 
-0

>  <r_i_glide_rewards>  (447) 
-0.0501389

>  <r_i_glide_evdw>  (447) 
-17.9807

>  <r_i_glide_ecoul>  (447) 
0.173592

>  <r_i_glide_erotb>  (447) 
0

>  <r_i_glide_esite>  (447) 
-0.0367298

>  <r_i_glide_emodel>  (447) 
-16.6364

>  <r_i_glide_energy>  (447) 
-17.8071

>  <r_i_glide_einternal>  (447) 
4.06951

>  <r_i_glide_intrahb_reward>  (447) 
-0

>  <i_i_glide_confnum>  (447) 
1

>  <i_i_glide_posenum>  (447) 
4

>  <r_i_glide_eff_state_penalty>  (447) 
0

>  <ligand_id>  (447) 
118

>  <original_smiles>  (447) 
COC12CCC34C5=CC6C7=CC(C)C3C(=O)OCC=C7C(C)C(CC(C)CC4(O)C5=O)C6C1C2(C)C

>  <smiles>  (447) 
[H]OC12C(=O)C3=C([H])C4([H])C5=C([H])C([H])(C([H])([H])[H])C6([H])C(=O)OC([H])([H])C([H])=C5C([H])(C([H])([H])[H])C([H])(C([H])([H])C([H])(C([H])([H])[H])C1([H])[H])C4([H])C1([H])C(OC([H])([H])[H])(C([H])([H])C([H])([H])C362)C1(C([H])([H])[H])C([H])([H])[H]

$$$$
118:5:0
     RDKit          3D

 76 82  0  0  1  0  0  0  0  0999 V2000
   -0.3681    5.3234    3.2934 C   0  0  0  0  0  0  0  0  0  0  0  0
   -0.2431    4.4192    4.3999 O   0  0  0  0  0  0  0  0  0  0  0  0
    0.1199    3.0539    4.1387 C   0  0  1  0  0  0  0  0  0  0  0  0
    1.4418    2.9476    3.2432 C   0  0  0  0  0  0  0  0  0  0  0  0
    2.9672    2.9398    3.7588 C   0  0  0  0  0  0  0  0  0  0  0  0
    3.5181    2.2241    5.0633 C   0  0  1  0  0  0  0  0  0  0  0  0
    2.4368    1.5827    5.7071 C   0  0  0  0  0  0  0  0  0  0  0  0
    1.6286    0.8107    5.0145 C   0  0  0  0  0  0  0  0  0  0  0  0
    0.7186   -0.1532    5.4267 C   0  0  1  0  0  0  0  0  0  0  0  0
    1.7813   -1.0209    6.1241 C   0  0  0  0  0  0  0  0  0  0  0  0
    2.8876   -1.4673    5.4282 C   0  0  0  0  0  0  0  0  0  0  0  0
    3.8341   -0.6306    4.4370 C   0  0  1  0  0  0  0  0  0  0  0  0
    3.4728   -0.7506    2.9397 C   0  0  0  0  0  0  0  0  0  0  0  0
    4.4643    0.8235    4.9452 C   0  0  2  0  0  0  0  0  0  0  0  0
    5.2990    0.4714    6.2472 C   0  0  0  0  0  0  0  0  0  0  0  0
    6.1105    1.2574    6.7350 O   0  0  0  0  0  0  0  0  0  0  0  0
    5.0200   -0.7665    6.7777 O   0  0  0  0  0  0  0  0  0  0  0  0
    4.5018   -1.0586    8.0902 C   0  0  0  0  0  0  0  0  0  0  0  0
    2.9533   -1.0593    8.3529 C   0  0  0  0  0  0  0  0  0  0  0  0
    1.8086   -0.9495    7.5861 C   0  0  0  0  0  0  0  0  0  0  0  0
    0.4927   -0.3621    8.2096 C   0  0  1  0  0  0  0  0  0  0  0  0
    0.4525   -0.2928    9.7537 C   0  0  0  0  0  0  0  0  0  0  0  0
   -0.0964    0.9900    7.5408 C   0  0  1  0  0  0  0  0  0  0  0  0
    0.2673    2.4398    8.1546 C   0  0  0  0  0  0  0  0  0  0  0  0
    0.7280    3.8029    7.4098 C   0  0  1  0  0  0  0  0  0  0  0  0
    0.5383    4.9375    8.4437 C   0  0  0  0  0  0  0  0  0  0  0  0
    2.1074    4.1700    6.6136 C   0  0  0  0  0  0  0  0  0  0  0  0
    3.3278    3.2101    6.3431 C   0  0  2  0  0  0  0  0  0  0  0  0
    4.4998    3.7643    6.9007 O   0  0  0  0  0  0  0  0  0  0  0  0
    2.8714    2.0145    7.0588 C   0  0  0  0  0  0  0  0  0  0  0  0
    2.9466    1.5933    8.1833 O   0  0  0  0  0  0  0  0  0  0  0  0
   -0.3399    0.8013    6.0143 C   0  0  1  0  0  0  0  0  0  0  0  0
   -0.6750    2.1242    5.1673 C   0  0  2  0  0  0  0  0  0  0  0  0
   -1.1300    2.2331    3.7227 C   0  0  0  0  0  0  0  0  0  0  0  0
   -2.4745    2.9117    3.4777 C   0  0  0  0  0  0  0  0  0  0  0  0
   -1.0164    1.0604    2.7680 C   0  0  0  0  0  0  0  0  0  0  0  0
   -0.8586    6.2206    3.6367 H   0  0  0  0  0  0  0  0  0  0  0  0
   -0.9865    4.9281    2.4837 H   0  0  0  0  0  0  0  0  0  0  0  0
    0.5897    5.6578    2.8919 H   0  0  0  0  0  0  0  0  0  0  0  0
    1.3339    2.1099    2.5647 H   0  0  0  0  0  0  0  0  0  0  0  0
    1.4149    3.7448    2.5089 H   0  0  0  0  0  0  0  0  0  0  0  0
    3.4916    2.5418    2.9066 H   0  0  0  0  0  0  0  0  0  0  0  0
    3.2741    3.9851    3.8302 H   0  0  0  0  0  0  0  0  0  0  0  0
    1.7680    0.7307    3.9580 H   0  0  0  0  0  0  0  0  0  0  0  0
    0.3320   -0.7131    4.5763 H   0  0  0  0  0  0  0  0  0  0  0  0
    3.4795   -2.2030    5.9537 H   0  0  0  0  0  0  0  0  0  0  0  0
    4.7203   -1.2676    4.4213 H   0  0  0  0  0  0  0  0  0  0  0  0
    3.8617   -1.6800    2.5235 H   0  0  0  0  0  0  0  0  0  0  0  0
    3.9155    0.0635    2.3625 H   0  0  0  0  0  0  0  0  0  0  0  0
    2.4023   -0.7687    2.7431 H   0  0  0  0  0  0  0  0  0  0  0  0
    5.2370    1.0567    4.2161 H   0  0  0  0  0  0  0  0  0  0  0  0
    4.8788   -2.0393    8.3851 H   0  0  0  0  0  0  0  0  0  0  0  0
    4.9507   -0.3483    8.7814 H   0  0  0  0  0  0  0  0  0  0  0  0
    2.8213   -0.9240    9.4138 H   0  0  0  0  0  0  0  0  0  0  0  0
   -0.2188   -1.1429    7.9540 H   0  0  0  0  0  0  0  0  0  0  0  0
    0.6276   -1.2758   10.1968 H   0  0  0  0  0  0  0  0  0  0  0  0
   -0.5206    0.0529   10.1078 H   0  0  0  0  0  0  0  0  0  0  0  0
    1.2005    0.3899   10.1557 H   0  0  0  0  0  0  0  0  0  0  0  0
   -1.1253    0.9299    7.8931 H   0  0  0  0  0  0  0  0  0  0  0  0
   -0.6745    2.7274    8.6200 H   0  0  0  0  0  0  0  0  0  0  0  0
    0.8857    2.3164    9.0377 H   0  0  0  0  0  0  0  0  0  0  0  0
   -0.0680    4.0451    6.7200 H   0  0  0  0  0  0  0  0  0  0  0  0
    1.2824    4.8691    9.2388 H   0  0  0  0  0  0  0  0  0  0  0  0
   -0.4484    4.9125    8.9069 H   0  0  0  0  0  0  0  0  0  0  0  0
    0.6347    5.9225    7.9811 H   0  0  0  0  0  0  0  0  0  0  0  0
    1.8032    4.5600    5.6469 H   0  0  0  0  0  0  0  0  0  0  0  0
    2.5112    5.0737    7.0689 H   0  0  0  0  0  0  0  0  0  0  0  0
    4.7184    4.5119    6.3624 H   0  0  0  0  0  0  0  0  0  0  0  0
   -1.2581    0.2165    5.9478 H   0  0  0  0  0  0  0  0  0  0  0  0
   -1.3703    2.6794    5.7879 H   0  0  0  0  0  0  0  0  0  0  0  0
   -3.2909    2.2147    3.6606 H   0  0  0  0  0  0  0  0  0  0  0  0
   -2.5482    3.2686    2.4530 H   0  0  0  0  0  0  0  0  0  0  0  0
   -2.6161    3.7538    4.1477 H   0  0  0  0  0  0  0  0  0  0  0  0
   -1.7769    0.3293    2.9864 H   0  0  0  0  0  0  0  0  0  0  0  0
   -0.0688    0.5418    2.8584 H   0  0  0  0  0  0  0  0  0  0  0  0
   -1.1107    1.3916    1.7332 H   0  0  0  0  0  0  0  0  0  0  0  0
  1  2  1  0
  1 37  1  0
  1 38  1  0
  1 39  1  0
  3  2  1  1
  3 33  1  0
  3 34  1  0
  3  4  1  0
  4  5  1  0
  4 40  1  0
  4 41  1  0
  6  5  1  6
  5 42  1  0
  5 43  1  0
  6 14  1  0
  6 28  1  0
  6  7  1  0
  7 30  1  0
  7  8  2  3
  8  9  1  0
  8 44  1  0
  9 32  1  0
  9 10  1  0
  9 45  1  6
 10 20  1  0
 10 11  2  3
 11 12  1  0
 11 46  1  0
 12 13  1  0
 12 14  1  0
 12 47  1  6
 13 48  1  0
 13 49  1  0
 13 50  1  0
 14 15  1  0
 14 51  1  6
 15 16  2  0
 15 17  1  0
 17 18  1  0
 18 19  1  0
 18 52  1  0
 18 53  1  0
 19 20  2  3
 19 54  1  0
 20 21  1  0
 21 22  1  0
 21 23  1  0
 21 55  1  6
 22 56  1  0
 22 57  1  0
 22 58  1  0
 23 24  1  0
 23 32  1  0
 23 59  1  1
 24 25  1  0
 24 60  1  0
 24 61  1  0
 25 26  1  0
 25 27  1  0
 25 62  1  6
 26 63  1  0
 26 64  1  0
 26 65  1  0
 27 28  1  0
 27 66  1  0
 27 67  1  0
 28 29  1  1
 28 30  1  0
 29 68  1  0
 30 31  2  0
 32 33  1  0
 32 69  1  1
 33 34  1  0
 33 70  1  1
 34 35  1  0
 34 36  1  0
 35 71  1  0
 35 72  1  0
 35 73  1  0
 36 74  1  0
 36 75  1  0
 36 76  1  0
M  END
>  <i_m_ct_stereo_status>  (448) 
1

>  <s_m_source_file>  (448) 
/var/tmp/pbs.5076255.sched01/tmpg_ssl3dq/162k0u29fl7.sdf

>  <i_m_source_file_index>  (448) 
49

>  <i_lp_mmshare_version>  (448) 
48012

>  <i_f3d_flags>  (448) 
3

>  <s_epik_input>  (448) 
Tz1DMVtDQF0yKFtPSF0pW0NIMl1bQ0BIXShbQ0gzXSlbQ0gyXVtDSF0oW0NIXTNbQ0BASF00W0NAXShPW0NIM10pKFtDSDJdW0NIMl01KUM0KFtDSDNdKVtDSDNdKVtDQEhdKFtDSDNdKUMoXEM9NlxbQ0BIXTMvW0NIXT1DMVxbQ0BAXTI1Nyk9W0NIXVxbQ0gyXU9DKD1PKVtDQEBIXTdbQ0BASF0oL1tDSF02KVtDSDNd

>  <s_epik_cmdline>  (448) 
J2VwaWtfcHl0aG9uJywgJy1waHQnLCAnMi4wJywgJy1waCcsICc3LjAnLCAnLXRuJywgJzgnLCAnLW1hJywgJzIwMCcsICctaW1hZScsICc8aW5maWxlLm1hZT4nLCAnLW9tYWUnLCAnPG91dGZpbGUubWFlPic=

>  <r_lp_tautomer_probability>  (448) 
1

>  <r_epik_Ionization_Penalty>  (448) 
2.1431e-06

>  <r_epik_Ionization_Penalty_Charging>  (448) 
0

>  <r_epik_Ionization_Penalty_Neutral>  (448) 
2.1431e-06

>  <r_epik_State_Penalty>  (448) 
-0

>  <r_epik_Charging_Adjusted_Penalty>  (448) 
0

>  <i_epik_Tot_Q>  (448) 
0

>  <i_epik_Tot_abs_Q>  (448) 
0

>  <s_epik_Chemistry_Notes>  (448) 
This compound has an ester and may undergo hydrolysis at high or low pH.

>  <s_lp_Force_Field>  (448) 
OPLS3e

>  <r_lp_Energy>  (448) 
365.505

>  <b_lp_Chiralities_Consistent>  (448) 
0

>  <s_lp_Variant>  (448) 
118:0-6

>  <s_i_glide_gridfile>  (448) 
pfpi4k_grid

>  <i_i_glide_lignum>  (448) 
49

>  <i_i_glide_rotatable_bonds>  (448) 
2

>  <r_i_docking_score>  (448) 
-1.21564

>  <r_i_glide_ligand_efficiency>  (448) 
-0.0337677

>  <r_i_glide_ligand_efficiency_sa>  (448) 
-0.111499

>  <r_i_glide_ligand_efficiency_ln>  (448) 
-0.265219

>  <r_i_glide_gscore>  (448) 
-1.21564

>  <r_i_glide_lipo>  (448) 
-0.0249917

>  <r_i_glide_hbond>  (448) 
0

>  <r_i_glide_metal>  (448) 
-0

>  <r_i_glide_rewards>  (448) 
-0.0749563

>  <r_i_glide_evdw>  (448) 
-17.3091

>  <r_i_glide_ecoul>  (448) 
-1.66822

>  <r_i_glide_erotb>  (448) 
0

>  <r_i_glide_esite>  (448) 
0

>  <r_i_glide_emodel>  (448) 
-19.6561

>  <r_i_glide_energy>  (448) 
-18.9774

>  <r_i_glide_einternal>  (448) 
0.874792

>  <r_i_glide_intrahb_reward>  (448) 
-0

>  <i_i_glide_confnum>  (448) 
2

>  <i_i_glide_posenum>  (448) 
14

>  <r_i_glide_eff_state_penalty>  (448) 
0

>  <ligand_id>  (448) 
118

>  <original_smiles>  (448) 
COC12CCC34C5=CC6C7=CC(C)C3C(=O)OCC=C7C(C)C(CC(C)CC4(O)C5=O)C6C1C2(C)C

>  <smiles>  (448) 
[H]OC12C(=O)C3=C([H])C4([H])C5=C([H])C([H])(C([H])([H])[H])C6([H])C(=O)OC([H])([H])C([H])=C5C([H])(C([H])([H])[H])C([H])(C([H])([H])C([H])(C([H])([H])[H])C1([H])[H])C4([H])C1([H])C(OC([H])([H])[H])(C([H])([H])C([H])([H])C362)C1(C([H])([H])[H])C([H])([H])[H]

$$$$
118:5:1
     RDKit          3D

 76 82  0  0  1  0  0  0  0  0999 V2000
    3.4891    2.5352   11.3847 C   0  0  0  0  0  0  0  0  0  0  0  0
    3.5910    2.0846   10.0312 O   0  0  0  0  0  0  0  0  0  0  0  0
    2.4569    1.4262    9.4242 C   0  0  1  0  0  0  0  0  0  0  0  0
    1.1257    2.3076    9.5438 C   0  0  0  0  0  0  0  0  0  0  0  0
    0.6169    3.4711    8.5290 C   0  0  0  0  0  0  0  0  0  0  0  0
    0.7650    3.4500    6.9544 C   0  0  1  0  0  0  0  0  0  0  0  0
    1.4034    2.2501    6.5571 C   0  0  0  0  0  0  0  0  0  0  0  0
    0.9518    1.0959    7.0453 C   0  0  0  0  0  0  0  0  0  0  0  0
    1.1525   -0.1980    6.6024 C   0  0  1  0  0  0  0  0  0  0  0  0
    0.5380    0.0443    5.2143 C   0  0  0  0  0  0  0  0  0  0  0  0
   -0.7474    0.5454    5.0963 C   0  0  0  0  0  0  0  0  0  0  0  0
   -1.4020    1.7757    5.9014 C   0  0  1  0  0  0  0  0  0  0  0  0
   -2.2130    1.3745    7.1554 C   0  0  0  0  0  0  0  0  0  0  0  0
   -0.5931    3.2257    5.9751 C   0  0  2  0  0  0  0  0  0  0  0  0
   -0.4163    3.6730    4.4600 C   0  0  0  0  0  0  0  0  0  0  0  0
   -0.1193    4.8280    4.1622 O   0  0  0  0  0  0  0  0  0  0  0  0
   -0.6337    2.6627    3.5529 O   0  0  0  0  0  0  0  0  0  0  0  0
    0.3035    2.1264    2.5939 C   0  0  0  0  0  0  0  0  0  0  0  0
    1.3001    0.9852    3.0062 C   0  0  0  0  0  0  0  0  0  0  0  0
    1.4892    0.1727    4.1094 C   0  0  0  0  0  0  0  0  0  0  0  0
    2.9169   -0.3945    4.4308 C   0  0  1  0  0  0  0  0  0  0  0  0
    3.9481   -0.3126    3.2850 C   0  0  0  0  0  0  0  0  0  0  0  0
    3.5686    0.0343    5.8465 C   0  0  1  0  0  0  0  0  0  0  0  0
    4.5790    1.2938    5.9451 C   0  0  0  0  0  0  0  0  0  0  0  0
    4.6346    2.5137    7.0154 C   0  0  1  0  0  0  0  0  0  0  0  0
    6.0272    3.1647    6.8466 C   0  0  0  0  0  0  0  0  0  0  0  0
    3.6052    3.7539    7.2708 C   0  0  0  0  0  0  0  0  0  0  0  0
    2.2414    4.0178    6.5230 C   0  0  2  0  0  0  0  0  0  0  0  0
    2.2757    5.2863    5.9021 O   0  0  0  0  0  0  0  0  0  0  0  0
    2.2441    2.9232    5.5744 C   0  0  0  0  0  0  0  0  0  0  0  0
    2.7004    2.7697    4.4335 O   0  0  0  0  0  0  0  0  0  0  0  0
    2.6301   -0.3342    7.0384 C   0  0  1  0  0  0  0  0  0  0  0  0
    3.0225    0.2578    8.4762 C   0  0  2  0  0  0  0  0  0  0  0  0
    2.4213   -0.0747    9.8353 C   0  0  0  0  0  0  0  0  0  0  0  0
    3.3614   -0.6399   10.8858 C   0  0  0  0  0  0  0  0  0  0  0  0
    1.1061   -0.8291    9.9517 C   0  0  0  0  0  0  0  0  0  0  0  0
    4.4916    2.7387   11.7643 H   0  0  0  0  0  0  0  0  0  0  0  0
    3.0324    1.8030   12.0512 H   0  0  0  0  0  0  0  0  0  0  0  0
    2.9371    3.4707   11.4673 H   0  0  0  0  0  0  0  0  0  0  0  0
    0.2796    1.6349    9.6963 H   0  0  0  0  0  0  0  0  0  0  0  0
    1.1364    2.7869   10.5123 H   0  0  0  0  0  0  0  0  0  0  0  0
   -0.4347    3.6657    8.7640 H   0  0  0  0  0  0  0  0  0  0  0  0
    1.1247    4.3830    8.8638 H   0  0  0  0  0  0  0  0  0  0  0  0
    0.1773    1.1108    7.7675 H   0  0  0  0  0  0  0  0  0  0  0  0
    0.5157   -0.9035    7.1367 H   0  0  0  0  0  0  0  0  0  0  0  0
   -1.1429    0.5278    4.0909 H   0  0  0  0  0  0  0  0  0  0  0  0
   -2.2402    2.0147    5.2469 H   0  0  0  0  0  0  0  0  0  0  0  0
   -3.2009    1.0095    6.8850 H   0  0  0  0  0  0  0  0  0  0  0  0
   -2.3617    2.2268    7.8187 H   0  0  0  0  0  0  0  0  0  0  0  0
   -1.7431    0.5885    7.7273 H   0  0  0  0  0  0  0  0  0  0  0  0
   -1.3355    3.9371    6.3526 H   0  0  0  0  0  0  0  0  0  0  0  0
   -0.2637    1.7800    1.7294 H   0  0  0  0  0  0  0  0  0  0  0  0
    0.9269    2.9450    2.2350 H   0  0  0  0  0  0  0  0  0  0  0  0
    2.1108    1.0239    2.2991 H   0  0  0  0  0  0  0  0  0  0  0  0
    2.7152   -1.4620    4.5293 H   0  0  0  0  0  0  0  0  0  0  0  0
    3.5801   -0.8178    2.3887 H   0  0  0  0  0  0  0  0  0  0  0  0
    4.8830   -0.7993    3.5680 H   0  0  0  0  0  0  0  0  0  0  0  0
    4.1863    0.7173    3.0150 H   0  0  0  0  0  0  0  0  0  0  0  0
    4.3033   -0.7667    5.9494 H   0  0  0  0  0  0  0  0  0  0  0  0
    5.5403    0.7968    6.0977 H   0  0  0  0  0  0  0  0  0  0  0  0
    4.7395    1.7073    4.9534 H   0  0  0  0  0  0  0  0  0  0  0  0
    4.7623    2.0448    7.9803 H   0  0  0  0  0  0  0  0  0  0  0  0
    6.0898    3.7141    5.9068 H   0  0  0  0  0  0  0  0  0  0  0  0
    6.8338    2.4278    6.8612 H   0  0  0  0  0  0  0  0  0  0  0  0
    6.2396    3.8654    7.6551 H   0  0  0  0  0  0  0  0  0  0  0  0
    3.3753    3.7445    8.3361 H   0  0  0  0  0  0  0  0  0  0  0  0
    4.1840    4.6740    7.2045 H   0  0  0  0  0  0  0  0  0  0  0  0
    2.8468    5.2082    5.1615 H   0  0  0  0  0  0  0  0  0  0  0  0
    2.7525   -1.4126    7.1567 H   0  0  0  0  0  0  0  0  0  0  0  0
    4.0995    0.1306    8.5444 H   0  0  0  0  0  0  0  0  0  0  0  0
    3.5149   -1.7063   10.7293 H   0  0  0  0  0  0  0  0  0  0  0  0
    2.9582   -0.4966   11.8882 H   0  0  0  0  0  0  0  0  0  0  0  0
    4.3415   -0.1601   10.8433 H   0  0  0  0  0  0  0  0  0  0  0  0
    1.2652   -1.8932    9.7745 H   0  0  0  0  0  0  0  0  0  0  0  0
    0.3634   -0.4773    9.2389 H   0  0  0  0  0  0  0  0  0  0  0  0
    0.6845   -0.6966   10.9500 H   0  0  0  0  0  0  0  0  0  0  0  0
  1  2  1  0
  1 37  1  0
  1 38  1  0
  1 39  1  0
  3  2  1  1
  3 33  1  0
  3 34  1  0
  3  4  1  0
  4  5  1  0
  4 40  1  0
  4 41  1  0
  6  5  1  1
  5 42  1  0
  5 43  1  0
  6 14  1  0
  6 28  1  0
  6  7  1  0
  7 30  1  0
  7  8  2  3
  8  9  1  0
  8 44  1  0
  9 32  1  0
  9 10  1  0
  9 45  1  1
 10 20  1  0
 10 11  2  3
 11 12  1  0
 11 46  1  0
 12 13  1  0
 12 14  1  0
 12 47  1  6
 13 48  1  0
 13 49  1  0
 13 50  1  0
 14 15  1  0
 14 51  1  1
 15 16  2  0
 15 17  1  0
 17 18  1  0
 18 19  1  0
 18 52  1  0
 18 53  1  0
 19 20  2  3
 19 54  1  0
 20 21  1  0
 21 22  1  0
 21 23  1  0
 21 55  1  1
 22 56  1  0
 22 57  1  0
 22 58  1  0
 23 24  1  0
 23 32  1  0
 23 59  1  1
 24 25  1  0
 24 60  1  0
 24 61  1  0
 25 26  1  0
 25 27  1  0
 25 62  1  1
 26 63  1  0
 26 64  1  0
 26 65  1  0
 27 28  1  0
 27 66  1  0
 27 67  1  0
 28 29  1  6
 28 30  1  0
 29 68  1  0
 30 31  2  0
 32 33  1  0
 32 69  1  1
 33 34  1  0
 33 70  1  1
 34 35  1  0
 34 36  1  0
 35 71  1  0
 35 72  1  0
 35 73  1  0
 36 74  1  0
 36 75  1  0
 36 76  1  0
M  END
>  <i_m_ct_stereo_status>  (449) 
1

>  <s_m_source_file>  (449) 
/var/tmp/pbs.5076255.sched01/tmpg_ssl3dq/162k0u29fl7.sdf

>  <i_m_source_file_index>  (449) 
49

>  <i_lp_mmshare_version>  (449) 
48012

>  <i_f3d_flags>  (449) 
3

>  <s_epik_input>  (449) 
Tz1DMVtDQF0yKFtPSF0pW0NIMl1bQ0BIXShbQ0gzXSlbQ0gyXVtDSF0oW0NIXTNbQ0BASF00W0NAXShPW0NIM10pKFtDSDJdW0NIMl01KUM0KFtDSDNdKVtDSDNdKVtDQEhdKFtDSDNdKUMoXEM9NlxbQ0BIXTMvW0NIXT1DMVxbQ0BAXTI1Nyk9W0NIXVxbQ0gyXU9DKD1PKVtDQEBIXTdbQ0BASF0oL1tDSF02KVtDSDNd

>  <s_epik_cmdline>  (449) 
J2VwaWtfcHl0aG9uJywgJy1waHQnLCAnMi4wJywgJy1waCcsICc3LjAnLCAnLXRuJywgJzgnLCAnLW1hJywgJzIwMCcsICctaW1hZScsICc8aW5maWxlLm1hZT4nLCAnLW9tYWUnLCAnPG91dGZpbGUubWFlPic=

>  <r_lp_tautomer_probability>  (449) 
1

>  <r_epik_Ionization_Penalty>  (449) 
2.1431e-06

>  <r_epik_Ionization_Penalty_Charging>  (449) 
0

>  <r_epik_Ionization_Penalty_Neutral>  (449) 
2.1431e-06

>  <r_epik_State_Penalty>  (449) 
-0

>  <r_epik_Charging_Adjusted_Penalty>  (449) 
0

>  <i_epik_Tot_Q>  (449) 
0

>  <i_epik_Tot_abs_Q>  (449) 
0

>  <s_epik_Chemistry_Notes>  (449) 
This compound has an ester and may undergo hydrolysis at high or low pH.

>  <s_lp_Force_Field>  (449) 
OPLS3e

>  <r_lp_Energy>  (449) 
365.505

>  <b_lp_Chiralities_Consistent>  (449) 
0

>  <s_lp_Variant>  (449) 
118:0-6

>  <s_i_glide_gridfile>  (449) 
pfpi4k_grid

>  <i_i_glide_lignum>  (449) 
49

>  <i_i_glide_rotatable_bonds>  (449) 
2

>  <r_i_docking_score>  (449) 
-1.00987

>  <r_i_glide_ligand_efficiency>  (449) 
-0.0280518

>  <r_i_glide_ligand_efficiency_sa>  (449) 
-0.0926251

>  <r_i_glide_ligand_efficiency_ln>  (449) 
-0.220325

>  <r_i_glide_gscore>  (449) 
-1.00987

>  <r_i_glide_lipo>  (449) 
-0.0499993

>  <r_i_glide_hbond>  (449) 
0

>  <r_i_glide_metal>  (449) 
-0

>  <r_i_glide_rewards>  (449) 
-0.0501389

>  <r_i_glide_evdw>  (449) 
-17.9807

>  <r_i_glide_ecoul>  (449) 
0.173592

>  <r_i_glide_erotb>  (449) 
0

>  <r_i_glide_esite>  (449) 
-0.0367298

>  <r_i_glide_emodel>  (449) 
-16.6364

>  <r_i_glide_energy>  (449) 
-17.8071

>  <r_i_glide_einternal>  (449) 
4.06951

>  <r_i_glide_intrahb_reward>  (449) 
-0

>  <i_i_glide_confnum>  (449) 
1

>  <i_i_glide_posenum>  (449) 
4

>  <r_i_glide_eff_state_penalty>  (449) 
0

>  <ligand_id>  (449) 
118

>  <original_smiles>  (449) 
COC12CCC34C5=CC6C7=CC(C)C3C(=O)OCC=C7C(C)C(CC(C)CC4(O)C5=O)C6C1C2(C)C

>  <smiles>  (449) 
[H]OC12C(=O)C3=C([H])C4([H])C5=C([H])C([H])(C([H])([H])[H])C6([H])C(=O)OC([H])([H])C([H])=C5C([H])(C([H])([H])[H])C([H])(C([H])([H])C([H])(C([H])([H])[H])C1([H])[H])C4([H])C1([H])C(OC([H])([H])[H])(C([H])([H])C([H])([H])C362)C1(C([H])([H])[H])C([H])([H])[H]

$$$$
118:6:0
     RDKit          3D

 76 82  0  0  1  0  0  0  0  0999 V2000
   -0.9925    3.0721    4.8176 C   0  0  0  0  0  0  0  0  0  0  0  0
   -0.5889    3.0607    6.1767 O   0  0  0  0  0  0  0  0  0  0  0  0
    0.4682    2.1580    6.4961 C   0  0  2  0  0  0  0  0  0  0  0  0
    1.8896    2.7689    5.9651 C   0  0  0  0  0  0  0  0  0  0  0  0
    2.7920    2.4029    4.5688 C   0  0  0  0  0  0  0  0  0  0  0  0
    3.5702    0.9944    4.1688 C   0  0  0  0  0  0  0  0  0  0  0  0
    3.2213    0.5926    5.5105 C   0  0  0  0  0  0  0  0  0  0  0  0
    2.2239    0.0016    6.0000 C   0  0  0  0  0  0  0  0  0  0  0  0
    0.9747   -0.2202    5.2655 C   0  0  1  0  0  0  0  0  0  0  0  0
    1.0198   -1.0781    4.0464 C   0  0  0  0  0  0  0  0  0  0  0  0
    0.6532   -0.5211    2.8831 C   0  0  0  0  0  0  0  0  0  0  0  0
    1.6373    0.3936    2.1859 C   0  0  1  0  0  0  0  0  0  0  0  0
    1.0576    1.7357    1.7177 C   0  0  0  0  0  0  0  0  0  0  0  0
    3.0879    0.3915    2.7556 C   0  0  2  0  0  0  0  0  0  0  0  0
    4.0153   -0.6634    2.0579 C   0  0  0  0  0  0  0  0  0  0  0  0
    5.1015   -0.2742    1.6416 O   0  0  0  0  0  0  0  0  0  0  0  0
    3.7434   -2.0130    2.0640 O   0  0  0  0  0  0  0  0  0  0  0  0
    2.4718   -2.6483    1.9611 C   0  0  0  0  0  0  0  0  0  0  0  0
    1.9009   -3.1909    3.2703 C   0  0  0  0  0  0  0  0  0  0  0  0
    1.2091   -2.4935    4.1939 C   0  0  0  0  0  0  0  0  0  0  0  0
    0.5735   -3.0797    5.4554 C   0  0  1  0  0  0  0  0  0  0  0  0
    0.8220   -4.5857    5.6653 C   0  0  0  0  0  0  0  0  0  0  0  0
    0.8553   -2.1688    6.6910 C   0  0  1  0  0  0  0  0  0  0  0  0
    2.4009   -2.4448    7.1979 C   0  0  0  0  0  0  0  0  0  0  0  0
    3.9168   -2.3183    6.5026 C   0  0  1  0  0  0  0  0  0  0  0  0
    4.5311   -3.7402    6.5323 C   0  0  0  0  0  0  0  0  0  0  0  0
    4.4713   -1.6282    5.1186 C   0  0  0  0  0  0  0  0  0  0  0  0
    4.7524   -0.0423    4.8063 C   0  0  1  0  0  0  0  0  0  0  0  0
    6.0767    0.1505    4.3618 O   0  0  0  0  0  0  0  0  0  0  0  0
    4.4750    0.6288    6.0772 C   0  0  0  0  0  0  0  0  0  0  0  0
    4.9637    1.1104    7.1017 O   0  0  0  0  0  0  0  0  0  0  0  0
    0.1770   -0.6698    6.3853 C   0  0  2  0  0  0  0  0  0  0  0  0
   -0.2250    0.7572    6.9965 C   0  0  1  0  0  0  0  0  0  0  0  0
    0.3061    1.8052    7.9923 C   0  0  0  0  0  0  0  0  0  0  0  0
    1.4867    1.5857    8.9152 C   0  0  0  0  0  0  0  0  0  0  0  0
   -0.7447    2.4800    8.8614 C   0  0  0  0  0  0  0  0  0  0  0  0
   -1.8387    3.7417    4.6695 H   0  0  0  0  0  0  0  0  0  0  0  0
   -1.3008    2.0775    4.4864 H   0  0  0  0  0  0  0  0  0  0  0  0
   -0.1922    3.4395    4.1748 H   0  0  0  0  0  0  0  0  0  0  0  0
    1.6868    3.8315    5.8626 H   0  0  0  0  0  0  0  0  0  0  0  0
    2.5762    2.7704    6.8112 H   0  0  0  0  0  0  0  0  0  0  0  0
    2.2208    2.7543    3.7262 H   0  0  0  0  0  0  0  0  0  0  0  0
    3.5857    3.1526    4.6156 H   0  0  0  0  0  0  0  0  0  0  0  0
    2.3556   -0.1577    7.0545 H   0  0  0  0  0  0  0  0  0  0  0  0
    0.6244    0.6943    4.8233 H   0  0  0  0  0  0  0  0  0  0  0  0
   -0.1285    0.2166    3.0021 H   0  0  0  0  0  0  0  0  0  0  0  0
    1.7528   -0.0823    1.2196 H   0  0  0  0  0  0  0  0  0  0  0  0
    0.3181    1.5759    0.9317 H   0  0  0  0  0  0  0  0  0  0  0  0
    1.8212    2.3773    1.2856 H   0  0  0  0  0  0  0  0  0  0  0  0
    0.5611    2.2966    2.5002 H   0  0  0  0  0  0  0  0  0  0  0  0
    3.4318    1.2058    2.1241 H   0  0  0  0  0  0  0  0  0  0  0  0
    1.7480   -2.0955    1.3786 H   0  0  0  0  0  0  0  0  0  0  0  0
    2.6489   -3.5369    1.3563 H   0  0  0  0  0  0  0  0  0  0  0  0
    2.0805   -4.2390    3.4336 H   0  0  0  0  0  0  0  0  0  0  0  0
   -0.5042   -3.0038    5.2704 H   0  0  0  0  0  0  0  0  0  0  0  0
    0.3969   -5.1706    4.8511 H   0  0  0  0  0  0  0  0  0  0  0  0
    0.3542   -4.9479    6.5853 H   0  0  0  0  0  0  0  0  0  0  0  0
    1.8836   -4.8363    5.7220 H   0  0  0  0  0  0  0  0  0  0  0  0
    0.2518   -2.5979    7.4806 H   0  0  0  0  0  0  0  0  0  0  0  0
    2.4918   -1.9242    8.1528 H   0  0  0  0  0  0  0  0  0  0  0  0
    2.3461   -3.4719    7.5712 H   0  0  0  0  0  0  0  0  0  0  0  0
    4.4921   -1.8184    7.2884 H   0  0  0  0  0  0  0  0  0  0  0  0
    4.1133   -4.3904    5.7605 H   0  0  0  0  0  0  0  0  0  0  0  0
    4.3868   -4.2377    7.4921 H   0  0  0  0  0  0  0  0  0  0  0  0
    5.6099   -3.7185    6.3784 H   0  0  0  0  0  0  0  0  0  0  0  0
    5.3870   -2.1542    4.8571 H   0  0  0  0  0  0  0  0  0  0  0  0
    3.7823   -2.0101    4.3929 H   0  0  0  0  0  0  0  0  0  0  0  0
    6.1301   -0.2370    3.5011 H   0  0  0  0  0  0  0  0  0  0  0  0
    0.5326   -0.6882    7.4136 H   0  0  0  0  0  0  0  0  0  0  0  0
   -1.3030    0.8084    6.9785 H   0  0  0  0  0  0  0  0  0  0  0  0
    1.2706    0.7993    9.6433 H   0  0  0  0  0  0  0  0  0  0  0  0
    1.7092    2.5109    9.4600 H   0  0  0  0  0  0  0  0  0  0  0  0
    2.3903    1.3381    8.3843 H   0  0  0  0  0  0  0  0  0  0  0  0
   -0.9824    1.8620    9.7322 H   0  0  0  0  0  0  0  0  0  0  0  0
   -1.6750    2.6372    8.3199 H   0  0  0  0  0  0  0  0  0  0  0  0
   -0.3992    3.4534    9.2188 H   0  0  0  0  0  0  0  0  0  0  0  0
  1  2  1  0
  1 37  1  0
  1 38  1  0
  1 39  1  0
  3  2  1  1
  3 33  1  0
  3 34  1  0
  3  4  1  0
  4  5  1  0
  4 40  1  0
  4 41  1  0
  5  6  1  0
  5 42  1  0
  5 43  1  0
  6 14  1  0
  6 28  1  0
  6  7  1  0
  7 30  1  0
  7  8  2  3
  8  9  1  0
  8 44  1  0
  9 32  1  0
  9 10  1  0
  9 45  1  6
 10 20  1  0
 10 11  2  3
 11 12  1  0
 11 46  1  0
 12 13  1  0
 12 14  1  0
 12 47  1  6
 13 48  1  0
 13 49  1  0
 13 50  1  0
 14 15  1  0
 14 51  1  6
 15 16  2  0
 15 17  1  0
 17 18  1  0
 18 19  1  0
 18 52  1  0
 18 53  1  0
 19 20  2  3
 19 54  1  0
 20 21  1  0
 21 22  1  0
 21 23  1  0
 21 55  1  6
 22 56  1  0
 22 57  1  0
 22 58  1  0
 23 24  1  0
 23 32  1  0
 23 59  1  1
 24 25  1  0
 24 60  1  0
 24 61  1  0
 25 26  1  0
 25 27  1  0
 25 62  1  1
 26 63  1  0
 26 64  1  0
 26 65  1  0
 27 28  1  0
 27 66  1  0
 27 67  1  0
 28 29  1  6
 28 30  1  0
 29 68  1  0
 30 31  2  0
 32 33  1  0
 32 69  1  6
 33 34  1  0
 33 70  1  1
 34 35  1  0
 34 36  1  0
 35 71  1  0
 35 72  1  0
 35 73  1  0
 36 74  1  0
 36 75  1  0
 36 76  1  0
M  END
>  <i_m_ct_stereo_status>  (450) 
1

>  <s_m_source_file>  (450) 
/var/tmp/pbs.5076255.sched01/tmpg_ssl3dq/162k0u29fl7.sdf

>  <i_m_source_file_index>  (450) 
50

>  <i_lp_mmshare_version>  (450) 
48012

>  <i_f3d_flags>  (450) 
2

>  <s_epik_input>  (450) 
Tz1DMVtDQF0yKFtPSF0pW0NIMl1bQ0BIXShbQ0gzXSlbQ0gyXVtDSF0oW0NIXTNbQ0BASF00W0NAXShPW0NIM10pKFtDSDJdW0NIMl01KUM0KFtDSDNdKVtDSDNdKVtDQEhdKFtDSDNdKUMoXEM9NlxbQ0BIXTMvW0NIXT1DMVxbQ0BAXTI1Nyk9W0NIXVxbQ0gyXU9DKD1PKVtDQEBIXTdbQ0BASF0oL1tDSF02KVtDSDNd

>  <s_epik_cmdline>  (450) 
J2VwaWtfcHl0aG9uJywgJy1waHQnLCAnMi4wJywgJy1waCcsICc3LjAnLCAnLXRuJywgJzgnLCAnLW1hJywgJzIwMCcsICctaW1hZScsICc8aW5maWxlLm1hZT4nLCAnLW9tYWUnLCAnPG91dGZpbGUubWFlPic=

>  <r_lp_tautomer_probability>  (450) 
1

>  <r_epik_Ionization_Penalty>  (450) 
2.1431e-06

>  <r_epik_Ionization_Penalty_Charging>  (450) 
0

>  <r_epik_Ionization_Penalty_Neutral>  (450) 
2.1431e-06

>  <r_epik_State_Penalty>  (450) 
-0

>  <r_epik_Charging_Adjusted_Penalty>  (450) 
0

>  <i_epik_Tot_Q>  (450) 
0

>  <i_epik_Tot_abs_Q>  (450) 
0

>  <s_epik_Chemistry_Notes>  (450) 
This compound has an ester and may undergo hydrolysis at high or low pH.

>  <s_lp_Force_Field>  (450) 
OPLS3e

>  <r_lp_Energy>  (450) 
466.925

>  <b_lp_Chiralities_Consistent>  (450) 
0

>  <s_lp_Variant>  (450) 
118:0-7

>  <s_i_glide_gridfile>  (450) 
pfpi4k_grid

>  <i_i_glide_lignum>  (450) 
50

>  <i_i_glide_rotatable_bonds>  (450) 
2

>  <r_i_docking_score>  (450) 
-2.24682

>  <r_i_glide_ligand_efficiency>  (450) 
-0.0624116

>  <r_i_glide_ligand_efficiency_sa>  (450) 
-0.206078

>  <r_i_glide_ligand_efficiency_ln>  (450) 
-0.490195

>  <r_i_glide_gscore>  (450) 
-2.24682

>  <r_i_glide_lipo>  (450) 
-0.123593

>  <r_i_glide_hbond>  (450) 
-0.112368

>  <r_i_glide_metal>  (450) 
-0

>  <r_i_glide_rewards>  (450) 
-0.612406

>  <r_i_glide_evdw>  (450) 
-21.4638

>  <r_i_glide_ecoul>  (450) 
-2.16839

>  <r_i_glide_erotb>  (450) 
0

>  <r_i_glide_esite>  (450) 
0

>  <r_i_glide_emodel>  (450) 
-31.1798

>  <r_i_glide_energy>  (450) 
-23.6322

>  <r_i_glide_einternal>  (450) 
0.00490401

>  <r_i_glide_intrahb_reward>  (450) 
-0.5

>  <i_i_glide_confnum>  (450) 
2

>  <i_i_glide_posenum>  (450) 
25

>  <r_i_glide_eff_state_penalty>  (450) 
0

>  <ligand_id>  (450) 
118

>  <original_smiles>  (450) 
COC12CCC34C5=CC6C7=CC(C)C3C(=O)OCC=C7C(C)C(CC(C)CC4(O)C5=O)C6C1C2(C)C

>  <smiles>  (450) 
[H]OC12C(=O)C3=C([H])C4([H])C5=C([H])C([H])(C([H])([H])[H])C6([H])C(=O)OC([H])([H])C([H])=C5C([H])(C([H])([H])[H])C([H])(C([H])([H])C([H])(C([H])([H])[H])C1([H])[H])C4([H])C1([H])C(OC([H])([H])[H])(C([H])([H])C([H])([H])C362)C1(C([H])([H])[H])C([H])([H])[H]

$$$$
118:6:1
     RDKit          3D

 76 82  0  0  1  0  0  0  0  0999 V2000
   -1.1223    3.6079    4.1866 C   0  0  0  0  0  0  0  0  0  0  0  0
   -1.3831    3.5941    5.5777 O   0  0  0  0  0  0  0  0  0  0  0  0
   -0.6043    2.6276    6.3175 C   0  0  2  0  0  0  0  0  0  0  0  0
    0.9042    3.1909    6.5321 C   0  0  0  0  0  0  0  0  0  0  0  0
    2.3616    2.8367    5.7031 C   0  0  0  0  0  0  0  0  0  0  0  0
    3.1882    1.4117    5.6389 C   0  0  1  0  0  0  0  0  0  0  0  0
    2.2751    0.9662    6.6497 C   0  0  0  0  0  0  0  0  0  0  0  0
    1.1418    0.4104    6.5791 C   0  0  0  0  0  0  0  0  0  0  0  0
    0.3818    0.2597    5.3343 C   0  0  1  0  0  0  0  0  0  0  0  0
    0.9626   -0.5606    4.2315 C   0  0  0  0  0  0  0  0  0  0  0  0
    1.1910    0.0463    3.0549 C   0  0  0  0  0  0  0  0  0  0  0  0
    2.4091    0.9516    2.9524 C   0  0  1  0  0  0  0  0  0  0  0  0
    2.1359    2.3388    2.3529 C   0  0  0  0  0  0  0  0  0  0  0  0
    3.4313    0.8757    4.1342 C   0  0  2  0  0  0  0  0  0  0  0  0
    4.5638   -0.1864    3.9232 C   0  0  0  0  0  0  0  0  0  0  0  0
    5.7227    0.1801    4.0802 O   0  0  0  0  0  0  0  0  0  0  0  0
    4.3021   -1.5261    3.7181 O   0  0  0  0  0  0  0  0  0  0  0  0
    3.2126   -2.1077    3.0067 C   0  0  0  0  0  0  0  0  0  0  0  0
    2.0968   -2.6745    3.8809 C   0  0  0  0  0  0  0  0  0  0  0  0
    1.0621   -1.9838    4.4027 C   0  0  0  0  0  0  0  0  0  0  0  0
   -0.0915   -2.5945    5.1957 C   0  0  1  0  0  0  0  0  0  0  0  0
    0.0050   -4.1118    5.4385 C   0  0  0  0  0  0  0  0  0  0  0  0
   -0.4022   -1.7447    6.4660 C   0  0  1  0  0  0  0  0  0  0  0  0
    0.7187   -2.0769    7.6220 C   0  0  0  0  0  0  0  0  0  0  0  0
    2.3833   -1.9866    7.7197 C   0  0  1  0  0  0  0  0  0  0  0  0
    2.8890   -3.4257    7.9625 C   0  0  0  0  0  0  0  0  0  0  0  0
    3.5244   -1.2664    6.7785 C   0  0  0  0  0  0  0  0  0  0  0  0
    3.9449    0.3241    6.7144 C   0  0  1  0  0  0  0  0  0  0  0  0
    5.3249    0.4905    6.9365 O   0  0  0  0  0  0  0  0  0  0  0  0
    3.1196    0.9743    7.7449 C   0  0  0  0  0  0  0  0  0  0  0  0
    3.0965    1.3911    8.9232 O   0  0  0  0  0  0  0  0  0  0  0  0
   -0.8366   -0.2040    5.9536 C   0  0  2  0  0  0  0  0  0  0  0  0
   -1.4674    1.2152    6.3643 C   0  0  1  0  0  0  0  0  0  0  0  0
   -1.4496    2.2121    7.5484 C   0  0  0  0  0  0  0  0  0  0  0  0
   -0.8200    1.9210    8.9024 C   0  0  0  0  0  0  0  0  0  0  0  0
   -2.7549    2.9033    7.8548 C   0  0  0  0  0  0  0  0  0  0  0  0
   -1.7942    4.3151    3.7028 H   0  0  0  0  0  0  0  0  0  0  0  0
   -1.2815    2.6282    3.7245 H   0  0  0  0  0  0  0  0  0  0  0  0
   -0.1077    3.9542    3.9889 H   0  0  0  0  0  0  0  0  0  0  0  0
    0.7987    4.2581    6.3996 H   0  0  0  0  0  0  0  0  0  0  0  0
    1.1320    3.1404    7.5992 H   0  0  0  0  0  0  0  0  0  0  0  0
    2.2470    3.2424    4.7098 H   0  0  0  0  0  0  0  0  0  0  0  0
    3.0518    3.5633    6.1505 H   0  0  0  0  0  0  0  0  0  0  0  0
    0.7956    0.2213    7.5719 H   0  0  0  0  0  0  0  0  0  0  0  0
    0.2985    1.2091    4.8327 H   0  0  0  0  0  0  0  0  0  0  0  0
    0.4565    0.8090    2.8427 H   0  0  0  0  0  0  0  0  0  0  0  0
    2.9537    0.5074    2.1262 H   0  0  0  0  0  0  0  0  0  0  0  0
    1.8391    2.2369    1.3085 H   0  0  0  0  0  0  0  0  0  0  0  0
    3.0240    2.9688    2.3763 H   0  0  0  0  0  0  0  0  0  0  0  0
    1.3331    2.8794    2.8408 H   0  0  0  0  0  0  0  0  0  0  0  0
    4.0493    1.7061    3.7872 H   0  0  0  0  0  0  0  0  0  0  0  0
    2.8467   -1.5100    2.1820 H   0  0  0  0  0  0  0  0  0  0  0  0
    3.6394   -2.9824    2.5156 H   0  0  0  0  0  0  0  0  0  0  0  0
    2.1590   -3.7326    4.0559 H   0  0  0  0  0  0  0  0  0  0  0  0
   -0.9537   -2.4628    4.5359 H   0  0  0  0  0  0  0  0  0  0  0  0
   -0.0044   -4.6493    4.4928 H   0  0  0  0  0  0  0  0  0  0  0  0
   -0.8380   -4.4821    6.0276 H   0  0  0  0  0  0  0  0  0  0  0  0
    0.9160   -4.3965    5.9657 H   0  0  0  0  0  0  0  0  0  0  0  0
   -1.3176   -2.1830    6.8401 H   0  0  0  0  0  0  0  0  0  0  0  0
    0.3597   -1.5924    8.5315 H   0  0  0  0  0  0  0  0  0  0  0  0
    0.4769   -3.1125    7.8753 H   0  0  0  0  0  0  0  0  0  0  0  0
    2.5315   -1.5269    8.7010 H   0  0  0  0  0  0  0  0  0  0  0  0
    2.8691   -4.0294    7.0515 H   0  0  0  0  0  0  0  0  0  0  0  0
    2.3052   -3.9476    8.7210 H   0  0  0  0  0  0  0  0  0  0  0  0
    3.9160   -3.4320    8.3278 H   0  0  0  0  0  0  0  0  0  0  0  0
    4.4565   -1.8117    6.9540 H   0  0  0  0  0  0  0  0  0  0  0  0
    3.2468   -1.5966    5.7929 H   0  0  0  0  0  0  0  0  0  0  0  0
    5.7662    0.1460    6.1835 H   0  0  0  0  0  0  0  0  0  0  0  0
   -0.9998   -0.2618    7.0320 H   0  0  0  0  0  0  0  0  0  0  0  0
   -2.4136    1.2952    5.8595 H   0  0  0  0  0  0  0  0  0  0  0  0
   -1.3740    1.1256    9.4079 H   0  0  0  0  0  0  0  0  0  0  0  0
   -0.8759    2.8223    9.5301 H   0  0  0  0  0  0  0  0  0  0  0  0
    0.2228    1.6570    8.8430 H   0  0  0  0  0  0  0  0  0  0  0  0
   -3.3516    2.2694    8.5052 H   0  0  0  0  0  0  0  0  0  0  0  0
   -3.3401    3.0974    6.9532 H   0  0  0  0  0  0  0  0  0  0  0  0
   -2.6016    3.8560    8.3716 H   0  0  0  0  0  0  0  0  0  0  0  0
  1  2  1  0
  1 37  1  0
  1 38  1  0
  1 39  1  0
  3  2  1  6
  3 33  1  0
  3 34  1  0
  3  4  1  0
  4  5  1  0
  4 40  1  0
  4 41  1  0
  6  5  1  6
  5 42  1  0
  5 43  1  0
  6 14  1  0
  6 28  1  0
  6  7  1  0
  7 30  1  0
  7  8  2  3
  8  9  1  0
  8 44  1  0
  9 32  1  0
  9 10  1  0
  9 45  1  6
 10 20  1  0
 10 11  2  3
 11 12  1  0
 11 46  1  0
 12 13  1  0
 12 14  1  0
 12 47  1  6
 13 48  1  0
 13 49  1  0
 13 50  1  0
 14 15  1  0
 14 51  1  6
 15 16  2  0
 15 17  1  0
 17 18  1  0
 18 19  1  0
 18 52  1  0
 18 53  1  0
 19 20  2  3
 19 54  1  0
 20 21  1  0
 21 22  1  0
 21 23  1  0
 21 55  1  6
 22 56  1  0
 22 57  1  0
 22 58  1  0
 23 24  1  0
 23 32  1  0
 23 59  1  1
 24 25  1  0
 24 60  1  0
 24 61  1  0
 25 26  1  0
 25 27  1  0
 25 62  1  1
 26 63  1  0
 26 64  1  0
 26 65  1  0
 27 28  1  0
 27 66  1  0
 27 67  1  0
 28 29  1  1
 28 30  1  0
 29 68  1  0
 30 31  2  0
 32 33  1  0
 32 69  1  6
 33 34  1  0
 33 70  1  6
 34 35  1  0
 34 36  1  0
 35 71  1  0
 35 72  1  0
 35 73  1  0
 36 74  1  0
 36 75  1  0
 36 76  1  0
M  END
>  <i_m_ct_stereo_status>  (451) 
1

>  <s_m_source_file>  (451) 
/var/tmp/pbs.5076255.sched01/tmpg_ssl3dq/162k0u29fl7.sdf

>  <i_m_source_file_index>  (451) 
50

>  <i_lp_mmshare_version>  (451) 
48012

>  <i_f3d_flags>  (451) 
2

>  <s_epik_input>  (451) 
Tz1DMVtDQF0yKFtPSF0pW0NIMl1bQ0BIXShbQ0gzXSlbQ0gyXVtDSF0oW0NIXTNbQ0BASF00W0NAXShPW0NIM10pKFtDSDJdW0NIMl01KUM0KFtDSDNdKVtDSDNdKVtDQEhdKFtDSDNdKUMoXEM9NlxbQ0BIXTMvW0NIXT1DMVxbQ0BAXTI1Nyk9W0NIXVxbQ0gyXU9DKD1PKVtDQEBIXTdbQ0BASF0oL1tDSF02KVtDSDNd

>  <s_epik_cmdline>  (451) 
J2VwaWtfcHl0aG9uJywgJy1waHQnLCAnMi4wJywgJy1waCcsICc3LjAnLCAnLXRuJywgJzgnLCAnLW1hJywgJzIwMCcsICctaW1hZScsICc8aW5maWxlLm1hZT4nLCAnLW9tYWUnLCAnPG91dGZpbGUubWFlPic=

>  <r_lp_tautomer_probability>  (451) 
1

>  <r_epik_Ionization_Penalty>  (451) 
2.1431e-06

>  <r_epik_Ionization_Penalty_Charging>  (451) 
0

>  <r_epik_Ionization_Penalty_Neutral>  (451) 
2.1431e-06

>  <r_epik_State_Penalty>  (451) 
-0

>  <r_epik_Charging_Adjusted_Penalty>  (451) 
0

>  <i_epik_Tot_Q>  (451) 
0

>  <i_epik_Tot_abs_Q>  (451) 
0

>  <s_epik_Chemistry_Notes>  (451) 
This compound has an ester and may undergo hydrolysis at high or low pH.

>  <s_lp_Force_Field>  (451) 
OPLS3e

>  <r_lp_Energy>  (451) 
466.925

>  <b_lp_Chiralities_Consistent>  (451) 
0

>  <s_lp_Variant>  (451) 
118:0-7

>  <s_i_glide_gridfile>  (451) 
pfpi4k_grid

>  <i_i_glide_lignum>  (451) 
50

>  <i_i_glide_rotatable_bonds>  (451) 
2

>  <r_i_docking_score>  (451) 
-2.01628

>  <r_i_glide_ligand_efficiency>  (451) 
-0.0560077

>  <r_i_glide_ligand_efficiency_sa>  (451) 
-0.184933

>  <r_i_glide_ligand_efficiency_ln>  (451) 
-0.439897

>  <r_i_glide_gscore>  (451) 
-2.01628

>  <r_i_glide_lipo>  (451) 
-0.13503

>  <r_i_glide_hbond>  (451) 
0

>  <r_i_glide_metal>  (451) 
-0

>  <r_i_glide_rewards>  (451) 
-0.621945

>  <r_i_glide_evdw>  (451) 
-21.3897

>  <r_i_glide_ecoul>  (451) 
-1.26545

>  <r_i_glide_erotb>  (451) 
0

>  <r_i_glide_esite>  (451) 
0

>  <r_i_glide_emodel>  (451) 
-29.9016

>  <r_i_glide_energy>  (451) 
-22.6551

>  <r_i_glide_einternal>  (451) 
0.0293207

>  <r_i_glide_intrahb_reward>  (451) 
-0.5

>  <i_i_glide_confnum>  (451) 
2

>  <i_i_glide_posenum>  (451) 
33

>  <r_i_glide_eff_state_penalty>  (451) 
0

>  <ligand_id>  (451) 
118

>  <original_smiles>  (451) 
COC12CCC34C5=CC6C7=CC(C)C3C(=O)OCC=C7C(C)C(CC(C)CC4(O)C5=O)C6C1C2(C)C

>  <smiles>  (451) 
[H]OC12C(=O)C3=C([H])C4([H])C5=C([H])C([H])(C([H])([H])[H])C6([H])C(=O)OC([H])([H])C([H])=C5C([H])(C([H])([H])[H])C([H])(C([H])([H])C([H])(C([H])([H])[H])C1([H])[H])C4([H])C1([H])C(OC([H])([H])[H])(C([H])([H])C([H])([H])C362)C1(C([H])([H])[H])C([H])([H])[H]

$$$$
118:6:2
     RDKit          3D

 76 82  0  0  1  0  0  0  0  0999 V2000
   -0.7563    4.0901    4.1324 C   0  0  0  0  0  0  0  0  0  0  0  0
   -1.3481    4.0187    5.4258 O   0  0  0  0  0  0  0  0  0  0  0  0
   -0.7350    3.0496    6.3119 C   0  0  2  0  0  0  0  0  0  0  0  0
    0.6451    3.6819    6.9258 C   0  0  0  0  0  0  0  0  0  0  0  0
    2.2659    3.4165    6.4839 C   0  0  0  0  0  0  0  0  0  0  0  0
    3.1755    2.0335    6.6114 C   0  0  0  0  0  0  0  0  0  0  0  0
    2.0395    1.5231    7.3409 C   0  0  0  0  0  0  0  0  0  0  0  0
    1.0006    0.9132    6.9753 C   0  0  0  0  0  0  0  0  0  0  0  0
    0.5831    0.7771    5.5679 C   0  0  1  0  0  0  0  0  0  0  0  0
    1.4694    0.0222    4.6280 C   0  0  0  0  0  0  0  0  0  0  0  0
    1.9554    0.6789    3.5692 C   0  0  0  0  0  0  0  0  0  0  0  0
    3.1125    1.6386    3.8128 C   0  0  1  0  0  0  0  0  0  0  0  0
    2.9427    3.0416    3.2185 C   0  0  0  0  0  0  0  0  0  0  0  0
    3.7997    1.5564    5.2131 C   0  0  2  0  0  0  0  0  0  0  0  0
    5.0198    0.5649    5.2438 C   0  0  0  0  0  0  0  0  0  0  0  0
    6.1006    1.0000    5.6347 O   0  0  0  0  0  0  0  0  0  0  0  0
    4.8868   -0.7787    4.9626 O   0  0  0  0  0  0  0  0  0  0  0  0
    4.0392   -1.3829    3.9864 C   0  0  0  0  0  0  0  0  0  0  0  0
    2.7651   -2.0256    4.5285 C   0  0  0  0  0  0  0  0  0  0  0  0
    1.5953   -1.4069    4.7833 C   0  0  0  0  0  0  0  0  0  0  0  0
    0.3090   -2.0940    5.2422 C   0  0  1  0  0  0  0  0  0  0  0  0
    0.4222   -3.6100    5.4561 C   0  0  0  0  0  0  0  0  0  0  0  0
   -0.3617   -1.2974    6.4028 C   0  0  1  0  0  0  0  0  0  0  0  0
    0.4535   -1.6271    7.8043 C   0  0  0  0  0  0  0  0  0  0  0  0
    2.0351   -1.4645    8.3243 C   0  0  1  0  0  0  0  0  0  0  0  0
    2.5375   -2.8886    8.6586 C   0  0  0  0  0  0  0  0  0  0  0  0
    3.3404   -0.6593    7.7364 C   0  0  0  0  0  0  0  0  0  0  0  0
    3.6726    0.9527    7.8104 C   0  0  1  0  0  0  0  0  0  0  0  0
    4.9382    1.1706    8.4025 O   0  0  0  0  0  0  0  0  0  0  0  0
    2.5894    1.5268    8.6229 C   0  0  0  0  0  0  0  0  0  0  0  0
    2.2670    1.9241    9.7400 O   0  0  0  0  0  0  0  0  0  0  0  0
   -0.7281    0.2390    5.8341 C   0  0  2  0  0  0  0  0  0  0  0  0
   -1.5038    1.6141    6.1074 C   0  0  1  0  0  0  0  0  0  0  0  0
   -1.8340    2.5596    7.2777 C   0  0  0  0  0  0  0  0  0  0  0  0
   -1.5614    2.2554    8.7363 C   0  0  0  0  0  0  0  0  0  0  0  0
   -3.2203    3.1681    7.2548 C   0  0  0  0  0  0  0  0  0  0  0  0
   -1.3078    4.7770    3.5084 H   0  0  0  0  0  0  0  0  0  0  0  0
   -0.7489    3.1148    3.6338 H   0  0  0  0  0  0  0  0  0  0  0  0
    0.2606    4.4742    4.2054 H   0  0  0  0  0  0  0  0  0  0  0  0
    0.5190    4.7530    6.7897 H   0  0  0  0  0  0  0  0  0  0  0  0
    0.5866    3.6045    8.0043 H   0  0  0  0  0  0  0  0  0  0  0  0
    2.3957    3.8549    5.5128 H   0  0  0  0  0  0  0  0  0  0  0  0
    2.7931    4.1581    7.1120 H   0  0  0  0  0  0  0  0  0  0  0  0
    0.4033    0.6709    7.8296 H   0  0  0  0  0  0  0  0  0  0  0  0
    0.5812    1.7323    5.0827 H   0  0  0  0  0  0  0  0  0  0  0  0
    1.2644    1.4162    3.1855 H   0  0  0  0  0  0  0  0  0  0  0  0
    3.8574    1.2422    3.1326 H   0  0  0  0  0  0  0  0  0  0  0  0
    2.9296    2.9636    2.1451 H   0  0  0  0  0  0  0  0  0  0  0  0
    3.7774    3.6998    3.4623 H   0  0  0  0  0  0  0  0  0  0  0  0
    2.0139    3.5290    3.4821 H   0  0  0  0  0  0  0  0  0  0  0  0
    4.4457    2.4289    5.0523 H   0  0  0  0  0  0  0  0  0  0  0  0
    3.8652   -0.7776    3.1090 H   0  0  0  0  0  0  0  0  0  0  0  0
    4.6204   -2.2218    3.5945 H   0  0  0  0  0  0  0  0  0  0  0  0
    2.8392   -3.0892    4.6915 H   0  0  0  0  0  0  0  0  0  0  0  0
   -0.3703   -1.9858    4.3843 H   0  0  0  0  0  0  0  0  0  0  0  0
    0.6831   -4.1178    4.5299 H   0  0  0  0  0  0  0  0  0  0  0  0
   -0.5265   -4.0443    5.7953 H   0  0  0  0  0  0  0  0  0  0  0  0
    1.1816   -3.8771    6.1968 H   0  0  0  0  0  0  0  0  0  0  0  0
   -1.3191   -1.7887    6.5103 H   0  0  0  0  0  0  0  0  0  0  0  0
   -0.1411   -1.1863    8.6040 H   0  0  0  0  0  0  0  0  0  0  0  0
    0.2113   -2.6825    7.9661 H   0  0  0  0  0  0  0  0  0  0  0  0
    1.9085   -1.0372    9.3191 H   0  0  0  0  0  0  0  0  0  0  0  0
    2.7810   -3.4645    7.7597 H   0  0  0  0  0  0  0  0  0  0  0  0
    1.8089   -3.4644    9.2315 H   0  0  0  0  0  0  0  0  0  0  0  0
    3.4374   -2.8641    9.2729 H   0  0  0  0  0  0  0  0  0  0  0  0
    4.2256   -1.1676    8.1172 H   0  0  0  0  0  0  0  0  0  0  0  0
    3.3430   -0.9622    6.6944 H   0  0  0  0  0  0  0  0  0  0  0  0
    5.0305    2.1006    8.5002 H   0  0  0  0  0  0  0  0  0  0  0  0
   -1.1690    0.1328    6.8279 H   0  0  0  0  0  0  0  0  0  0  0  0
   -2.2929    1.6677    5.3653 H   0  0  0  0  0  0  0  0  0  0  0  0
   -2.1746    1.4191    9.0637 H   0  0  0  0  0  0  0  0  0  0  0  0
   -1.8115    3.1271    9.3574 H   0  0  0  0  0  0  0  0  0  0  0  0
   -0.5196    2.0368    8.9499 H   0  0  0  0  0  0  0  0  0  0  0  0
   -3.9566    2.5052    7.7031 H   0  0  0  0  0  0  0  0  0  0  0  0
   -3.5444    3.3402    6.2305 H   0  0  0  0  0  0  0  0  0  0  0  0
   -3.2426    4.1083    7.8097 H   0  0  0  0  0  0  0  0  0  0  0  0
  1  2  1  0
  1 37  1  0
  1 38  1  0
  1 39  1  0
  3  2  1  6
  3 33  1  0
  3 34  1  0
  3  4  1  0
  4  5  1  0
  4 40  1  0
  4 41  1  0
  5  6  1  0
  5 42  1  0
  5 43  1  0
  6 14  1  0
  6 28  1  0
  6  7  1  0
  7 30  1  0
  7  8  2  3
  8  9  1  0
  8 44  1  0
  9 32  1  0
  9 10  1  0
  9 45  1  6
 10 20  1  0
 10 11  2  3
 11 12  1  0
 11 46  1  0
 12 13  1  0
 12 14  1  0
 12 47  1  6
 13 48  1  0
 13 49  1  0
 13 50  1  0
 14 15  1  0
 14 51  1  6
 15 16  2  0
 15 17  1  0
 17 18  1  0
 18 19  1  0
 18 52  1  0
 18 53  1  0
 19 20  2  3
 19 54  1  0
 20 21  1  0
 21 22  1  0
 21 23  1  0
 21 55  1  6
 22 56  1  0
 22 57  1  0
 22 58  1  0
 23 24  1  0
 23 32  1  0
 23 59  1  1
 24 25  1  0
 24 60  1  0
 24 61  1  0
 25 26  1  0
 25 27  1  0
 25 62  1  1
 26 63  1  0
 26 64  1  0
 26 65  1  0
 27 28  1  0
 27 66  1  0
 27 67  1  0
 28 29  1  1
 28 30  1  0
 29 68  1  0
 30 31  2  0
 32 33  1  0
 32 69  1  6
 33 34  1  0
 33 70  1  6
 34 35  1  0
 34 36  1  0
 35 71  1  0
 35 72  1  0
 35 73  1  0
 36 74  1  0
 36 75  1  0
 36 76  1  0
M  END
>  <i_m_ct_stereo_status>  (452) 
1

>  <s_m_source_file>  (452) 
/var/tmp/pbs.5076255.sched01/tmpg_ssl3dq/162k0u29fl7.sdf

>  <i_m_source_file_index>  (452) 
50

>  <i_lp_mmshare_version>  (452) 
48012

>  <i_f3d_flags>  (452) 
2

>  <s_epik_input>  (452) 
Tz1DMVtDQF0yKFtPSF0pW0NIMl1bQ0BIXShbQ0gzXSlbQ0gyXVtDSF0oW0NIXTNbQ0BASF00W0NAXShPW0NIM10pKFtDSDJdW0NIMl01KUM0KFtDSDNdKVtDSDNdKVtDQEhdKFtDSDNdKUMoXEM9NlxbQ0BIXTMvW0NIXT1DMVxbQ0BAXTI1Nyk9W0NIXVxbQ0gyXU9DKD1PKVtDQEBIXTdbQ0BASF0oL1tDSF02KVtDSDNd

>  <s_epik_cmdline>  (452) 
J2VwaWtfcHl0aG9uJywgJy1waHQnLCAnMi4wJywgJy1waCcsICc3LjAnLCAnLXRuJywgJzgnLCAnLW1hJywgJzIwMCcsICctaW1hZScsICc8aW5maWxlLm1hZT4nLCAnLW9tYWUnLCAnPG91dGZpbGUubWFlPic=

>  <r_lp_tautomer_probability>  (452) 
1

>  <r_epik_Ionization_Penalty>  (452) 
2.1431e-06

>  <r_epik_Ionization_Penalty_Charging>  (452) 
0

>  <r_epik_Ionization_Penalty_Neutral>  (452) 
2.1431e-06

>  <r_epik_State_Penalty>  (452) 
-0

>  <r_epik_Charging_Adjusted_Penalty>  (452) 
0

>  <i_epik_Tot_Q>  (452) 
0

>  <i_epik_Tot_abs_Q>  (452) 
0

>  <s_epik_Chemistry_Notes>  (452) 
This compound has an ester and may undergo hydrolysis at high or low pH.

>  <s_lp_Force_Field>  (452) 
OPLS3e

>  <r_lp_Energy>  (452) 
466.925

>  <b_lp_Chiralities_Consistent>  (452) 
0

>  <s_lp_Variant>  (452) 
118:0-7

>  <s_i_glide_gridfile>  (452) 
pfpi4k_grid

>  <i_i_glide_lignum>  (452) 
50

>  <i_i_glide_rotatable_bonds>  (452) 
2

>  <r_i_docking_score>  (452) 
-1.33047

>  <r_i_glide_ligand_efficiency>  (452) 
-0.0369575

>  <r_i_glide_ligand_efficiency_sa>  (452) 
-0.122031

>  <r_i_glide_ligand_efficiency_ln>  (452) 
-0.290272

>  <r_i_glide_gscore>  (452) 
-1.33047

>  <r_i_glide_lipo>  (452) 
-0.14825

>  <r_i_glide_hbond>  (452) 
0

>  <r_i_glide_metal>  (452) 
-0

>  <r_i_glide_rewards>  (452) 
-0.119949

>  <r_i_glide_evdw>  (452) 
-18.3806

>  <r_i_glide_ecoul>  (452) 
-0.954947

>  <r_i_glide_erotb>  (452) 
0

>  <r_i_glide_esite>  (452) 
0

>  <r_i_glide_emodel>  (452) 
-19.247

>  <r_i_glide_energy>  (452) 
-19.3355

>  <r_i_glide_einternal>  (452) 
2.52998

>  <r_i_glide_intrahb_reward>  (452) 
-0

>  <i_i_glide_confnum>  (452) 
2

>  <i_i_glide_posenum>  (452) 
30

>  <r_i_glide_eff_state_penalty>  (452) 
0

>  <ligand_id>  (452) 
118

>  <original_smiles>  (452) 
COC12CCC34C5=CC6C7=CC(C)C3C(=O)OCC=C7C(C)C(CC(C)CC4(O)C5=O)C6C1C2(C)C

>  <smiles>  (452) 
[H]OC12C(=O)C3=C([H])C4([H])C5=C([H])C([H])(C([H])([H])[H])C6([H])C(=O)OC([H])([H])C([H])=C5C([H])(C([H])([H])[H])C([H])(C([H])([H])C([H])(C([H])([H])[H])C1([H])[H])C4([H])C1([H])C(OC([H])([H])[H])(C([H])([H])C([H])([H])C362)C1(C([H])([H])[H])C([H])([H])[H]

$$$$
118:7:0
     RDKit          3D

 76 82  0  0  1  0  0  0  0  0999 V2000
   -0.3681    5.3234    3.2934 C   0  0  0  0  0  0  0  0  0  0  0  0
   -0.2431    4.4192    4.3999 O   0  0  0  0  0  0  0  0  0  0  0  0
    0.1199    3.0539    4.1387 C   0  0  1  0  0  0  0  0  0  0  0  0
    1.4418    2.9476    3.2432 C   0  0  0  0  0  0  0  0  0  0  0  0
    2.9672    2.9398    3.7588 C   0  0  0  0  0  0  0  0  0  0  0  0
    3.5181    2.2241    5.0633 C   0  0  1  0  0  0  0  0  0  0  0  0
    2.4368    1.5827    5.7071 C   0  0  0  0  0  0  0  0  0  0  0  0
    1.6286    0.8107    5.0145 C   0  0  0  0  0  0  0  0  0  0  0  0
    0.7186   -0.1532    5.4267 C   0  0  1  0  0  0  0  0  0  0  0  0
    1.7813   -1.0209    6.1241 C   0  0  0  0  0  0  0  0  0  0  0  0
    2.8876   -1.4673    5.4282 C   0  0  0  0  0  0  0  0  0  0  0  0
    3.8341   -0.6306    4.4370 C   0  0  1  0  0  0  0  0  0  0  0  0
    3.4728   -0.7506    2.9397 C   0  0  0  0  0  0  0  0  0  0  0  0
    4.4643    0.8235    4.9452 C   0  0  2  0  0  0  0  0  0  0  0  0
    5.2990    0.4714    6.2472 C   0  0  0  0  0  0  0  0  0  0  0  0
    6.1105    1.2574    6.7350 O   0  0  0  0  0  0  0  0  0  0  0  0
    5.0200   -0.7665    6.7777 O   0  0  0  0  0  0  0  0  0  0  0  0
    4.5018   -1.0586    8.0902 C   0  0  0  0  0  0  0  0  0  0  0  0
    2.9533   -1.0593    8.3529 C   0  0  0  0  0  0  0  0  0  0  0  0
    1.8086   -0.9495    7.5861 C   0  0  0  0  0  0  0  0  0  0  0  0
    0.4927   -0.3621    8.2096 C   0  0  1  0  0  0  0  0  0  0  0  0
    0.4525   -0.2928    9.7537 C   0  0  0  0  0  0  0  0  0  0  0  0
   -0.0964    0.9900    7.5408 C   0  0  1  0  0  0  0  0  0  0  0  0
    0.2673    2.4398    8.1546 C   0  0  0  0  0  0  0  0  0  0  0  0
    0.7280    3.8029    7.4098 C   0  0  1  0  0  0  0  0  0  0  0  0
    0.5383    4.9375    8.4437 C   0  0  0  0  0  0  0  0  0  0  0  0
    2.1074    4.1700    6.6136 C   0  0  0  0  0  0  0  0  0  0  0  0
    3.3278    3.2101    6.3431 C   0  0  2  0  0  0  0  0  0  0  0  0
    4.4998    3.7643    6.9007 O   0  0  0  0  0  0  0  0  0  0  0  0
    2.8714    2.0145    7.0588 C   0  0  0  0  0  0  0  0  0  0  0  0
    2.9466    1.5933    8.1833 O   0  0  0  0  0  0  0  0  0  0  0  0
   -0.3399    0.8013    6.0143 C   0  0  1  0  0  0  0  0  0  0  0  0
   -0.6750    2.1242    5.1673 C   0  0  2  0  0  0  0  0  0  0  0  0
   -1.1300    2.2331    3.7227 C   0  0  0  0  0  0  0  0  0  0  0  0
   -2.4745    2.9117    3.4777 C   0  0  0  0  0  0  0  0  0  0  0  0
   -1.0164    1.0604    2.7680 C   0  0  0  0  0  0  0  0  0  0  0  0
   -0.8586    6.2206    3.6367 H   0  0  0  0  0  0  0  0  0  0  0  0
   -0.9865    4.9281    2.4837 H   0  0  0  0  0  0  0  0  0  0  0  0
    0.5897    5.6578    2.8919 H   0  0  0  0  0  0  0  0  0  0  0  0
    1.3339    2.1099    2.5647 H   0  0  0  0  0  0  0  0  0  0  0  0
    1.4149    3.7448    2.5089 H   0  0  0  0  0  0  0  0  0  0  0  0
    3.4916    2.5418    2.9066 H   0  0  0  0  0  0  0  0  0  0  0  0
    3.2741    3.9851    3.8302 H   0  0  0  0  0  0  0  0  0  0  0  0
    1.7680    0.7307    3.9580 H   0  0  0  0  0  0  0  0  0  0  0  0
    0.3320   -0.7131    4.5763 H   0  0  0  0  0  0  0  0  0  0  0  0
    3.4795   -2.2030    5.9537 H   0  0  0  0  0  0  0  0  0  0  0  0
    4.7203   -1.2676    4.4213 H   0  0  0  0  0  0  0  0  0  0  0  0
    3.8617   -1.6800    2.5235 H   0  0  0  0  0  0  0  0  0  0  0  0
    3.9155    0.0635    2.3625 H   0  0  0  0  0  0  0  0  0  0  0  0
    2.4023   -0.7687    2.7431 H   0  0  0  0  0  0  0  0  0  0  0  0
    5.2370    1.0567    4.2161 H   0  0  0  0  0  0  0  0  0  0  0  0
    4.8788   -2.0393    8.3851 H   0  0  0  0  0  0  0  0  0  0  0  0
    4.9507   -0.3483    8.7814 H   0  0  0  0  0  0  0  0  0  0  0  0
    2.8213   -0.9240    9.4138 H   0  0  0  0  0  0  0  0  0  0  0  0
   -0.2188   -1.1429    7.9540 H   0  0  0  0  0  0  0  0  0  0  0  0
    0.6276   -1.2758   10.1968 H   0  0  0  0  0  0  0  0  0  0  0  0
   -0.5206    0.0529   10.1078 H   0  0  0  0  0  0  0  0  0  0  0  0
    1.2005    0.3899   10.1557 H   0  0  0  0  0  0  0  0  0  0  0  0
   -1.1253    0.9299    7.8931 H   0  0  0  0  0  0  0  0  0  0  0  0
   -0.6745    2.7274    8.6200 H   0  0  0  0  0  0  0  0  0  0  0  0
    0.8857    2.3164    9.0377 H   0  0  0  0  0  0  0  0  0  0  0  0
   -0.0680    4.0451    6.7200 H   0  0  0  0  0  0  0  0  0  0  0  0
    1.2824    4.8691    9.2388 H   0  0  0  0  0  0  0  0  0  0  0  0
   -0.4484    4.9125    8.9069 H   0  0  0  0  0  0  0  0  0  0  0  0
    0.6347    5.9225    7.9811 H   0  0  0  0  0  0  0  0  0  0  0  0
    1.8032    4.5600    5.6469 H   0  0  0  0  0  0  0  0  0  0  0  0
    2.5112    5.0737    7.0689 H   0  0  0  0  0  0  0  0  0  0  0  0
    4.7184    4.5119    6.3624 H   0  0  0  0  0  0  0  0  0  0  0  0
   -1.2581    0.2165    5.9478 H   0  0  0  0  0  0  0  0  0  0  0  0
   -1.3703    2.6794    5.7879 H   0  0  0  0  0  0  0  0  0  0  0  0
   -3.2909    2.2147    3.6606 H   0  0  0  0  0  0  0  0  0  0  0  0
   -2.5482    3.2686    2.4530 H   0  0  0  0  0  0  0  0  0  0  0  0
   -2.6161    3.7538    4.1477 H   0  0  0  0  0  0  0  0  0  0  0  0
   -1.7769    0.3293    2.9864 H   0  0  0  0  0  0  0  0  0  0  0  0
   -0.0688    0.5418    2.8584 H   0  0  0  0  0  0  0  0  0  0  0  0
   -1.1107    1.3916    1.7332 H   0  0  0  0  0  0  0  0  0  0  0  0
  1  2  1  0
  1 37  1  0
  1 38  1  0
  1 39  1  0
  3  2  1  1
  3 33  1  0
  3 34  1  0
  3  4  1  0
  4  5  1  0
  4 40  1  0
  4 41  1  0
  6  5  1  6
  5 42  1  0
  5 43  1  0
  6 14  1  0
  6 28  1  0
  6  7  1  0
  7 30  1  0
  7  8  2  3
  8  9  1  0
  8 44  1  0
  9 32  1  0
  9 10  1  0
  9 45  1  6
 10 20  1  0
 10 11  2  3
 11 12  1  0
 11 46  1  0
 12 13  1  0
 12 14  1  0
 12 47  1  6
 13 48  1  0
 13 49  1  0
 13 50  1  0
 14 15  1  0
 14 51  1  6
 15 16  2  0
 15 17  1  0
 17 18  1  0
 18 19  1  0
 18 52  1  0
 18 53  1  0
 19 20  2  3
 19 54  1  0
 20 21  1  0
 21 22  1  0
 21 23  1  0
 21 55  1  6
 22 56  1  0
 22 57  1  0
 22 58  1  0
 23 24  1  0
 23 32  1  0
 23 59  1  1
 24 25  1  0
 24 60  1  0
 24 61  1  0
 25 26  1  0
 25 27  1  0
 25 62  1  6
 26 63  1  0
 26 64  1  0
 26 65  1  0
 27 28  1  0
 27 66  1  0
 27 67  1  0
 28 29  1  1
 28 30  1  0
 29 68  1  0
 30 31  2  0
 32 33  1  0
 32 69  1  1
 33 34  1  0
 33 70  1  1
 34 35  1  0
 34 36  1  0
 35 71  1  0
 35 72  1  0
 35 73  1  0
 36 74  1  0
 36 75  1  0
 36 76  1  0
M  END
>  <i_m_ct_stereo_status>  (453) 
1

>  <s_m_source_file>  (453) 
/var/tmp/pbs.5076255.sched01/tmpg_ssl3dq/162k0u29fl7.sdf

>  <i_m_source_file_index>  (453) 
51

>  <i_lp_mmshare_version>  (453) 
48012

>  <i_f3d_flags>  (453) 
3

>  <s_epik_input>  (453) 
Tz1DMVtDQF0yKFtPSF0pW0NIMl1bQ0BIXShbQ0gzXSlbQ0gyXVtDSF0oW0NIXTNbQ0BASF00W0NAXShPW0NIM10pKFtDSDJdW0NIMl01KUM0KFtDSDNdKVtDSDNdKVtDQEhdKFtDSDNdKUMoXEM9NlxbQ0BIXTMvW0NIXT1DMVxbQ0BAXTI1Nyk9W0NIXVxbQ0gyXU9DKD1PKVtDQEBIXTdbQ0BASF0oL1tDSF02KVtDSDNd

>  <s_epik_cmdline>  (453) 
J2VwaWtfcHl0aG9uJywgJy1waHQnLCAnMi4wJywgJy1waCcsICc3LjAnLCAnLXRuJywgJzgnLCAnLW1hJywgJzIwMCcsICctaW1hZScsICc8aW5maWxlLm1hZT4nLCAnLW9tYWUnLCAnPG91dGZpbGUubWFlPic=

>  <r_lp_tautomer_probability>  (453) 
1

>  <r_epik_Ionization_Penalty>  (453) 
2.1431e-06

>  <r_epik_Ionization_Penalty_Charging>  (453) 
0

>  <r_epik_Ionization_Penalty_Neutral>  (453) 
2.1431e-06

>  <r_epik_State_Penalty>  (453) 
-0

>  <r_epik_Charging_Adjusted_Penalty>  (453) 
0

>  <i_epik_Tot_Q>  (453) 
0

>  <i_epik_Tot_abs_Q>  (453) 
0

>  <s_epik_Chemistry_Notes>  (453) 
This compound has an ester and may undergo hydrolysis at high or low pH.

>  <s_lp_Force_Field>  (453) 
OPLS3e

>  <r_lp_Energy>  (453) 
365.505

>  <b_lp_Chiralities_Consistent>  (453) 
0

>  <s_lp_Variant>  (453) 
118:0-8

>  <s_i_glide_gridfile>  (453) 
pfpi4k_grid

>  <i_i_glide_lignum>  (453) 
51

>  <i_i_glide_rotatable_bonds>  (453) 
2

>  <r_i_docking_score>  (453) 
-1.21564

>  <r_i_glide_ligand_efficiency>  (453) 
-0.0337677

>  <r_i_glide_ligand_efficiency_sa>  (453) 
-0.111499

>  <r_i_glide_ligand_efficiency_ln>  (453) 
-0.265219

>  <r_i_glide_gscore>  (453) 
-1.21564

>  <r_i_glide_lipo>  (453) 
-0.0249917

>  <r_i_glide_hbond>  (453) 
0

>  <r_i_glide_metal>  (453) 
-0

>  <r_i_glide_rewards>  (453) 
-0.0749563

>  <r_i_glide_evdw>  (453) 
-17.3091

>  <r_i_glide_ecoul>  (453) 
-1.66822

>  <r_i_glide_erotb>  (453) 
0

>  <r_i_glide_esite>  (453) 
0

>  <r_i_glide_emodel>  (453) 
-19.6561

>  <r_i_glide_energy>  (453) 
-18.9774

>  <r_i_glide_einternal>  (453) 
0.874792

>  <r_i_glide_intrahb_reward>  (453) 
-0

>  <i_i_glide_confnum>  (453) 
2

>  <i_i_glide_posenum>  (453) 
14

>  <r_i_glide_eff_state_penalty>  (453) 
0

>  <ligand_id>  (453) 
118

>  <original_smiles>  (453) 
COC12CCC34C5=CC6C7=CC(C)C3C(=O)OCC=C7C(C)C(CC(C)CC4(O)C5=O)C6C1C2(C)C

>  <smiles>  (453) 
[H]OC12C(=O)C3=C([H])C4([H])C5=C([H])C([H])(C([H])([H])[H])C6([H])C(=O)OC([H])([H])C([H])=C5C([H])(C([H])([H])[H])C([H])(C([H])([H])C([H])(C([H])([H])[H])C1([H])[H])C4([H])C1([H])C(OC([H])([H])[H])(C([H])([H])C([H])([H])C362)C1(C([H])([H])[H])C([H])([H])[H]

$$$$
118:7:1
     RDKit          3D

 76 82  0  0  1  0  0  0  0  0999 V2000
    3.4891    2.5352   11.3847 C   0  0  0  0  0  0  0  0  0  0  0  0
    3.5910    2.0846   10.0312 O   0  0  0  0  0  0  0  0  0  0  0  0
    2.4569    1.4262    9.4242 C   0  0  1  0  0  0  0  0  0  0  0  0
    1.1257    2.3076    9.5438 C   0  0  0  0  0  0  0  0  0  0  0  0
    0.6169    3.4711    8.5290 C   0  0  0  0  0  0  0  0  0  0  0  0
    0.7650    3.4500    6.9544 C   0  0  1  0  0  0  0  0  0  0  0  0
    1.4034    2.2501    6.5571 C   0  0  0  0  0  0  0  0  0  0  0  0
    0.9518    1.0959    7.0453 C   0  0  0  0  0  0  0  0  0  0  0  0
    1.1525   -0.1980    6.6024 C   0  0  1  0  0  0  0  0  0  0  0  0
    0.5380    0.0443    5.2143 C   0  0  0  0  0  0  0  0  0  0  0  0
   -0.7474    0.5454    5.0963 C   0  0  0  0  0  0  0  0  0  0  0  0
   -1.4020    1.7757    5.9014 C   0  0  1  0  0  0  0  0  0  0  0  0
   -2.2130    1.3745    7.1554 C   0  0  0  0  0  0  0  0  0  0  0  0
   -0.5931    3.2257    5.9751 C   0  0  2  0  0  0  0  0  0  0  0  0
   -0.4163    3.6730    4.4600 C   0  0  0  0  0  0  0  0  0  0  0  0
   -0.1193    4.8280    4.1622 O   0  0  0  0  0  0  0  0  0  0  0  0
   -0.6337    2.6627    3.5529 O   0  0  0  0  0  0  0  0  0  0  0  0
    0.3035    2.1264    2.5939 C   0  0  0  0  0  0  0  0  0  0  0  0
    1.3001    0.9852    3.0062 C   0  0  0  0  0  0  0  0  0  0  0  0
    1.4892    0.1727    4.1094 C   0  0  0  0  0  0  0  0  0  0  0  0
    2.9169   -0.3945    4.4308 C   0  0  1  0  0  0  0  0  0  0  0  0
    3.9481   -0.3126    3.2850 C   0  0  0  0  0  0  0  0  0  0  0  0
    3.5686    0.0343    5.8465 C   0  0  1  0  0  0  0  0  0  0  0  0
    4.5790    1.2938    5.9451 C   0  0  0  0  0  0  0  0  0  0  0  0
    4.6346    2.5137    7.0154 C   0  0  1  0  0  0  0  0  0  0  0  0
    6.0272    3.1647    6.8466 C   0  0  0  0  0  0  0  0  0  0  0  0
    3.6052    3.7539    7.2708 C   0  0  0  0  0  0  0  0  0  0  0  0
    2.2414    4.0178    6.5230 C   0  0  2  0  0  0  0  0  0  0  0  0
    2.2757    5.2863    5.9021 O   0  0  0  0  0  0  0  0  0  0  0  0
    2.2441    2.9232    5.5744 C   0  0  0  0  0  0  0  0  0  0  0  0
    2.7004    2.7697    4.4335 O   0  0  0  0  0  0  0  0  0  0  0  0
    2.6301   -0.3342    7.0384 C   0  0  1  0  0  0  0  0  0  0  0  0
    3.0225    0.2578    8.4762 C   0  0  2  0  0  0  0  0  0  0  0  0
    2.4213   -0.0747    9.8353 C   0  0  0  0  0  0  0  0  0  0  0  0
    3.3614   -0.6399   10.8858 C   0  0  0  0  0  0  0  0  0  0  0  0
    1.1061   -0.8291    9.9517 C   0  0  0  0  0  0  0  0  0  0  0  0
    4.4916    2.7387   11.7643 H   0  0  0  0  0  0  0  0  0  0  0  0
    3.0324    1.8030   12.0512 H   0  0  0  0  0  0  0  0  0  0  0  0
    2.9371    3.4707   11.4673 H   0  0  0  0  0  0  0  0  0  0  0  0
    0.2796    1.6349    9.6963 H   0  0  0  0  0  0  0  0  0  0  0  0
    1.1364    2.7869   10.5123 H   0  0  0  0  0  0  0  0  0  0  0  0
   -0.4347    3.6657    8.7640 H   0  0  0  0  0  0  0  0  0  0  0  0
    1.1247    4.3830    8.8638 H   0  0  0  0  0  0  0  0  0  0  0  0
    0.1773    1.1108    7.7675 H   0  0  0  0  0  0  0  0  0  0  0  0
    0.5157   -0.9035    7.1367 H   0  0  0  0  0  0  0  0  0  0  0  0
   -1.1429    0.5278    4.0909 H   0  0  0  0  0  0  0  0  0  0  0  0
   -2.2402    2.0147    5.2469 H   0  0  0  0  0  0  0  0  0  0  0  0
   -3.2009    1.0095    6.8850 H   0  0  0  0  0  0  0  0  0  0  0  0
   -2.3617    2.2268    7.8187 H   0  0  0  0  0  0  0  0  0  0  0  0
   -1.7431    0.5885    7.7273 H   0  0  0  0  0  0  0  0  0  0  0  0
   -1.3355    3.9371    6.3526 H   0  0  0  0  0  0  0  0  0  0  0  0
   -0.2637    1.7800    1.7294 H   0  0  0  0  0  0  0  0  0  0  0  0
    0.9269    2.9450    2.2350 H   0  0  0  0  0  0  0  0  0  0  0  0
    2.1108    1.0239    2.2991 H   0  0  0  0  0  0  0  0  0  0  0  0
    2.7152   -1.4620    4.5293 H   0  0  0  0  0  0  0  0  0  0  0  0
    3.5801   -0.8178    2.3887 H   0  0  0  0  0  0  0  0  0  0  0  0
    4.8830   -0.7993    3.5680 H   0  0  0  0  0  0  0  0  0  0  0  0
    4.1863    0.7173    3.0150 H   0  0  0  0  0  0  0  0  0  0  0  0
    4.3033   -0.7667    5.9494 H   0  0  0  0  0  0  0  0  0  0  0  0
    5.5403    0.7968    6.0977 H   0  0  0  0  0  0  0  0  0  0  0  0
    4.7395    1.7073    4.9534 H   0  0  0  0  0  0  0  0  0  0  0  0
    4.7623    2.0448    7.9803 H   0  0  0  0  0  0  0  0  0  0  0  0
    6.0898    3.7141    5.9068 H   0  0  0  0  0  0  0  0  0  0  0  0
    6.8338    2.4278    6.8612 H   0  0  0  0  0  0  0  0  0  0  0  0
    6.2396    3.8654    7.6551 H   0  0  0  0  0  0  0  0  0  0  0  0
    3.3753    3.7445    8.3361 H   0  0  0  0  0  0  0  0  0  0  0  0
    4.1840    4.6740    7.2045 H   0  0  0  0  0  0  0  0  0  0  0  0
    2.8468    5.2082    5.1615 H   0  0  0  0  0  0  0  0  0  0  0  0
    2.7525   -1.4126    7.1567 H   0  0  0  0  0  0  0  0  0  0  0  0
    4.0995    0.1306    8.5444 H   0  0  0  0  0  0  0  0  0  0  0  0
    3.5149   -1.7063   10.7293 H   0  0  0  0  0  0  0  0  0  0  0  0
    2.9582   -0.4966   11.8882 H   0  0  0  0  0  0  0  0  0  0  0  0
    4.3415   -0.1601   10.8433 H   0  0  0  0  0  0  0  0  0  0  0  0
    1.2652   -1.8932    9.7745 H   0  0  0  0  0  0  0  0  0  0  0  0
    0.3634   -0.4773    9.2389 H   0  0  0  0  0  0  0  0  0  0  0  0
    0.6845   -0.6966   10.9500 H   0  0  0  0  0  0  0  0  0  0  0  0
  1  2  1  0
  1 37  1  0
  1 38  1  0
  1 39  1  0
  3  2  1  1
  3 33  1  0
  3 34  1  0
  3  4  1  0
  4  5  1  0
  4 40  1  0
  4 41  1  0
  6  5  1  1
  5 42  1  0
  5 43  1  0
  6 14  1  0
  6 28  1  0
  6  7  1  0
  7 30  1  0
  7  8  2  3
  8  9  1  0
  8 44  1  0
  9 32  1  0
  9 10  1  0
  9 45  1  1
 10 20  1  0
 10 11  2  3
 11 12  1  0
 11 46  1  0
 12 13  1  0
 12 14  1  0
 12 47  1  6
 13 48  1  0
 13 49  1  0
 13 50  1  0
 14 15  1  0
 14 51  1  1
 15 16  2  0
 15 17  1  0
 17 18  1  0
 18 19  1  0
 18 52  1  0
 18 53  1  0
 19 20  2  3
 19 54  1  0
 20 21  1  0
 21 22  1  0
 21 23  1  0
 21 55  1  1
 22 56  1  0
 22 57  1  0
 22 58  1  0
 23 24  1  0
 23 32  1  0
 23 59  1  1
 24 25  1  0
 24 60  1  0
 24 61  1  0
 25 26  1  0
 25 27  1  0
 25 62  1  1
 26 63  1  0
 26 64  1  0
 26 65  1  0
 27 28  1  0
 27 66  1  0
 27 67  1  0
 28 29  1  6
 28 30  1  0
 29 68  1  0
 30 31  2  0
 32 33  1  0
 32 69  1  1
 33 34  1  0
 33 70  1  1
 34 35  1  0
 34 36  1  0
 35 71  1  0
 35 72  1  0
 35 73  1  0
 36 74  1  0
 36 75  1  0
 36 76  1  0
M  END
>  <i_m_ct_stereo_status>  (454) 
1

>  <s_m_source_file>  (454) 
/var/tmp/pbs.5076255.sched01/tmpg_ssl3dq/162k0u29fl7.sdf

>  <i_m_source_file_index>  (454) 
51

>  <i_lp_mmshare_version>  (454) 
48012

>  <i_f3d_flags>  (454) 
3

>  <s_epik_input>  (454) 
Tz1DMVtDQF0yKFtPSF0pW0NIMl1bQ0BIXShbQ0gzXSlbQ0gyXVtDSF0oW0NIXTNbQ0BASF00W0NAXShPW0NIM10pKFtDSDJdW0NIMl01KUM0KFtDSDNdKVtDSDNdKVtDQEhdKFtDSDNdKUMoXEM9NlxbQ0BIXTMvW0NIXT1DMVxbQ0BAXTI1Nyk9W0NIXVxbQ0gyXU9DKD1PKVtDQEBIXTdbQ0BASF0oL1tDSF02KVtDSDNd

>  <s_epik_cmdline>  (454) 
J2VwaWtfcHl0aG9uJywgJy1waHQnLCAnMi4wJywgJy1waCcsICc3LjAnLCAnLXRuJywgJzgnLCAnLW1hJywgJzIwMCcsICctaW1hZScsICc8aW5maWxlLm1hZT4nLCAnLW9tYWUnLCAnPG91dGZpbGUubWFlPic=

>  <r_lp_tautomer_probability>  (454) 
1

>  <r_epik_Ionization_Penalty>  (454) 
2.1431e-06

>  <r_epik_Ionization_Penalty_Charging>  (454) 
0

>  <r_epik_Ionization_Penalty_Neutral>  (454) 
2.1431e-06

>  <r_epik_State_Penalty>  (454) 
-0

>  <r_epik_Charging_Adjusted_Penalty>  (454) 
0

>  <i_epik_Tot_Q>  (454) 
0

>  <i_epik_Tot_abs_Q>  (454) 
0

>  <s_epik_Chemistry_Notes>  (454) 
This compound has an ester and may undergo hydrolysis at high or low pH.

>  <s_lp_Force_Field>  (454) 
OPLS3e

>  <r_lp_Energy>  (454) 
365.505

>  <b_lp_Chiralities_Consistent>  (454) 
0

>  <s_lp_Variant>  (454) 
118:0-8

>  <s_i_glide_gridfile>  (454) 
pfpi4k_grid

>  <i_i_glide_lignum>  (454) 
51

>  <i_i_glide_rotatable_bonds>  (454) 
2

>  <r_i_docking_score>  (454) 
-1.00987

>  <r_i_glide_ligand_efficiency>  (454) 
-0.0280518

>  <r_i_glide_ligand_efficiency_sa>  (454) 
-0.0926251

>  <r_i_glide_ligand_efficiency_ln>  (454) 
-0.220325

>  <r_i_glide_gscore>  (454) 
-1.00987

>  <r_i_glide_lipo>  (454) 
-0.0499993

>  <r_i_glide_hbond>  (454) 
0

>  <r_i_glide_metal>  (454) 
-0

>  <r_i_glide_rewards>  (454) 
-0.0501389

>  <r_i_glide_evdw>  (454) 
-17.9807

>  <r_i_glide_ecoul>  (454) 
0.173592

>  <r_i_glide_erotb>  (454) 
0

>  <r_i_glide_esite>  (454) 
-0.0367298

>  <r_i_glide_emodel>  (454) 
-16.6364

>  <r_i_glide_energy>  (454) 
-17.8071

>  <r_i_glide_einternal>  (454) 
4.06951

>  <r_i_glide_intrahb_reward>  (454) 
-0

>  <i_i_glide_confnum>  (454) 
1

>  <i_i_glide_posenum>  (454) 
4

>  <r_i_glide_eff_state_penalty>  (454) 
0

>  <ligand_id>  (454) 
118

>  <original_smiles>  (454) 
COC12CCC34C5=CC6C7=CC(C)C3C(=O)OCC=C7C(C)C(CC(C)CC4(O)C5=O)C6C1C2(C)C

>  <smiles>  (454) 
[H]OC12C(=O)C3=C([H])C4([H])C5=C([H])C([H])(C([H])([H])[H])C6([H])C(=O)OC([H])([H])C([H])=C5C([H])(C([H])([H])[H])C([H])(C([H])([H])C([H])(C([H])([H])[H])C1([H])[H])C4([H])C1([H])C(OC([H])([H])[H])(C([H])([H])C([H])([H])C362)C1(C([H])([H])[H])C([H])([H])[H]

$$$$
